data_image0
_cell_length_a       23.04
_cell_length_b       23.04
_cell_length_c       25.1398
_cell_angle_alpha    90
_cell_angle_beta     90
_cell_angle_gamma    120

_symmetry_space_group_name_H-M    "P 1"
_symmetry_int_tables_number       1

loop_
  _symmetry_equiv_pos_as_xyz
  'x, y, z'

loop_
  _atom_site_label
  _atom_site_occupancy
  _atom_site_fract_x
  _atom_site_fract_y
  _atom_site_fract_z
  _atom_site_thermal_displace_type
  _atom_site_B_iso_or_equiv
  _atom_site_type_symbol
  N1       1.0000 0.63237  0.86874  0.68060  Biso   1.000  N
  C1       1.0000 0.69519  0.90023  0.70560  Biso   1.000  C
  H1       1.0000 0.71651  0.94658  0.71408  Biso   1.000  H
  N2       1.0000 0.84822  0.04669  0.45370  Biso   1.000  N
  C2       1.0000 0.86553  0.02958  0.40519  Biso   1.000  C
  H2       1.0000 0.83565  0.98811  0.38861  Biso   1.000  H
  N3       1.0000 0.67236  0.94757  0.52248  Biso   1.000  N
  C3       1.0000 0.55052  0.85721  0.57070  Biso   1.000  C
  H3       1.0000 0.50918  0.82655  0.58707  Biso   1.000  H
  C4       1.0000 0.62123  0.89653  0.49235  Biso   1.000  C
  H4       1.0000 0.62786  0.89254  0.45552  Biso   1.000  H
  C5       1.0000 0.66257  0.95343  0.57672  Biso   1.000  C
  C6       1.0000 0.56031  0.85135  0.51646  Biso   1.000  C
  H5       1.0000 0.52560  0.81670  0.49600  Biso   1.000  H
  N4       1.0000 0.60165  0.90825  0.60083  Biso   1.000  N
  O1       1.0000 0.70824  0.99902  0.60365  Biso   1.000  O
  N5       1.0000 0.29904  0.20207  0.01393  Biso   1.000  N
  C7       1.0000 0.36186  0.23356  0.03893  Biso   1.000  C
  H6       1.0000 0.38318  0.27991  0.04741  Biso   1.000  H
  N6       1.0000 0.51489  0.38002  0.78703  Biso   1.000  N
  C8       1.0000 0.53220  0.36291  0.73852  Biso   1.000  C
  H7       1.0000 0.50232  0.32144  0.72194  Biso   1.000  H
  N7       1.0000 0.33903  0.28090  0.85581  Biso   1.000  N
  C9       1.0000 0.21719  0.19054  0.90403  Biso   1.000  C
  H8       1.0000 0.17585  0.15988  0.92040  Biso   1.000  H
  C10      1.0000 0.28790  0.22986  0.82568  Biso   1.000  C
  H9       1.0000 0.29453  0.22587  0.78885  Biso   1.000  H
  C11      1.0000 0.32924  0.28676  0.91005  Biso   1.000  C
  C12      1.0000 0.22698  0.18468  0.84979  Biso   1.000  C
  H10      1.0000 0.19227  0.15003  0.82933  Biso   1.000  H
  N8       1.0000 0.26832  0.24158  0.93416  Biso   1.000  N
  O2       1.0000 0.37491  0.33235  0.93698  Biso   1.000  O
  N9       1.0000 0.96570  0.53541  0.34727  Biso   1.000  N
  C13      1.0000 0.02852  0.56690  0.37227  Biso   1.000  C
  H11      1.0000 0.04984  0.61325  0.38075  Biso   1.000  H
  N10      1.0000 0.18155  0.71336  0.12037  Biso   1.000  N
  C14      1.0000 0.19886  0.69625  0.07186  Biso   1.000  C
  H12      1.0000 0.16898  0.65478  0.05528  Biso   1.000  H
  N11      1.0000 0.00569  0.61424  0.18915  Biso   1.000  N
  C15      1.0000 0.88385  0.52388  0.23737  Biso   1.000  C
  H13      1.0000 0.84251  0.49322  0.25374  Biso   1.000  H
  C16      1.0000 0.95456  0.56320  0.15902  Biso   1.000  C
  H14      1.0000 0.96119  0.55921  0.12219  Biso   1.000  H
  C17      1.0000 0.99590  0.62010  0.24339  Biso   1.000  C
  C18      1.0000 0.89364  0.51802  0.18313  Biso   1.000  C
  H15      1.0000 0.85893  0.48337  0.16267  Biso   1.000  H
  N12      1.0000 0.93498  0.57492  0.26750  Biso   1.000  N
  O3       1.0000 0.04157  0.66569  0.27032  Biso   1.000  O
  N13      1.0000 0.13126  0.76363  0.68060  Biso   1.000  N
  C19      1.0000 0.09977  0.79496  0.70560  Biso   1.000  C
  H16      1.0000 0.05342  0.76993  0.71408  Biso   1.000  H
  N14      1.0000 0.95331  0.80153  0.45370  Biso   1.000  N
  C20      1.0000 0.97042  0.83595  0.40519  Biso   1.000  C
  H17      1.0000 0.01189  0.84754  0.38861  Biso   1.000  H
  N15      1.0000 0.05243  0.72479  0.52248  Biso   1.000  N
  C21      1.0000 0.14279  0.69331  0.57070  Biso   1.000  C
  H18      1.0000 0.17345  0.68263  0.58707  Biso   1.000  H
  C22      1.0000 0.10347  0.72470  0.49235  Biso   1.000  C
  H19      1.0000 0.10746  0.73532  0.45552  Biso   1.000  H
  C23      1.0000 0.04657  0.70914  0.57672  Biso   1.000  C
  C24      1.0000 0.14865  0.70896  0.51646  Biso   1.000  C
  H20      1.0000 0.18330  0.70890  0.49600  Biso   1.000  H
  N16      1.0000 0.09175  0.69340  0.60083  Biso   1.000  N
  O4       1.0000 0.00098  0.70922  0.60365  Biso   1.000  O
  N17      1.0000 0.79793  0.09696  0.01393  Biso   1.000  N
  C25      1.0000 0.76644  0.12829  0.03893  Biso   1.000  C
  H21      1.0000 0.72009  0.10326  0.04741  Biso   1.000  H
  N18      1.0000 0.61998  0.13486  0.78703  Biso   1.000  N
  C26      1.0000 0.63709  0.16928  0.73852  Biso   1.000  C
  H22      1.0000 0.67856  0.18087  0.72194  Biso   1.000  H
  N19      1.0000 0.71910  0.05812  0.85581  Biso   1.000  N
  C27      1.0000 0.80946  0.02664  0.90403  Biso   1.000  C
  H23      1.0000 0.84012  0.01596  0.92040  Biso   1.000  H
  C28      1.0000 0.77014  0.05803  0.82568  Biso   1.000  C
  H24      1.0000 0.77413  0.06865  0.78885  Biso   1.000  H
  C29      1.0000 0.71324  0.04247  0.91005  Biso   1.000  C
  C30      1.0000 0.81532  0.04229  0.84979  Biso   1.000  C
  H25      1.0000 0.84997  0.04223  0.82933  Biso   1.000  H
  N20      1.0000 0.75842  0.02673  0.93416  Biso   1.000  N
  O5       1.0000 0.66765  0.04255  0.93698  Biso   1.000  O
  N21      1.0000 0.46459  0.43030  0.34727  Biso   1.000  N
  C31      1.0000 0.43310  0.46163  0.37227  Biso   1.000  C
  H26      1.0000 0.38675  0.43660  0.38075  Biso   1.000  H
  N22      1.0000 0.28664  0.46820  0.12037  Biso   1.000  N
  C32      1.0000 0.30375  0.50262  0.07186  Biso   1.000  C
  H27      1.0000 0.34522  0.51421  0.05528  Biso   1.000  H
  N23      1.0000 0.38576  0.39146  0.18915  Biso   1.000  N
  C33      1.0000 0.47612  0.35998  0.23737  Biso   1.000  C
  H28      1.0000 0.50678  0.34930  0.25374  Biso   1.000  H
  C34      1.0000 0.43680  0.39137  0.15902  Biso   1.000  C
  H29      1.0000 0.44079  0.40199  0.12219  Biso   1.000  H
  C35      1.0000 0.37990  0.37581  0.24339  Biso   1.000  C
  C36      1.0000 0.48198  0.37563  0.18313  Biso   1.000  C
  H30      1.0000 0.51663  0.37557  0.16267  Biso   1.000  H
  N24      1.0000 0.42508  0.36007  0.26750  Biso   1.000  N
  O6       1.0000 0.33431  0.37589  0.27032  Biso   1.000  O
  N25      1.0000 0.23637  0.36763  0.68060  Biso   1.000  N
  C37      1.0000 0.20504  0.30481  0.70560  Biso   1.000  C
  H31      1.0000 0.23007  0.28349  0.71408  Biso   1.000  H
  N26      1.0000 0.19847  0.15178  0.45370  Biso   1.000  N
  C38      1.0000 0.16405  0.13447  0.40519  Biso   1.000  C
  H32      1.0000 0.15246  0.16435  0.38861  Biso   1.000  H
  N27      1.0000 0.27521  0.32764  0.52248  Biso   1.000  N
  C39      1.0000 0.30669  0.44948  0.57070  Biso   1.000  C
  H33      1.0000 0.31737  0.49082  0.58707  Biso   1.000  H
  C40      1.0000 0.27530  0.37877  0.49235  Biso   1.000  C
  H34      1.0000 0.26468  0.37214  0.45552  Biso   1.000  H
  C41      1.0000 0.29086  0.33743  0.57672  Biso   1.000  C
  C42      1.0000 0.29104  0.43969  0.51646  Biso   1.000  C
  H35      1.0000 0.29110  0.47440  0.49600  Biso   1.000  H
  N28      1.0000 0.30660  0.39835  0.60083  Biso   1.000  N
  O7       1.0000 0.29078  0.29176  0.60365  Biso   1.000  O
  N29      1.0000 0.90304  0.70096  0.01393  Biso   1.000  N
  C43      1.0000 0.87171  0.63814  0.03893  Biso   1.000  C
  H36      1.0000 0.89674  0.61682  0.04741  Biso   1.000  H
  N30      1.0000 0.86514  0.48511  0.78703  Biso   1.000  N
  C44      1.0000 0.83072  0.46780  0.73852  Biso   1.000  C
  H37      1.0000 0.81913  0.49768  0.72194  Biso   1.000  H
  N31      1.0000 0.94188  0.66097  0.85581  Biso   1.000  N
  C45      1.0000 0.97336  0.78281  0.90403  Biso   1.000  C
  H38      1.0000 0.98404  0.82415  0.92040  Biso   1.000  H
  C46      1.0000 0.94197  0.71210  0.82568  Biso   1.000  C
  H39      1.0000 0.93135  0.70547  0.78885  Biso   1.000  H
  C47      1.0000 0.95753  0.67076  0.91005  Biso   1.000  C
  C48      1.0000 0.95771  0.77302  0.84979  Biso   1.000  C
  H40      1.0000 0.95777  0.80773  0.82933  Biso   1.000  H
  N32      1.0000 0.97327  0.73168  0.93416  Biso   1.000  N
  O8       1.0000 0.95745  0.62509  0.93698  Biso   1.000  O
  N33      1.0000 0.56970  0.03430  0.34727  Biso   1.000  N
  C49      1.0000 0.53837  0.97148  0.37227  Biso   1.000  C
  H41      1.0000 0.56340  0.95016  0.38075  Biso   1.000  H
  N34      1.0000 0.53180  0.81845  0.12037  Biso   1.000  N
  C50      1.0000 0.49738  0.80114  0.07186  Biso   1.000  C
  H42      1.0000 0.48579  0.83102  0.05528  Biso   1.000  H
  N35      1.0000 0.60854  0.99431  0.18915  Biso   1.000  N
  C51      1.0000 0.64002  0.11615  0.23737  Biso   1.000  C
  H43      1.0000 0.65070  0.15749  0.25374  Biso   1.000  H
  C52      1.0000 0.60863  0.04544  0.15902  Biso   1.000  C
  H44      1.0000 0.59801  0.03881  0.12219  Biso   1.000  H
  C53      1.0000 0.62419  0.00410  0.24339  Biso   1.000  C
  C54      1.0000 0.62437  0.10636  0.18313  Biso   1.000  C
  H45      1.0000 0.62443  0.14107  0.16267  Biso   1.000  H
  N36      1.0000 0.63993  0.06502  0.26750  Biso   1.000  N
  O9       1.0000 0.62411  0.95843  0.27032  Biso   1.000  O
  N37      1.0000 0.86874  0.63237  0.31940  Biso   1.000  N
  C55      1.0000 0.90023  0.69519  0.29440  Biso   1.000  C
  H46      1.0000 0.94658  0.71651  0.28592  Biso   1.000  H
  N38      1.0000 0.04669  0.84822  0.54630  Biso   1.000  N
  C56      1.0000 0.02958  0.86553  0.59481  Biso   1.000  C
  H47      1.0000 0.98811  0.83565  0.61139  Biso   1.000  H
  N39      1.0000 0.94757  0.67236  0.47752  Biso   1.000  N
  C57      1.0000 0.85721  0.55052  0.42930  Biso   1.000  C
  H48      1.0000 0.82655  0.50918  0.41293  Biso   1.000  H
  C58      1.0000 0.89653  0.62123  0.50765  Biso   1.000  C
  H49      1.0000 0.89254  0.62786  0.54448  Biso   1.000  H
  C59      1.0000 0.95343  0.66257  0.42328  Biso   1.000  C
  C60      1.0000 0.85135  0.56031  0.48354  Biso   1.000  C
  H50      1.0000 0.81670  0.52560  0.50400  Biso   1.000  H
  N40      1.0000 0.90825  0.60165  0.39917  Biso   1.000  N
  O10      1.0000 0.99902  0.70824  0.39635  Biso   1.000  O
  N41      1.0000 0.53541  0.96570  0.65273  Biso   1.000  N
  C61      1.0000 0.56690  0.02852  0.62773  Biso   1.000  C
  H51      1.0000 0.61325  0.04984  0.61925  Biso   1.000  H
  N42      1.0000 0.71336  0.18155  0.87963  Biso   1.000  N
  C62      1.0000 0.69625  0.19886  0.92814  Biso   1.000  C
  H52      1.0000 0.65478  0.16898  0.94472  Biso   1.000  H
  N43      1.0000 0.61424  0.00569  0.81085  Biso   1.000  N
  C63      1.0000 0.52388  0.88385  0.76263  Biso   1.000  C
  H53      1.0000 0.49322  0.84251  0.74626  Biso   1.000  H
  C64      1.0000 0.56320  0.95456  0.84098  Biso   1.000  C
  H54      1.0000 0.55921  0.96119  0.87781  Biso   1.000  H
  C65      1.0000 0.62010  0.99590  0.75661  Biso   1.000  C
  C66      1.0000 0.51802  0.89364  0.81687  Biso   1.000  C
  H55      1.0000 0.48337  0.85893  0.83733  Biso   1.000  H
  N44      1.0000 0.57492  0.93498  0.73250  Biso   1.000  N
  O11      1.0000 0.66569  0.04157  0.72968  Biso   1.000  O
  N45      1.0000 0.20207  0.29904  0.98607  Biso   1.000  N
  C67      1.0000 0.23356  0.36186  0.96107  Biso   1.000  C
  H56      1.0000 0.27991  0.38318  0.95259  Biso   1.000  H
  N46      1.0000 0.38002  0.51489  0.21297  Biso   1.000  N
  C68      1.0000 0.36291  0.53220  0.26148  Biso   1.000  C
  H57      1.0000 0.32144  0.50232  0.27806  Biso   1.000  H
  N47      1.0000 0.28090  0.33903  0.14419  Biso   1.000  N
  C69      1.0000 0.19054  0.21719  0.09597  Biso   1.000  C
  H58      1.0000 0.15988  0.17585  0.07960  Biso   1.000  H
  C70      1.0000 0.22986  0.28790  0.17432  Biso   1.000  C
  H59      1.0000 0.22587  0.29453  0.21115  Biso   1.000  H
  C71      1.0000 0.28676  0.32924  0.08995  Biso   1.000  C
  C72      1.0000 0.18468  0.22698  0.15021  Biso   1.000  C
  H60      1.0000 0.15003  0.19227  0.17067  Biso   1.000  H
  N48      1.0000 0.24158  0.26832  0.06584  Biso   1.000  N
  O12      1.0000 0.33235  0.37491  0.06302  Biso   1.000  O
  N49      1.0000 0.76363  0.13126  0.31940  Biso   1.000  N
  C73      1.0000 0.79496  0.09977  0.29440  Biso   1.000  C
  H61      1.0000 0.76993  0.05342  0.28592  Biso   1.000  H
  N50      1.0000 0.80153  0.95331  0.54630  Biso   1.000  N
  C74      1.0000 0.83595  0.97042  0.59481  Biso   1.000  C
  H62      1.0000 0.84754  0.01189  0.61139  Biso   1.000  H
  N51      1.0000 0.72479  0.05243  0.47752  Biso   1.000  N
  C75      1.0000 0.69331  0.14279  0.42930  Biso   1.000  C
  H63      1.0000 0.68263  0.17345  0.41293  Biso   1.000  H
  C76      1.0000 0.72470  0.10347  0.50765  Biso   1.000  C
  H64      1.0000 0.73532  0.10746  0.54448  Biso   1.000  H
  C77      1.0000 0.70914  0.04657  0.42328  Biso   1.000  C
  C78      1.0000 0.70896  0.14865  0.48354  Biso   1.000  C
  H65      1.0000 0.70890  0.18330  0.50400  Biso   1.000  H
  N52      1.0000 0.69340  0.09175  0.39917  Biso   1.000  N
  O13      1.0000 0.70922  0.00098  0.39635  Biso   1.000  O
  N53      1.0000 0.43030  0.46459  0.65273  Biso   1.000  N
  C79      1.0000 0.46163  0.43310  0.62773  Biso   1.000  C
  H66      1.0000 0.43660  0.38675  0.61925  Biso   1.000  H
  N54      1.0000 0.46820  0.28664  0.87963  Biso   1.000  N
  C80      1.0000 0.50262  0.30375  0.92814  Biso   1.000  C
  H67      1.0000 0.51421  0.34522  0.94472  Biso   1.000  H
  N55      1.0000 0.39146  0.38576  0.81085  Biso   1.000  N
  C81      1.0000 0.35998  0.47612  0.76263  Biso   1.000  C
  H68      1.0000 0.34930  0.50678  0.74626  Biso   1.000  H
  C82      1.0000 0.39137  0.43680  0.84098  Biso   1.000  C
  H69      1.0000 0.40199  0.44079  0.87781  Biso   1.000  H
  C83      1.0000 0.37581  0.37990  0.75661  Biso   1.000  C
  C84      1.0000 0.37563  0.48198  0.81687  Biso   1.000  C
  H70      1.0000 0.37557  0.51663  0.83733  Biso   1.000  H
  N56      1.0000 0.36007  0.42508  0.73250  Biso   1.000  N
  O14      1.0000 0.37589  0.33431  0.72968  Biso   1.000  O
  N57      1.0000 0.09696  0.79793  0.98607  Biso   1.000  N
  C85      1.0000 0.12829  0.76644  0.96107  Biso   1.000  C
  H71      1.0000 0.10326  0.72009  0.95259  Biso   1.000  H
  N58      1.0000 0.13486  0.61998  0.21297  Biso   1.000  N
  C86      1.0000 0.16928  0.63709  0.26148  Biso   1.000  C
  H72      1.0000 0.18087  0.67856  0.27806  Biso   1.000  H
  N59      1.0000 0.05812  0.71910  0.14419  Biso   1.000  N
  C87      1.0000 0.02664  0.80946  0.09597  Biso   1.000  C
  H73      1.0000 0.01596  0.84012  0.07960  Biso   1.000  H
  C88      1.0000 0.05803  0.77014  0.17432  Biso   1.000  C
  H74      1.0000 0.06865  0.77413  0.21115  Biso   1.000  H
  C89      1.0000 0.04247  0.71324  0.08995  Biso   1.000  C
  C90      1.0000 0.04229  0.81532  0.15021  Biso   1.000  C
  H75      1.0000 0.04223  0.84997  0.17067  Biso   1.000  H
  N60      1.0000 0.02673  0.75842  0.06584  Biso   1.000  N
  O15      1.0000 0.04255  0.66765  0.06302  Biso   1.000  O
  N61      1.0000 0.36763  0.23637  0.31940  Biso   1.000  N
  C91      1.0000 0.30481  0.20504  0.29440  Biso   1.000  C
  H76      1.0000 0.28349  0.23007  0.28592  Biso   1.000  H
  N62      1.0000 0.15178  0.19847  0.54630  Biso   1.000  N
  C92      1.0000 0.13447  0.16405  0.59481  Biso   1.000  C
  H77      1.0000 0.16435  0.15246  0.61139  Biso   1.000  H
  N63      1.0000 0.32764  0.27521  0.47752  Biso   1.000  N
  C93      1.0000 0.44948  0.30669  0.42930  Biso   1.000  C
  H78      1.0000 0.49082  0.31737  0.41293  Biso   1.000  H
  C94      1.0000 0.37877  0.27530  0.50765  Biso   1.000  C
  H79      1.0000 0.37214  0.26468  0.54448  Biso   1.000  H
  C95      1.0000 0.33743  0.29086  0.42328  Biso   1.000  C
  C96      1.0000 0.43969  0.29104  0.48354  Biso   1.000  C
  H80      1.0000 0.47440  0.29110  0.50400  Biso   1.000  H
  N64      1.0000 0.39835  0.30660  0.39917  Biso   1.000  N
  O16      1.0000 0.29176  0.29078  0.39635  Biso   1.000  O
  N65      1.0000 0.03430  0.56970  0.65273  Biso   1.000  N
  C97      1.0000 0.97148  0.53837  0.62773  Biso   1.000  C
  H81      1.0000 0.95016  0.56340  0.61925  Biso   1.000  H
  N66      1.0000 0.81845  0.53180  0.87963  Biso   1.000  N
  C98      1.0000 0.80114  0.49738  0.92814  Biso   1.000  C
  H82      1.0000 0.83102  0.48579  0.94472  Biso   1.000  H
  N67      1.0000 0.99431  0.60854  0.81085  Biso   1.000  N
  C99      1.0000 0.11615  0.64002  0.76263  Biso   1.000  C
  H83      1.0000 0.15749  0.65070  0.74626  Biso   1.000  H
  C100     1.0000 0.04544  0.60863  0.84098  Biso   1.000  C
  H84      1.0000 0.03881  0.59801  0.87781  Biso   1.000  H
  C101     1.0000 0.00410  0.62419  0.75661  Biso   1.000  C
  C102     1.0000 0.10636  0.62437  0.81687  Biso   1.000  C
  H85      1.0000 0.14107  0.62443  0.83733  Biso   1.000  H
  N68      1.0000 0.06502  0.63993  0.73250  Biso   1.000  N
  O17      1.0000 0.95843  0.62411  0.72968  Biso   1.000  O
  N69      1.0000 0.70096  0.90304  0.98607  Biso   1.000  N
  C103     1.0000 0.63814  0.87171  0.96107  Biso   1.000  C
  H86      1.0000 0.61682  0.89674  0.95259  Biso   1.000  H
  N70      1.0000 0.48511  0.86514  0.21297  Biso   1.000  N
  C104     1.0000 0.46780  0.83072  0.26148  Biso   1.000  C
  H87      1.0000 0.49768  0.81913  0.27806  Biso   1.000  H
  N71      1.0000 0.66097  0.94188  0.14419  Biso   1.000  N
  C105     1.0000 0.78281  0.97336  0.09597  Biso   1.000  C
  H88      1.0000 0.82415  0.98404  0.07960  Biso   1.000  H
  C106     1.0000 0.71210  0.94197  0.17432  Biso   1.000  C
  H89      1.0000 0.70547  0.93135  0.21115  Biso   1.000  H
  C107     1.0000 0.67076  0.95753  0.08995  Biso   1.000  C
  C108     1.0000 0.77302  0.95771  0.15021  Biso   1.000  C
  H90      1.0000 0.80773  0.95777  0.17067  Biso   1.000  H
  N72      1.0000 0.73168  0.97327  0.06584  Biso   1.000  N
  O18      1.0000 0.62509  0.95745  0.06302  Biso   1.000  O
  N73      1.0000 0.36763  0.13126  0.31940  Biso   1.000  N
  C109     1.0000 0.30481  0.09977  0.29440  Biso   1.000  C
  H91      1.0000 0.28349  0.05342  0.28592  Biso   1.000  H
  N74      1.0000 0.15178  0.95331  0.54630  Biso   1.000  N
  C110     1.0000 0.13447  0.97042  0.59481  Biso   1.000  C
  H92      1.0000 0.16435  0.01189  0.61139  Biso   1.000  H
  N75      1.0000 0.32764  0.05243  0.47752  Biso   1.000  N
  C111     1.0000 0.44948  0.14279  0.42930  Biso   1.000  C
  H93      1.0000 0.49082  0.17345  0.41293  Biso   1.000  H
  C112     1.0000 0.37877  0.10347  0.50765  Biso   1.000  C
  H94      1.0000 0.37214  0.10746  0.54448  Biso   1.000  H
  C113     1.0000 0.33743  0.04657  0.42328  Biso   1.000  C
  C114     1.0000 0.43969  0.14865  0.48354  Biso   1.000  C
  H95      1.0000 0.47440  0.18330  0.50400  Biso   1.000  H
  N76      1.0000 0.39835  0.09175  0.39917  Biso   1.000  N
  O19      1.0000 0.29176  0.00098  0.39635  Biso   1.000  O
  N77      1.0000 0.03430  0.46459  0.65273  Biso   1.000  N
  C115     1.0000 0.97148  0.43310  0.62773  Biso   1.000  C
  H96      1.0000 0.95016  0.38675  0.61925  Biso   1.000  H
  N78      1.0000 0.81845  0.28664  0.87963  Biso   1.000  N
  C116     1.0000 0.80114  0.30375  0.92814  Biso   1.000  C
  H97      1.0000 0.83102  0.34522  0.94472  Biso   1.000  H
  N79      1.0000 0.99431  0.38576  0.81085  Biso   1.000  N
  C117     1.0000 0.11615  0.47612  0.76263  Biso   1.000  C
  H98      1.0000 0.15749  0.50678  0.74626  Biso   1.000  H
  C118     1.0000 0.04544  0.43680  0.84098  Biso   1.000  C
  H99      1.0000 0.03881  0.44079  0.87781  Biso   1.000  H
  C119     1.0000 0.00410  0.37990  0.75661  Biso   1.000  C
  C120     1.0000 0.10636  0.48198  0.81687  Biso   1.000  C
  H100     1.0000 0.14107  0.51663  0.83733  Biso   1.000  H
  N80      1.0000 0.06502  0.42508  0.73250  Biso   1.000  N
  O20      1.0000 0.95843  0.33431  0.72968  Biso   1.000  O
  N81      1.0000 0.70096  0.79793  0.98607  Biso   1.000  N
  C121     1.0000 0.63814  0.76644  0.96107  Biso   1.000  C
  H101     1.0000 0.61682  0.72009  0.95259  Biso   1.000  H
  N82      1.0000 0.48511  0.61998  0.21297  Biso   1.000  N
  C122     1.0000 0.46780  0.63709  0.26148  Biso   1.000  C
  H102     1.0000 0.49768  0.67856  0.27806  Biso   1.000  H
  N83      1.0000 0.66097  0.71910  0.14419  Biso   1.000  N
  C123     1.0000 0.78281  0.80946  0.09597  Biso   1.000  C
  H103     1.0000 0.82415  0.84012  0.07960  Biso   1.000  H
  C124     1.0000 0.71210  0.77014  0.17432  Biso   1.000  C
  H104     1.0000 0.70547  0.77413  0.21115  Biso   1.000  H
  C125     1.0000 0.67076  0.71324  0.08995  Biso   1.000  C
  C126     1.0000 0.77302  0.81532  0.15021  Biso   1.000  C
  H105     1.0000 0.80773  0.84997  0.17067  Biso   1.000  H
  N84      1.0000 0.73168  0.75842  0.06584  Biso   1.000  N
  O21      1.0000 0.62509  0.66765  0.06302  Biso   1.000  O
  N85      1.0000 0.86874  0.23637  0.31940  Biso   1.000  N
  C127     1.0000 0.90023  0.20504  0.29440  Biso   1.000  C
  H106     1.0000 0.94658  0.23007  0.28592  Biso   1.000  H
  N86      1.0000 0.04669  0.19847  0.54630  Biso   1.000  N
  C128     1.0000 0.02958  0.16405  0.59481  Biso   1.000  C
  H107     1.0000 0.98811  0.15246  0.61139  Biso   1.000  H
  N87      1.0000 0.94757  0.27521  0.47752  Biso   1.000  N
  C129     1.0000 0.85721  0.30669  0.42930  Biso   1.000  C
  H108     1.0000 0.82655  0.31737  0.41293  Biso   1.000  H
  C130     1.0000 0.89653  0.27530  0.50765  Biso   1.000  C
  H109     1.0000 0.89254  0.26468  0.54448  Biso   1.000  H
  C131     1.0000 0.95343  0.29086  0.42328  Biso   1.000  C
  C132     1.0000 0.85135  0.29104  0.48354  Biso   1.000  C
  H110     1.0000 0.81670  0.29110  0.50400  Biso   1.000  H
  N88      1.0000 0.90825  0.30660  0.39917  Biso   1.000  N
  O22      1.0000 0.99902  0.29078  0.39635  Biso   1.000  O
  N89      1.0000 0.53541  0.56970  0.65273  Biso   1.000  N
  C133     1.0000 0.56690  0.53837  0.62773  Biso   1.000  C
  H111     1.0000 0.61325  0.56340  0.61925  Biso   1.000  H
  N90      1.0000 0.71336  0.53180  0.87963  Biso   1.000  N
  C134     1.0000 0.69625  0.49738  0.92814  Biso   1.000  C
  H112     1.0000 0.65478  0.48579  0.94472  Biso   1.000  H
  N91      1.0000 0.61424  0.60854  0.81085  Biso   1.000  N
  C135     1.0000 0.52388  0.64002  0.76263  Biso   1.000  C
  H113     1.0000 0.49322  0.65070  0.74626  Biso   1.000  H
  C136     1.0000 0.56320  0.60863  0.84098  Biso   1.000  C
  H114     1.0000 0.55921  0.59801  0.87781  Biso   1.000  H
  C137     1.0000 0.62010  0.62419  0.75661  Biso   1.000  C
  C138     1.0000 0.51802  0.62437  0.81687  Biso   1.000  C
  H115     1.0000 0.48337  0.62443  0.83733  Biso   1.000  H
  N92      1.0000 0.57492  0.63993  0.73250  Biso   1.000  N
  O23      1.0000 0.66569  0.62411  0.72968  Biso   1.000  O
  N93      1.0000 0.20207  0.90304  0.98607  Biso   1.000  N
  C139     1.0000 0.23356  0.87171  0.96107  Biso   1.000  C
  H116     1.0000 0.27991  0.89674  0.95259  Biso   1.000  H
  N94      1.0000 0.38002  0.86514  0.21297  Biso   1.000  N
  C140     1.0000 0.36291  0.83072  0.26148  Biso   1.000  C
  H117     1.0000 0.32144  0.81913  0.27806  Biso   1.000  H
  N95      1.0000 0.28090  0.94188  0.14419  Biso   1.000  N
  C141     1.0000 0.19054  0.97336  0.09597  Biso   1.000  C
  H118     1.0000 0.15988  0.98404  0.07960  Biso   1.000  H
  C142     1.0000 0.22986  0.94197  0.17432  Biso   1.000  C
  H119     1.0000 0.22587  0.93135  0.21115  Biso   1.000  H
  C143     1.0000 0.28676  0.95753  0.08995  Biso   1.000  C
  C144     1.0000 0.18468  0.95771  0.15021  Biso   1.000  C
  H120     1.0000 0.15003  0.95777  0.17067  Biso   1.000  H
  N96      1.0000 0.24158  0.97327  0.06584  Biso   1.000  N
  O24      1.0000 0.33235  0.95745  0.06302  Biso   1.000  O
  N97      1.0000 0.76363  0.63237  0.31940  Biso   1.000  N
  C145     1.0000 0.79496  0.69519  0.29440  Biso   1.000  C
  H121     1.0000 0.76993  0.71651  0.28592  Biso   1.000  H
  N98      1.0000 0.80153  0.84822  0.54630  Biso   1.000  N
  C146     1.0000 0.83595  0.86553  0.59481  Biso   1.000  C
  H122     1.0000 0.84754  0.83565  0.61139  Biso   1.000  H
  N99      1.0000 0.72479  0.67236  0.47752  Biso   1.000  N
  C147     1.0000 0.69331  0.55052  0.42930  Biso   1.000  C
  H123     1.0000 0.68263  0.50918  0.41293  Biso   1.000  H
  C148     1.0000 0.72470  0.62123  0.50765  Biso   1.000  C
  H124     1.0000 0.73532  0.62786  0.54448  Biso   1.000  H
  C149     1.0000 0.70914  0.66257  0.42328  Biso   1.000  C
  C150     1.0000 0.70896  0.56031  0.48354  Biso   1.000  C
  H125     1.0000 0.70890  0.52560  0.50400  Biso   1.000  H
  N100     1.0000 0.69340  0.60165  0.39917  Biso   1.000  N
  O25      1.0000 0.70922  0.70824  0.39635  Biso   1.000  O
  N101     1.0000 0.43030  0.96570  0.65273  Biso   1.000  N
  C151     1.0000 0.46163  0.02852  0.62773  Biso   1.000  C
  H126     1.0000 0.43660  0.04984  0.61925  Biso   1.000  H
  N102     1.0000 0.46820  0.18155  0.87963  Biso   1.000  N
  C152     1.0000 0.50262  0.19886  0.92814  Biso   1.000  C
  H127     1.0000 0.51421  0.16898  0.94472  Biso   1.000  H
  N103     1.0000 0.39146  0.00569  0.81085  Biso   1.000  N
  C153     1.0000 0.35998  0.88385  0.76263  Biso   1.000  C
  H128     1.0000 0.34930  0.84251  0.74626  Biso   1.000  H
  C154     1.0000 0.39137  0.95456  0.84098  Biso   1.000  C
  H129     1.0000 0.40199  0.96119  0.87781  Biso   1.000  H
  C155     1.0000 0.37581  0.99590  0.75661  Biso   1.000  C
  C156     1.0000 0.37563  0.89364  0.81687  Biso   1.000  C
  H130     1.0000 0.37557  0.85893  0.83733  Biso   1.000  H
  N104     1.0000 0.36007  0.93498  0.73250  Biso   1.000  N
  O26      1.0000 0.37589  0.04157  0.72968  Biso   1.000  O
  N105     1.0000 0.09696  0.29904  0.98607  Biso   1.000  N
  C157     1.0000 0.12829  0.36186  0.96107  Biso   1.000  C
  H131     1.0000 0.10326  0.38318  0.95259  Biso   1.000  H
  N106     1.0000 0.13486  0.51489  0.21297  Biso   1.000  N
  C158     1.0000 0.16928  0.53220  0.26148  Biso   1.000  C
  H132     1.0000 0.18087  0.50232  0.27806  Biso   1.000  H
  N107     1.0000 0.05812  0.33903  0.14419  Biso   1.000  N
  C159     1.0000 0.02664  0.21719  0.09597  Biso   1.000  C
  H133     1.0000 0.01596  0.17585  0.07960  Biso   1.000  H
  C160     1.0000 0.05803  0.28790  0.17432  Biso   1.000  C
  H134     1.0000 0.06865  0.29453  0.21115  Biso   1.000  H
  C161     1.0000 0.04247  0.32924  0.08995  Biso   1.000  C
  C162     1.0000 0.04229  0.22698  0.15021  Biso   1.000  C
  H135     1.0000 0.04223  0.19227  0.17067  Biso   1.000  H
  N108     1.0000 0.02673  0.26832  0.06584  Biso   1.000  N
  O27      1.0000 0.04255  0.37491  0.06302  Biso   1.000  O
  N109     1.0000 0.13126  0.36763  0.68060  Biso   1.000  N
  C163     1.0000 0.09977  0.30481  0.70560  Biso   1.000  C
  H136     1.0000 0.05342  0.28349  0.71408  Biso   1.000  H
  N110     1.0000 0.95331  0.15178  0.45370  Biso   1.000  N
  C164     1.0000 0.97042  0.13447  0.40519  Biso   1.000  C
  H137     1.0000 0.01189  0.16435  0.38861  Biso   1.000  H
  N111     1.0000 0.05243  0.32764  0.52248  Biso   1.000  N
  C165     1.0000 0.14279  0.44948  0.57070  Biso   1.000  C
  H138     1.0000 0.17345  0.49082  0.58707  Biso   1.000  H
  C166     1.0000 0.10347  0.37877  0.49235  Biso   1.000  C
  H139     1.0000 0.10746  0.37214  0.45552  Biso   1.000  H
  C167     1.0000 0.04657  0.33743  0.57672  Biso   1.000  C
  C168     1.0000 0.14865  0.43969  0.51646  Biso   1.000  C
  H140     1.0000 0.18330  0.47440  0.49600  Biso   1.000  H
  N112     1.0000 0.09175  0.39835  0.60083  Biso   1.000  N
  O28      1.0000 0.00098  0.29176  0.60365  Biso   1.000  O
  N113     1.0000 0.79793  0.70096  0.01393  Biso   1.000  N
  C169     1.0000 0.76644  0.63814  0.03893  Biso   1.000  C
  H141     1.0000 0.72009  0.61682  0.04741  Biso   1.000  H
  N114     1.0000 0.61998  0.48511  0.78703  Biso   1.000  N
  C170     1.0000 0.63709  0.46780  0.73852  Biso   1.000  C
  H142     1.0000 0.67856  0.49768  0.72194  Biso   1.000  H
  N115     1.0000 0.71910  0.66097  0.85581  Biso   1.000  N
  C171     1.0000 0.80946  0.78281  0.90403  Biso   1.000  C
  H143     1.0000 0.84012  0.82415  0.92040  Biso   1.000  H
  C172     1.0000 0.77014  0.71210  0.82568  Biso   1.000  C
  H144     1.0000 0.77413  0.70547  0.78885  Biso   1.000  H
  C173     1.0000 0.71324  0.67076  0.91005  Biso   1.000  C
  C174     1.0000 0.81532  0.77302  0.84979  Biso   1.000  C
  H145     1.0000 0.84997  0.80773  0.82933  Biso   1.000  H
  N116     1.0000 0.75842  0.73168  0.93416  Biso   1.000  N
  O29      1.0000 0.66765  0.62509  0.93698  Biso   1.000  O
  N117     1.0000 0.46459  0.03430  0.34727  Biso   1.000  N
  C175     1.0000 0.43310  0.97148  0.37227  Biso   1.000  C
  H146     1.0000 0.38675  0.95016  0.38075  Biso   1.000  H
  N118     1.0000 0.28664  0.81845  0.12037  Biso   1.000  N
  C176     1.0000 0.30375  0.80114  0.07186  Biso   1.000  C
  H147     1.0000 0.34522  0.83102  0.05528  Biso   1.000  H
  N119     1.0000 0.38576  0.99431  0.18915  Biso   1.000  N
  C177     1.0000 0.47612  0.11615  0.23737  Biso   1.000  C
  H148     1.0000 0.50678  0.15749  0.25374  Biso   1.000  H
  C178     1.0000 0.43680  0.04544  0.15902  Biso   1.000  C
  H149     1.0000 0.44079  0.03881  0.12219  Biso   1.000  H
  C179     1.0000 0.37990  0.00410  0.24339  Biso   1.000  C
  C180     1.0000 0.48198  0.10636  0.18313  Biso   1.000  C
  H150     1.0000 0.51663  0.14107  0.16267  Biso   1.000  H
  N120     1.0000 0.42508  0.06502  0.26750  Biso   1.000  N
  O30      1.0000 0.33431  0.95843  0.27032  Biso   1.000  O
  N121     1.0000 0.23637  0.86874  0.68060  Biso   1.000  N
  C181     1.0000 0.20504  0.90023  0.70560  Biso   1.000  C
  H151     1.0000 0.23007  0.94658  0.71408  Biso   1.000  H
  N122     1.0000 0.19847  0.04669  0.45370  Biso   1.000  N
  C182     1.0000 0.16405  0.02958  0.40519  Biso   1.000  C
  H152     1.0000 0.15246  0.98811  0.38861  Biso   1.000  H
  N123     1.0000 0.27521  0.94757  0.52248  Biso   1.000  N
  C183     1.0000 0.30669  0.85721  0.57070  Biso   1.000  C
  H153     1.0000 0.31737  0.82655  0.58707  Biso   1.000  H
  C184     1.0000 0.27530  0.89653  0.49235  Biso   1.000  C
  H154     1.0000 0.26468  0.89254  0.45552  Biso   1.000  H
  C185     1.0000 0.29086  0.95343  0.57672  Biso   1.000  C
  C186     1.0000 0.29104  0.85135  0.51646  Biso   1.000  C
  H155     1.0000 0.29110  0.81670  0.49600  Biso   1.000  H
  N124     1.0000 0.30660  0.90825  0.60083  Biso   1.000  N
  O31      1.0000 0.29078  0.99902  0.60365  Biso   1.000  O
  N125     1.0000 0.90304  0.20207  0.01393  Biso   1.000  N
  C187     1.0000 0.87171  0.23356  0.03893  Biso   1.000  C
  H156     1.0000 0.89674  0.27991  0.04741  Biso   1.000  H
  N126     1.0000 0.86514  0.38002  0.78703  Biso   1.000  N
  C188     1.0000 0.83072  0.36291  0.73852  Biso   1.000  C
  H157     1.0000 0.81913  0.32144  0.72194  Biso   1.000  H
  N127     1.0000 0.94188  0.28090  0.85581  Biso   1.000  N
  C189     1.0000 0.97336  0.19054  0.90403  Biso   1.000  C
  H158     1.0000 0.98404  0.15988  0.92040  Biso   1.000  H
  C190     1.0000 0.94197  0.22986  0.82568  Biso   1.000  C
  H159     1.0000 0.93135  0.22587  0.78885  Biso   1.000  H
  C191     1.0000 0.95753  0.28676  0.91005  Biso   1.000  C
  C192     1.0000 0.95771  0.18468  0.84979  Biso   1.000  C
  H160     1.0000 0.95777  0.15003  0.82933  Biso   1.000  H
  N128     1.0000 0.97327  0.24158  0.93416  Biso   1.000  N
  O32      1.0000 0.95745  0.33235  0.93698  Biso   1.000  O
  N129     1.0000 0.56970  0.53541  0.34727  Biso   1.000  N
  C193     1.0000 0.53837  0.56690  0.37227  Biso   1.000  C
  H161     1.0000 0.56340  0.61325  0.38075  Biso   1.000  H
  N130     1.0000 0.53180  0.71336  0.12037  Biso   1.000  N
  C194     1.0000 0.49738  0.69625  0.07186  Biso   1.000  C
  H162     1.0000 0.48579  0.65478  0.05528  Biso   1.000  H
  N131     1.0000 0.60854  0.61424  0.18915  Biso   1.000  N
  C195     1.0000 0.64002  0.52388  0.23737  Biso   1.000  C
  H163     1.0000 0.65070  0.49322  0.25374  Biso   1.000  H
  C196     1.0000 0.60863  0.56320  0.15902  Biso   1.000  C
  H164     1.0000 0.59801  0.55921  0.12219  Biso   1.000  H
  C197     1.0000 0.62419  0.62010  0.24339  Biso   1.000  C
  C198     1.0000 0.62437  0.51802  0.18313  Biso   1.000  C
  H165     1.0000 0.62443  0.48337  0.16267  Biso   1.000  H
  N132     1.0000 0.63993  0.57492  0.26750  Biso   1.000  N
  O33      1.0000 0.62411  0.66569  0.27032  Biso   1.000  O
  N133     1.0000 0.63237  0.76363  0.68060  Biso   1.000  N
  C199     1.0000 0.69519  0.79496  0.70560  Biso   1.000  C
  H166     1.0000 0.71651  0.76993  0.71408  Biso   1.000  H
  N134     1.0000 0.84822  0.80153  0.45370  Biso   1.000  N
  C200     1.0000 0.86553  0.83595  0.40519  Biso   1.000  C
  H167     1.0000 0.83565  0.84754  0.38861  Biso   1.000  H
  N135     1.0000 0.67236  0.72479  0.52248  Biso   1.000  N
  C201     1.0000 0.55052  0.69331  0.57070  Biso   1.000  C
  H168     1.0000 0.50918  0.68263  0.58707  Biso   1.000  H
  C202     1.0000 0.62123  0.72470  0.49235  Biso   1.000  C
  H169     1.0000 0.62786  0.73532  0.45552  Biso   1.000  H
  C203     1.0000 0.66257  0.70914  0.57672  Biso   1.000  C
  C204     1.0000 0.56031  0.70896  0.51646  Biso   1.000  C
  H170     1.0000 0.52560  0.70890  0.49600  Biso   1.000  H
  N136     1.0000 0.60165  0.69340  0.60083  Biso   1.000  N
  O34      1.0000 0.70824  0.70922  0.60365  Biso   1.000  O
  N137     1.0000 0.29904  0.09696  0.01393  Biso   1.000  N
  C205     1.0000 0.36186  0.12829  0.03893  Biso   1.000  C
  H171     1.0000 0.38318  0.10326  0.04741  Biso   1.000  H
  N138     1.0000 0.51489  0.13486  0.78703  Biso   1.000  N
  C206     1.0000 0.53220  0.16928  0.73852  Biso   1.000  C
  H172     1.0000 0.50232  0.18087  0.72194  Biso   1.000  H
  N139     1.0000 0.33903  0.05812  0.85581  Biso   1.000  N
  C207     1.0000 0.21719  0.02664  0.90403  Biso   1.000  C
  H173     1.0000 0.17585  0.01596  0.92040  Biso   1.000  H
  C208     1.0000 0.28790  0.05803  0.82568  Biso   1.000  C
  H174     1.0000 0.29453  0.06865  0.78885  Biso   1.000  H
  C209     1.0000 0.32924  0.04247  0.91005  Biso   1.000  C
  C210     1.0000 0.22698  0.04229  0.84979  Biso   1.000  C
  H175     1.0000 0.19227  0.04223  0.82933  Biso   1.000  H
  N140     1.0000 0.26832  0.02673  0.93416  Biso   1.000  N
  O35      1.0000 0.37491  0.04255  0.93698  Biso   1.000  O
  N141     1.0000 0.96570  0.43030  0.34727  Biso   1.000  N
  C211     1.0000 0.02852  0.46163  0.37227  Biso   1.000  C
  H176     1.0000 0.04984  0.43660  0.38075  Biso   1.000  H
  N142     1.0000 0.18155  0.46820  0.12037  Biso   1.000  N
  C212     1.0000 0.19886  0.50262  0.07186  Biso   1.000  C
  H177     1.0000 0.16898  0.51421  0.05528  Biso   1.000  H
  N143     1.0000 0.00569  0.39146  0.18915  Biso   1.000  N
  C213     1.0000 0.88385  0.35998  0.23737  Biso   1.000  C
  H178     1.0000 0.84251  0.34930  0.25374  Biso   1.000  H
  C214     1.0000 0.95456  0.39137  0.15902  Biso   1.000  C
  H179     1.0000 0.96119  0.40199  0.12219  Biso   1.000  H
  C215     1.0000 0.99590  0.37581  0.24339  Biso   1.000  C
  C216     1.0000 0.89364  0.37563  0.18313  Biso   1.000  C
  H180     1.0000 0.85893  0.37557  0.16267  Biso   1.000  H
  N144     1.0000 0.93498  0.36007  0.26750  Biso   1.000  N
  O36      1.0000 0.04157  0.37589  0.27032  Biso   1.000  O
  Cu1      1.0000 0.76747  0.00000  0.50000  Biso   1.000  Cu
  Cu2      1.0000 0.43414  0.33333  0.83333  Biso   1.000  Cu
  Cu3      1.0000 0.10080  0.66667  0.16667  Biso   1.000  Cu
  Cu4      1.0000 0.00000  0.76747  0.50000  Biso   1.000  Cu
  Cu5      1.0000 0.66667  0.10080  0.83333  Biso   1.000  Cu
  Cu6      1.0000 0.33333  0.43414  0.16667  Biso   1.000  Cu
  Cu7      1.0000 0.23253  0.23253  0.50000  Biso   1.000  Cu
  Cu8      1.0000 0.89920  0.56586  0.83333  Biso   1.000  Cu
  Cu9      1.0000 0.56586  0.89920  0.16667  Biso   1.000  Cu
  Cu10     1.0000 0.23253  0.00000  0.50000  Biso   1.000  Cu
  Cu11     1.0000 0.89920  0.33333  0.83333  Biso   1.000  Cu
  Cu12     1.0000 0.56586  0.66667  0.16667  Biso   1.000  Cu
  Cu13     1.0000 0.00000  0.23253  0.50000  Biso   1.000  Cu
  Cu14     1.0000 0.66667  0.56586  0.83333  Biso   1.000  Cu
  Cu15     1.0000 0.33333  0.89920  0.16667  Biso   1.000  Cu
  Cu16     1.0000 0.76747  0.76747  0.50000  Biso   1.000  Cu
  Cu17     1.0000 0.43414  0.10080  0.83333  Biso   1.000  Cu
  Cu18     1.0000 0.10080  0.43414  0.16667  Biso   1.000  Cu
  Cu19     1.0000 0.57987  0.91321  0.66667  Biso   1.000  Cu
  Cu20     1.0000 0.24654  0.24654  0.00000  Biso   1.000  Cu
  Cu21     1.0000 0.08679  0.66667  0.66667  Biso   1.000  Cu
  Cu22     1.0000 0.75346  0.00000  0.00000  Biso   1.000  Cu
  Cu23     1.0000 0.33333  0.42013  0.66667  Biso   1.000  Cu
  Cu24     1.0000 0.00000  0.75346  0.00000  Biso   1.000  Cu
  Cu25     1.0000 0.91321  0.57987  0.33333  Biso   1.000  Cu
  Cu26     1.0000 0.66667  0.08679  0.33333  Biso   1.000  Cu
  Cu27     1.0000 0.42013  0.33333  0.33333  Biso   1.000  Cu
  Cu28     1.0000 0.42013  0.08679  0.33333  Biso   1.000  Cu
  Cu29     1.0000 0.91321  0.33333  0.33333  Biso   1.000  Cu
  Cu30     1.0000 0.66667  0.57987  0.33333  Biso   1.000  Cu
  Cu31     1.0000 0.08679  0.42013  0.66667  Biso   1.000  Cu
  Cu32     1.0000 0.75346  0.75346  0.00000  Biso   1.000  Cu
  Cu33     1.0000 0.33333  0.91321  0.66667  Biso   1.000  Cu
  Cu34     1.0000 0.00000  0.24654  0.00000  Biso   1.000  Cu
  Cu35     1.0000 0.57987  0.66667  0.66667  Biso   1.000  Cu
  Cu36     1.0000 0.24654  0.00000  0.00000  Biso   1.000  Cu
  C217     1.0000 0.60112  0.80056  0.66808  Biso   1.000  C
  C218     1.0000 0.72644  0.86322  0.71812  Biso   1.000  C
  H181     1.0000 0.76899  0.88450  0.73510  Biso   1.000  H
  O37      1.0000 0.54513  0.77257  0.64573  Biso   1.000  O
  C219     1.0000 0.26779  0.13389  0.00141  Biso   1.000  C
  C220     1.0000 0.39311  0.19655  0.05145  Biso   1.000  C
  H182     1.0000 0.43566  0.21783  0.06843  Biso   1.000  H
  O38      1.0000 0.21180  0.10590  0.97906  Biso   1.000  O
  C221     1.0000 0.93445  0.46723  0.33475  Biso   1.000  C
  C222     1.0000 0.05977  0.52989  0.38479  Biso   1.000  C
  H183     1.0000 0.10232  0.55116  0.40177  Biso   1.000  H
  O39      1.0000 0.87846  0.43923  0.31240  Biso   1.000  O
  C223     1.0000 0.19944  0.80056  0.66808  Biso   1.000  C
  C224     1.0000 0.13678  0.86322  0.71812  Biso   1.000  C
  H184     1.0000 0.11550  0.88450  0.73510  Biso   1.000  H
  O40      1.0000 0.22744  0.77257  0.64573  Biso   1.000  O
  C225     1.0000 0.86611  0.13389  0.00141  Biso   1.000  C
  C226     1.0000 0.80345  0.19655  0.05145  Biso   1.000  C
  H185     1.0000 0.78217  0.21783  0.06843  Biso   1.000  H
  O41      1.0000 0.89410  0.10590  0.97906  Biso   1.000  O
  C227     1.0000 0.53277  0.46723  0.33475  Biso   1.000  C
  C228     1.0000 0.47011  0.52989  0.38479  Biso   1.000  C
  H186     1.0000 0.44884  0.55116  0.40177  Biso   1.000  H
  O42      1.0000 0.56077  0.43923  0.31240  Biso   1.000  O
  C229     1.0000 0.19944  0.39888  0.66808  Biso   1.000  C
  C230     1.0000 0.13678  0.27356  0.71812  Biso   1.000  C
  H187     1.0000 0.11550  0.23101  0.73510  Biso   1.000  H
  O43      1.0000 0.22743  0.45487  0.64573  Biso   1.000  O
  C231     1.0000 0.86611  0.73221  0.00141  Biso   1.000  C
  C232     1.0000 0.80345  0.60689  0.05145  Biso   1.000  C
  H188     1.0000 0.78217  0.56434  0.06843  Biso   1.000  H
  O44      1.0000 0.89410  0.78820  0.97906  Biso   1.000  O
  C233     1.0000 0.53277  0.06555  0.33475  Biso   1.000  C
  C234     1.0000 0.47011  0.94023  0.38479  Biso   1.000  C
  H189     1.0000 0.44884  0.89768  0.40177  Biso   1.000  H
  O45      1.0000 0.56077  0.12154  0.31240  Biso   1.000  O
  C235     1.0000 0.80056  0.60112  0.33192  Biso   1.000  C
  C236     1.0000 0.86322  0.72644  0.28188  Biso   1.000  C
  H190     1.0000 0.88450  0.76899  0.26490  Biso   1.000  H
  O46      1.0000 0.77257  0.54513  0.35427  Biso   1.000  O
  C237     1.0000 0.46723  0.93445  0.66525  Biso   1.000  C
  C238     1.0000 0.52989  0.05977  0.61521  Biso   1.000  C
  H191     1.0000 0.55116  0.10232  0.59823  Biso   1.000  H
  O47      1.0000 0.43923  0.87846  0.68760  Biso   1.000  O
  C239     1.0000 0.13389  0.26779  0.99859  Biso   1.000  C
  C240     1.0000 0.19655  0.39311  0.94855  Biso   1.000  C
  H192     1.0000 0.21783  0.43566  0.93157  Biso   1.000  H
  O48      1.0000 0.10590  0.21180  0.02094  Biso   1.000  O
  C241     1.0000 0.80056  0.19944  0.33192  Biso   1.000  C
  C242     1.0000 0.86322  0.13678  0.28188  Biso   1.000  C
  H193     1.0000 0.88450  0.11550  0.26490  Biso   1.000  H
  O49      1.0000 0.77257  0.22744  0.35427  Biso   1.000  O
  C243     1.0000 0.46723  0.53277  0.66525  Biso   1.000  C
  C244     1.0000 0.52989  0.47011  0.61521  Biso   1.000  C
  H194     1.0000 0.55116  0.44884  0.59823  Biso   1.000  H
  O50      1.0000 0.43923  0.56077  0.68760  Biso   1.000  O
  C245     1.0000 0.13389  0.86611  0.99859  Biso   1.000  C
  C246     1.0000 0.19655  0.80345  0.94855  Biso   1.000  C
  H195     1.0000 0.21783  0.78217  0.93157  Biso   1.000  H
  O51      1.0000 0.10590  0.89410  0.02094  Biso   1.000  O
  C247     1.0000 0.39888  0.19944  0.33192  Biso   1.000  C
  C248     1.0000 0.27356  0.13678  0.28188  Biso   1.000  C
  H196     1.0000 0.23101  0.11550  0.26490  Biso   1.000  H
  O52      1.0000 0.45487  0.22743  0.35427  Biso   1.000  O
  C249     1.0000 0.06555  0.53277  0.66525  Biso   1.000  C
  C250     1.0000 0.94023  0.47011  0.61521  Biso   1.000  C
  H197     1.0000 0.89768  0.44884  0.59823  Biso   1.000  H
  O53      1.0000 0.12154  0.56077  0.68760  Biso   1.000  O
  C251     1.0000 0.73221  0.86611  0.99859  Biso   1.000  C
  C252     1.0000 0.60689  0.80345  0.94855  Biso   1.000  C
  H198     1.0000 0.56434  0.78217  0.93157  Biso   1.000  H
  O54      1.0000 0.78820  0.89410  0.02094  Biso   1.000  O
  C253     1.0000 0.89223  0.10777  0.47809  Biso   1.000  C
  C254     1.0000 0.92665  0.07335  0.38107  Biso   1.000  C
  H199     1.0000 0.93834  0.06166  0.34814  Biso   1.000  H
  O55      1.0000 0.87686  0.12314  0.52143  Biso   1.000  O
  C255     1.0000 0.55890  0.44110  0.81142  Biso   1.000  C
  C256     1.0000 0.59332  0.40668  0.71440  Biso   1.000  C
  H200     1.0000 0.60500  0.39500  0.68147  Biso   1.000  H
  O56      1.0000 0.54353  0.45647  0.85476  Biso   1.000  O
  C257     1.0000 0.22556  0.77444  0.14476  Biso   1.000  C
  C258     1.0000 0.25998  0.74002  0.04774  Biso   1.000  C
  H201     1.0000 0.27167  0.72833  0.01481  Biso   1.000  H
  O57      1.0000 0.21019  0.78981  0.18810  Biso   1.000  O
  C259     1.0000 0.89223  0.78446  0.47809  Biso   1.000  C
  C260     1.0000 0.92665  0.85330  0.38107  Biso   1.000  C
  H202     1.0000 0.93834  0.87667  0.34814  Biso   1.000  H
  O58      1.0000 0.87686  0.75372  0.52143  Biso   1.000  O
  C261     1.0000 0.55890  0.11779  0.81142  Biso   1.000  C
  C262     1.0000 0.59332  0.18663  0.71440  Biso   1.000  C
  H203     1.0000 0.60500  0.21000  0.68147  Biso   1.000  H
  O59      1.0000 0.54353  0.08705  0.85476  Biso   1.000  O
  C263     1.0000 0.22556  0.45113  0.14476  Biso   1.000  C
  C264     1.0000 0.25998  0.51997  0.04774  Biso   1.000  C
  H204     1.0000 0.27167  0.54334  0.01481  Biso   1.000  H
  O60      1.0000 0.21019  0.42039  0.18810  Biso   1.000  O
  C265     1.0000 0.21554  0.10777  0.47809  Biso   1.000  C
  C266     1.0000 0.14670  0.07335  0.38107  Biso   1.000  C
  H205     1.0000 0.12333  0.06166  0.34814  Biso   1.000  H
  O61      1.0000 0.24628  0.12314  0.52143  Biso   1.000  O
  C267     1.0000 0.88221  0.44110  0.81142  Biso   1.000  C
  C268     1.0000 0.81337  0.40668  0.71440  Biso   1.000  C
  H206     1.0000 0.79000  0.39500  0.68147  Biso   1.000  H
  O62      1.0000 0.91295  0.45647  0.85476  Biso   1.000  O
  C269     1.0000 0.54887  0.77444  0.14476  Biso   1.000  C
  C270     1.0000 0.48003  0.74002  0.04774  Biso   1.000  C
  H207     1.0000 0.45666  0.72833  0.01481  Biso   1.000  H
  O63      1.0000 0.57961  0.78981  0.18810  Biso   1.000  O
  C271     1.0000 0.10777  0.89223  0.52191  Biso   1.000  C
  C272     1.0000 0.07335  0.92665  0.61893  Biso   1.000  C
  H208     1.0000 0.06166  0.93834  0.65186  Biso   1.000  H
  O64      1.0000 0.12314  0.87686  0.47857  Biso   1.000  O
  C273     1.0000 0.77444  0.22556  0.85524  Biso   1.000  C
  C274     1.0000 0.74002  0.25998  0.95226  Biso   1.000  C
  H209     1.0000 0.72833  0.27167  0.98519  Biso   1.000  H
  O65      1.0000 0.78981  0.21019  0.81190  Biso   1.000  O
  C275     1.0000 0.44110  0.55890  0.18858  Biso   1.000  C
  C276     1.0000 0.40668  0.59332  0.28560  Biso   1.000  C
  H210     1.0000 0.39500  0.60500  0.31853  Biso   1.000  H
  O66      1.0000 0.45647  0.54353  0.14524  Biso   1.000  O
  C277     1.0000 0.78446  0.89223  0.52191  Biso   1.000  C
  C278     1.0000 0.85330  0.92665  0.61893  Biso   1.000  C
  H211     1.0000 0.87667  0.93834  0.65186  Biso   1.000  H
  O67      1.0000 0.75372  0.87686  0.47857  Biso   1.000  O
  C279     1.0000 0.45113  0.22556  0.85524  Biso   1.000  C
  C280     1.0000 0.51997  0.25998  0.95226  Biso   1.000  C
  H212     1.0000 0.54334  0.27167  0.98519  Biso   1.000  H
  O68      1.0000 0.42039  0.21019  0.81190  Biso   1.000  O
  C281     1.0000 0.11779  0.55890  0.18858  Biso   1.000  C
  C282     1.0000 0.18663  0.59332  0.28560  Biso   1.000  C
  H213     1.0000 0.21000  0.60500  0.31853  Biso   1.000  H
  O69      1.0000 0.08705  0.54353  0.14524  Biso   1.000  O
  C283     1.0000 0.10777  0.21554  0.52191  Biso   1.000  C
  C284     1.0000 0.07335  0.14670  0.61893  Biso   1.000  C
  H214     1.0000 0.06166  0.12333  0.65186  Biso   1.000  H
  O70      1.0000 0.12314  0.24628  0.47857  Biso   1.000  O
  C285     1.0000 0.77444  0.54887  0.85524  Biso   1.000  C
  C286     1.0000 0.74002  0.48003  0.95226  Biso   1.000  C
  H215     1.0000 0.72833  0.45666  0.98519  Biso   1.000  H
  O71      1.0000 0.78981  0.57961  0.81190  Biso   1.000  O
  C287     1.0000 0.44110  0.88221  0.18858  Biso   1.000  C
  C288     1.0000 0.40668  0.81337  0.28560  Biso   1.000  C
  H216     1.0000 0.39500  0.79000  0.31853  Biso   1.000  H
  O72      1.0000 0.45647  0.91295  0.14524  Biso   1.000  O
