data_image0
_cell_length_a       26.816
_cell_length_b       26.816
_cell_length_c       26.816
_cell_angle_alpha    90
_cell_angle_beta     90
_cell_angle_gamma    90

_symmetry_space_group_name_H-M    "P 1"
_symmetry_int_tables_number       1

loop_
  _symmetry_equiv_pos_as_xyz
  'x, y, z'

loop_
  _atom_site_label
  _atom_site_occupancy
  _atom_site_fract_x
  _atom_site_fract_y
  _atom_site_fract_z
  _atom_site_thermal_displace_type
  _atom_site_B_iso_or_equiv
  _atom_site_type_symbol
  H1       1.0000 0.59340  0.02920  0.30450  Biso   1.000  H
  O1       1.0000 0.55418  0.05256  0.12751  Biso   1.000  O
  O2       1.0000 0.55100  0.05080  0.21040  Biso   1.000  O
  C1       1.0000 0.57000  0.06400  0.17020  Biso   1.000  C
  C2       1.0000 0.75080  0.17770  0.19750  Biso   1.000  C
  C3       1.0000 0.76240  0.21890  0.16720  Biso   1.000  C
  H2       1.0000 0.74260  0.22580  0.13950  Biso   1.000  H
  C4       1.0000 0.61550  0.09490  0.17490  Biso   1.000  C
  C5       1.0000 0.64210  0.11280  0.13380  Biso   1.000  C
  H3       1.0000 0.63070  0.10630  0.10170  Biso   1.000  H
  C6       1.0000 0.68520  0.14000  0.14090  Biso   1.000  C
  H4       1.0000 0.70180  0.15300  0.11330  Biso   1.000  H
  C7       1.0000 0.70440  0.14860  0.18840  Biso   1.000  C
  C8       1.0000 0.67700  0.13160  0.22880  Biso   1.000  C
  H5       1.0000 0.68850  0.13800  0.26090  Biso   1.000  H
  C9       1.0000 0.63270  0.10540  0.22250  Biso   1.000  C
  H6       1.0000 0.61470  0.09480  0.25020  Biso   1.000  H
  H7       1.0000 0.40660  0.97080  0.30450  Biso   1.000  H
  O3       1.0000 0.44582  0.94744  0.12751  Biso   1.000  O
  O4       1.0000 0.44900  0.94920  0.21040  Biso   1.000  O
  C10      1.0000 0.43000  0.93600  0.17020  Biso   1.000  C
  C11      1.0000 0.24920  0.82230  0.19750  Biso   1.000  C
  C12      1.0000 0.23760  0.78110  0.16720  Biso   1.000  C
  H8       1.0000 0.25740  0.77420  0.13950  Biso   1.000  H
  C13      1.0000 0.38450  0.90510  0.17490  Biso   1.000  C
  C14      1.0000 0.35790  0.88720  0.13380  Biso   1.000  C
  H9       1.0000 0.36930  0.89370  0.10170  Biso   1.000  H
  C15      1.0000 0.31480  0.86000  0.14090  Biso   1.000  C
  H10      1.0000 0.29820  0.84700  0.11330  Biso   1.000  H
  C16      1.0000 0.29560  0.85140  0.18840  Biso   1.000  C
  C17      1.0000 0.32300  0.86840  0.22880  Biso   1.000  C
  H11      1.0000 0.31150  0.86200  0.26090  Biso   1.000  H
  C18      1.0000 0.36730  0.89460  0.22250  Biso   1.000  C
  H12      1.0000 0.38530  0.90520  0.25020  Biso   1.000  H
  H13      1.0000 0.40660  0.02920  0.69550  Biso   1.000  H
  O5       1.0000 0.44582  0.05256  0.87249  Biso   1.000  O
  O6       1.0000 0.44900  0.05080  0.78960  Biso   1.000  O
  C19      1.0000 0.43000  0.06400  0.82980  Biso   1.000  C
  C20      1.0000 0.24920  0.17770  0.80250  Biso   1.000  C
  C21      1.0000 0.23760  0.21890  0.83280  Biso   1.000  C
  H14      1.0000 0.25740  0.22580  0.86050  Biso   1.000  H
  C22      1.0000 0.38450  0.09490  0.82510  Biso   1.000  C
  C23      1.0000 0.35790  0.11280  0.86620  Biso   1.000  C
  H15      1.0000 0.36930  0.10630  0.89830  Biso   1.000  H
  C24      1.0000 0.31480  0.14000  0.85910  Biso   1.000  C
  H16      1.0000 0.29820  0.15300  0.88670  Biso   1.000  H
  C25      1.0000 0.29560  0.14860  0.81160  Biso   1.000  C
  C26      1.0000 0.32300  0.13160  0.77120  Biso   1.000  C
  H17      1.0000 0.31150  0.13800  0.73910  Biso   1.000  H
  C27      1.0000 0.36730  0.10540  0.77750  Biso   1.000  C
  H18      1.0000 0.38530  0.09480  0.74980  Biso   1.000  H
  H19      1.0000 0.59340  0.97080  0.69550  Biso   1.000  H
  O7       1.0000 0.55418  0.94744  0.87249  Biso   1.000  O
  O8       1.0000 0.55100  0.94920  0.78960  Biso   1.000  O
  C28      1.0000 0.57000  0.93600  0.82980  Biso   1.000  C
  C29      1.0000 0.75080  0.82230  0.80250  Biso   1.000  C
  C30      1.0000 0.76240  0.78110  0.83280  Biso   1.000  C
  H20      1.0000 0.74260  0.77420  0.86050  Biso   1.000  H
  C31      1.0000 0.61550  0.90510  0.82510  Biso   1.000  C
  C32      1.0000 0.64210  0.88720  0.86620  Biso   1.000  C
  H21      1.0000 0.63070  0.89370  0.89830  Biso   1.000  H
  C33      1.0000 0.68520  0.86000  0.85910  Biso   1.000  C
  H22      1.0000 0.70180  0.84700  0.88670  Biso   1.000  H
  C34      1.0000 0.70440  0.85140  0.81160  Biso   1.000  C
  C35      1.0000 0.67700  0.86840  0.77120  Biso   1.000  C
  H23      1.0000 0.68850  0.86200  0.73910  Biso   1.000  H
  C36      1.0000 0.63270  0.89460  0.77750  Biso   1.000  C
  H24      1.0000 0.61470  0.90520  0.74980  Biso   1.000  H
  H25      1.0000 0.30450  0.59340  0.02920  Biso   1.000  H
  O9       1.0000 0.12751  0.55418  0.05256  Biso   1.000  O
  O10      1.0000 0.21040  0.55100  0.05080  Biso   1.000  O
  C37      1.0000 0.17020  0.57000  0.06400  Biso   1.000  C
  C38      1.0000 0.19750  0.75080  0.17770  Biso   1.000  C
  C39      1.0000 0.16720  0.76240  0.21890  Biso   1.000  C
  H26      1.0000 0.13950  0.74260  0.22580  Biso   1.000  H
  C40      1.0000 0.17490  0.61550  0.09490  Biso   1.000  C
  C41      1.0000 0.13380  0.64210  0.11280  Biso   1.000  C
  H27      1.0000 0.10170  0.63070  0.10630  Biso   1.000  H
  C42      1.0000 0.14090  0.68520  0.14000  Biso   1.000  C
  H28      1.0000 0.11330  0.70180  0.15300  Biso   1.000  H
  C43      1.0000 0.18840  0.70440  0.14860  Biso   1.000  C
  C44      1.0000 0.22880  0.67700  0.13160  Biso   1.000  C
  H29      1.0000 0.26090  0.68850  0.13800  Biso   1.000  H
  C45      1.0000 0.22250  0.63270  0.10540  Biso   1.000  C
  H30      1.0000 0.25020  0.61470  0.09480  Biso   1.000  H
  H31      1.0000 0.30450  0.40660  0.97080  Biso   1.000  H
  O11      1.0000 0.12751  0.44582  0.94744  Biso   1.000  O
  O12      1.0000 0.21040  0.44900  0.94920  Biso   1.000  O
  C46      1.0000 0.17020  0.43000  0.93600  Biso   1.000  C
  C47      1.0000 0.19750  0.24920  0.82230  Biso   1.000  C
  C48      1.0000 0.16720  0.23760  0.78110  Biso   1.000  C
  H32      1.0000 0.13950  0.25740  0.77420  Biso   1.000  H
  C49      1.0000 0.17490  0.38450  0.90510  Biso   1.000  C
  C50      1.0000 0.13380  0.35790  0.88720  Biso   1.000  C
  H33      1.0000 0.10170  0.36930  0.89370  Biso   1.000  H
  C51      1.0000 0.14090  0.31480  0.86000  Biso   1.000  C
  H34      1.0000 0.11330  0.29820  0.84700  Biso   1.000  H
  C52      1.0000 0.18840  0.29560  0.85140  Biso   1.000  C
  C53      1.0000 0.22880  0.32300  0.86840  Biso   1.000  C
  H35      1.0000 0.26090  0.31150  0.86200  Biso   1.000  H
  C54      1.0000 0.22250  0.36730  0.89460  Biso   1.000  C
  H36      1.0000 0.25020  0.38530  0.90520  Biso   1.000  H
  H37      1.0000 0.69550  0.40660  0.02920  Biso   1.000  H
  O13      1.0000 0.87249  0.44582  0.05256  Biso   1.000  O
  O14      1.0000 0.78960  0.44900  0.05080  Biso   1.000  O
  C55      1.0000 0.82980  0.43000  0.06400  Biso   1.000  C
  C56      1.0000 0.80250  0.24920  0.17770  Biso   1.000  C
  C57      1.0000 0.83280  0.23760  0.21890  Biso   1.000  C
  H38      1.0000 0.86050  0.25740  0.22580  Biso   1.000  H
  C58      1.0000 0.82510  0.38450  0.09490  Biso   1.000  C
  C59      1.0000 0.86620  0.35790  0.11280  Biso   1.000  C
  H39      1.0000 0.89830  0.36930  0.10630  Biso   1.000  H
  C60      1.0000 0.85910  0.31480  0.14000  Biso   1.000  C
  H40      1.0000 0.88670  0.29820  0.15300  Biso   1.000  H
  C61      1.0000 0.81160  0.29560  0.14860  Biso   1.000  C
  C62      1.0000 0.77120  0.32300  0.13160  Biso   1.000  C
  H41      1.0000 0.73910  0.31150  0.13800  Biso   1.000  H
  C63      1.0000 0.77750  0.36730  0.10540  Biso   1.000  C
  H42      1.0000 0.74980  0.38530  0.09480  Biso   1.000  H
  H43      1.0000 0.69550  0.59340  0.97080  Biso   1.000  H
  O15      1.0000 0.87249  0.55418  0.94744  Biso   1.000  O
  O16      1.0000 0.78960  0.55100  0.94920  Biso   1.000  O
  C64      1.0000 0.82980  0.57000  0.93600  Biso   1.000  C
  C65      1.0000 0.80250  0.75080  0.82230  Biso   1.000  C
  C66      1.0000 0.83280  0.76240  0.78110  Biso   1.000  C
  H44      1.0000 0.86050  0.74260  0.77420  Biso   1.000  H
  C67      1.0000 0.82510  0.61550  0.90510  Biso   1.000  C
  C68      1.0000 0.86620  0.64210  0.88720  Biso   1.000  C
  H45      1.0000 0.89830  0.63070  0.89370  Biso   1.000  H
  C69      1.0000 0.85910  0.68520  0.86000  Biso   1.000  C
  H46      1.0000 0.88670  0.70180  0.84700  Biso   1.000  H
  C70      1.0000 0.81160  0.70440  0.85140  Biso   1.000  C
  C71      1.0000 0.77120  0.67700  0.86840  Biso   1.000  C
  H47      1.0000 0.73910  0.68850  0.86200  Biso   1.000  H
  C72      1.0000 0.77750  0.63270  0.89460  Biso   1.000  C
  H48      1.0000 0.74980  0.61470  0.90520  Biso   1.000  H
  H49      1.0000 0.02920  0.30450  0.59340  Biso   1.000  H
  O17      1.0000 0.05256  0.12751  0.55418  Biso   1.000  O
  O18      1.0000 0.05080  0.21040  0.55100  Biso   1.000  O
  C73      1.0000 0.06400  0.17020  0.57000  Biso   1.000  C
  C74      1.0000 0.17770  0.19750  0.75080  Biso   1.000  C
  C75      1.0000 0.21890  0.16720  0.76240  Biso   1.000  C
  H50      1.0000 0.22580  0.13950  0.74260  Biso   1.000  H
  C76      1.0000 0.09490  0.17490  0.61550  Biso   1.000  C
  C77      1.0000 0.11280  0.13380  0.64210  Biso   1.000  C
  H51      1.0000 0.10630  0.10170  0.63070  Biso   1.000  H
  C78      1.0000 0.14000  0.14090  0.68520  Biso   1.000  C
  H52      1.0000 0.15300  0.11330  0.70180  Biso   1.000  H
  C79      1.0000 0.14860  0.18840  0.70440  Biso   1.000  C
  C80      1.0000 0.13160  0.22880  0.67700  Biso   1.000  C
  H53      1.0000 0.13800  0.26090  0.68850  Biso   1.000  H
  C81      1.0000 0.10540  0.22250  0.63270  Biso   1.000  C
  H54      1.0000 0.09480  0.25020  0.61470  Biso   1.000  H
  H55      1.0000 0.97080  0.30450  0.40660  Biso   1.000  H
  O19      1.0000 0.94744  0.12751  0.44582  Biso   1.000  O
  O20      1.0000 0.94920  0.21040  0.44900  Biso   1.000  O
  C82      1.0000 0.93600  0.17020  0.43000  Biso   1.000  C
  C83      1.0000 0.82230  0.19750  0.24920  Biso   1.000  C
  C84      1.0000 0.78110  0.16720  0.23760  Biso   1.000  C
  H56      1.0000 0.77420  0.13950  0.25740  Biso   1.000  H
  C85      1.0000 0.90510  0.17490  0.38450  Biso   1.000  C
  C86      1.0000 0.88720  0.13380  0.35790  Biso   1.000  C
  H57      1.0000 0.89370  0.10170  0.36930  Biso   1.000  H
  C87      1.0000 0.86000  0.14090  0.31480  Biso   1.000  C
  H58      1.0000 0.84700  0.11330  0.29820  Biso   1.000  H
  C88      1.0000 0.85140  0.18840  0.29560  Biso   1.000  C
  C89      1.0000 0.86840  0.22880  0.32300  Biso   1.000  C
  H59      1.0000 0.86200  0.26090  0.31150  Biso   1.000  H
  C90      1.0000 0.89460  0.22250  0.36730  Biso   1.000  C
  H60      1.0000 0.90520  0.25020  0.38530  Biso   1.000  H
  H61      1.0000 0.02920  0.69550  0.40660  Biso   1.000  H
  O21      1.0000 0.05256  0.87249  0.44582  Biso   1.000  O
  O22      1.0000 0.05080  0.78960  0.44900  Biso   1.000  O
  C91      1.0000 0.06400  0.82980  0.43000  Biso   1.000  C
  C92      1.0000 0.17770  0.80250  0.24920  Biso   1.000  C
  C93      1.0000 0.21890  0.83280  0.23760  Biso   1.000  C
  H62      1.0000 0.22580  0.86050  0.25740  Biso   1.000  H
  C94      1.0000 0.09490  0.82510  0.38450  Biso   1.000  C
  C95      1.0000 0.11280  0.86620  0.35790  Biso   1.000  C
  H63      1.0000 0.10630  0.89830  0.36930  Biso   1.000  H
  C96      1.0000 0.14000  0.85910  0.31480  Biso   1.000  C
  H64      1.0000 0.15300  0.88670  0.29820  Biso   1.000  H
  C97      1.0000 0.14860  0.81160  0.29560  Biso   1.000  C
  C98      1.0000 0.13160  0.77120  0.32300  Biso   1.000  C
  H65      1.0000 0.13800  0.73910  0.31150  Biso   1.000  H
  C99      1.0000 0.10540  0.77750  0.36730  Biso   1.000  C
  H66      1.0000 0.09480  0.74980  0.38530  Biso   1.000  H
  H67      1.0000 0.97080  0.69550  0.59340  Biso   1.000  H
  O23      1.0000 0.94744  0.87249  0.55418  Biso   1.000  O
  O24      1.0000 0.94920  0.78960  0.55100  Biso   1.000  O
  C100     1.0000 0.93600  0.82980  0.57000  Biso   1.000  C
  C101     1.0000 0.82230  0.80250  0.75080  Biso   1.000  C
  C102     1.0000 0.78110  0.83280  0.76240  Biso   1.000  C
  H68      1.0000 0.77420  0.86050  0.74260  Biso   1.000  H
  C103     1.0000 0.90510  0.82510  0.61550  Biso   1.000  C
  C104     1.0000 0.88720  0.86620  0.64210  Biso   1.000  C
  H69      1.0000 0.89370  0.89830  0.63070  Biso   1.000  H
  C105     1.0000 0.86000  0.85910  0.68520  Biso   1.000  C
  H70      1.0000 0.84700  0.88670  0.70180  Biso   1.000  H
  C106     1.0000 0.85140  0.81160  0.70440  Biso   1.000  C
  C107     1.0000 0.86840  0.77120  0.67700  Biso   1.000  C
  H71      1.0000 0.86200  0.73910  0.68850  Biso   1.000  H
  C108     1.0000 0.89460  0.77750  0.63270  Biso   1.000  C
  H72      1.0000 0.90520  0.74980  0.61470  Biso   1.000  H
  H73      1.0000 0.40660  0.97080  0.69550  Biso   1.000  H
  O25      1.0000 0.44582  0.94744  0.87249  Biso   1.000  O
  O26      1.0000 0.44900  0.94920  0.78960  Biso   1.000  O
  C109     1.0000 0.43000  0.93600  0.82980  Biso   1.000  C
  C110     1.0000 0.24920  0.82230  0.80250  Biso   1.000  C
  C111     1.0000 0.23760  0.78110  0.83280  Biso   1.000  C
  H74      1.0000 0.25740  0.77420  0.86050  Biso   1.000  H
  C112     1.0000 0.38450  0.90510  0.82510  Biso   1.000  C
  C113     1.0000 0.35790  0.88720  0.86620  Biso   1.000  C
  H75      1.0000 0.36930  0.89370  0.89830  Biso   1.000  H
  C114     1.0000 0.31480  0.86000  0.85910  Biso   1.000  C
  H76      1.0000 0.29820  0.84700  0.88670  Biso   1.000  H
  C115     1.0000 0.29560  0.85140  0.81160  Biso   1.000  C
  C116     1.0000 0.32300  0.86840  0.77120  Biso   1.000  C
  H77      1.0000 0.31150  0.86200  0.73910  Biso   1.000  H
  C117     1.0000 0.36730  0.89460  0.77750  Biso   1.000  C
  H78      1.0000 0.38530  0.90520  0.74980  Biso   1.000  H
  H79      1.0000 0.59340  0.02920  0.69550  Biso   1.000  H
  O27      1.0000 0.55418  0.05256  0.87249  Biso   1.000  O
  O28      1.0000 0.55100  0.05080  0.78960  Biso   1.000  O
  C118     1.0000 0.57000  0.06400  0.82980  Biso   1.000  C
  C119     1.0000 0.75080  0.17770  0.80250  Biso   1.000  C
  C120     1.0000 0.76240  0.21890  0.83280  Biso   1.000  C
  H80      1.0000 0.74260  0.22580  0.86050  Biso   1.000  H
  C121     1.0000 0.61550  0.09490  0.82510  Biso   1.000  C
  C122     1.0000 0.64210  0.11280  0.86620  Biso   1.000  C
  H81      1.0000 0.63070  0.10630  0.89830  Biso   1.000  H
  C123     1.0000 0.68520  0.14000  0.85910  Biso   1.000  C
  H82      1.0000 0.70180  0.15300  0.88670  Biso   1.000  H
  C124     1.0000 0.70440  0.14860  0.81160  Biso   1.000  C
  C125     1.0000 0.67700  0.13160  0.77120  Biso   1.000  C
  H83      1.0000 0.68850  0.13800  0.73910  Biso   1.000  H
  C126     1.0000 0.63270  0.10540  0.77750  Biso   1.000  C
  H84      1.0000 0.61470  0.09480  0.74980  Biso   1.000  H
  H85      1.0000 0.59340  0.97080  0.30450  Biso   1.000  H
  O29      1.0000 0.55418  0.94744  0.12751  Biso   1.000  O
  O30      1.0000 0.55100  0.94920  0.21040  Biso   1.000  O
  C127     1.0000 0.57000  0.93600  0.17020  Biso   1.000  C
  C128     1.0000 0.75080  0.82230  0.19750  Biso   1.000  C
  C129     1.0000 0.76240  0.78110  0.16720  Biso   1.000  C
  H86      1.0000 0.74260  0.77420  0.13950  Biso   1.000  H
  C130     1.0000 0.61550  0.90510  0.17490  Biso   1.000  C
  C131     1.0000 0.64210  0.88720  0.13380  Biso   1.000  C
  H87      1.0000 0.63070  0.89370  0.10170  Biso   1.000  H
  C132     1.0000 0.68520  0.86000  0.14090  Biso   1.000  C
  H88      1.0000 0.70180  0.84700  0.11330  Biso   1.000  H
  C133     1.0000 0.70440  0.85140  0.18840  Biso   1.000  C
  C134     1.0000 0.67700  0.86840  0.22880  Biso   1.000  C
  H89      1.0000 0.68850  0.86200  0.26090  Biso   1.000  H
  C135     1.0000 0.63270  0.89460  0.22250  Biso   1.000  C
  H90      1.0000 0.61470  0.90520  0.25020  Biso   1.000  H
  H91      1.0000 0.40660  0.02920  0.30450  Biso   1.000  H
  O31      1.0000 0.44582  0.05256  0.12751  Biso   1.000  O
  O32      1.0000 0.44900  0.05080  0.21040  Biso   1.000  O
  C136     1.0000 0.43000  0.06400  0.17020  Biso   1.000  C
  C137     1.0000 0.24920  0.17770  0.19750  Biso   1.000  C
  C138     1.0000 0.23760  0.21890  0.16720  Biso   1.000  C
  H92      1.0000 0.25740  0.22580  0.13950  Biso   1.000  H
  C139     1.0000 0.38450  0.09490  0.17490  Biso   1.000  C
  C140     1.0000 0.35790  0.11280  0.13380  Biso   1.000  C
  H93      1.0000 0.36930  0.10630  0.10170  Biso   1.000  H
  C141     1.0000 0.31480  0.14000  0.14090  Biso   1.000  C
  H94      1.0000 0.29820  0.15300  0.11330  Biso   1.000  H
  C142     1.0000 0.29560  0.14860  0.18840  Biso   1.000  C
  C143     1.0000 0.32300  0.13160  0.22880  Biso   1.000  C
  H95      1.0000 0.31150  0.13800  0.26090  Biso   1.000  H
  C144     1.0000 0.36730  0.10540  0.22250  Biso   1.000  C
  H96      1.0000 0.38530  0.09480  0.25020  Biso   1.000  H
  H97      1.0000 0.69550  0.40660  0.97080  Biso   1.000  H
  O33      1.0000 0.87249  0.44582  0.94744  Biso   1.000  O
  O34      1.0000 0.78960  0.44900  0.94920  Biso   1.000  O
  C145     1.0000 0.82980  0.43000  0.93600  Biso   1.000  C
  C146     1.0000 0.80250  0.24920  0.82230  Biso   1.000  C
  C147     1.0000 0.83280  0.23760  0.78110  Biso   1.000  C
  H98      1.0000 0.86050  0.25740  0.77420  Biso   1.000  H
  C148     1.0000 0.82510  0.38450  0.90510  Biso   1.000  C
  C149     1.0000 0.86620  0.35790  0.88720  Biso   1.000  C
  H99      1.0000 0.89830  0.36930  0.89370  Biso   1.000  H
  C150     1.0000 0.85910  0.31480  0.86000  Biso   1.000  C
  H100     1.0000 0.88670  0.29820  0.84700  Biso   1.000  H
  C151     1.0000 0.81160  0.29560  0.85140  Biso   1.000  C
  C152     1.0000 0.77120  0.32300  0.86840  Biso   1.000  C
  H101     1.0000 0.73910  0.31150  0.86200  Biso   1.000  H
  C153     1.0000 0.77750  0.36730  0.89460  Biso   1.000  C
  H102     1.0000 0.74980  0.38530  0.90520  Biso   1.000  H
  H103     1.0000 0.69550  0.59340  0.02920  Biso   1.000  H
  O35      1.0000 0.87249  0.55418  0.05256  Biso   1.000  O
  O36      1.0000 0.78960  0.55100  0.05080  Biso   1.000  O
  C154     1.0000 0.82980  0.57000  0.06400  Biso   1.000  C
  C155     1.0000 0.80250  0.75080  0.17770  Biso   1.000  C
  C156     1.0000 0.83280  0.76240  0.21890  Biso   1.000  C
  H104     1.0000 0.86050  0.74260  0.22580  Biso   1.000  H
  C157     1.0000 0.82510  0.61550  0.09490  Biso   1.000  C
  C158     1.0000 0.86620  0.64210  0.11280  Biso   1.000  C
  H105     1.0000 0.89830  0.63070  0.10630  Biso   1.000  H
  C159     1.0000 0.85910  0.68520  0.14000  Biso   1.000  C
  H106     1.0000 0.88670  0.70180  0.15300  Biso   1.000  H
  C160     1.0000 0.81160  0.70440  0.14860  Biso   1.000  C
  C161     1.0000 0.77120  0.67700  0.13160  Biso   1.000  C
  H107     1.0000 0.73910  0.68850  0.13800  Biso   1.000  H
  C162     1.0000 0.77750  0.63270  0.10540  Biso   1.000  C
  H108     1.0000 0.74980  0.61470  0.09480  Biso   1.000  H
  H109     1.0000 0.30450  0.59340  0.97080  Biso   1.000  H
  O37      1.0000 0.12751  0.55418  0.94744  Biso   1.000  O
  O38      1.0000 0.21040  0.55100  0.94920  Biso   1.000  O
  C163     1.0000 0.17020  0.57000  0.93600  Biso   1.000  C
  C164     1.0000 0.19750  0.75080  0.82230  Biso   1.000  C
  C165     1.0000 0.16720  0.76240  0.78110  Biso   1.000  C
  H110     1.0000 0.13950  0.74260  0.77420  Biso   1.000  H
  C166     1.0000 0.17490  0.61550  0.90510  Biso   1.000  C
  C167     1.0000 0.13380  0.64210  0.88720  Biso   1.000  C
  H111     1.0000 0.10170  0.63070  0.89370  Biso   1.000  H
  C168     1.0000 0.14090  0.68520  0.86000  Biso   1.000  C
  H112     1.0000 0.11330  0.70180  0.84700  Biso   1.000  H
  C169     1.0000 0.18840  0.70440  0.85140  Biso   1.000  C
  C170     1.0000 0.22880  0.67700  0.86840  Biso   1.000  C
  H113     1.0000 0.26090  0.68850  0.86200  Biso   1.000  H
  C171     1.0000 0.22250  0.63270  0.89460  Biso   1.000  C
  H114     1.0000 0.25020  0.61470  0.90520  Biso   1.000  H
  H115     1.0000 0.30450  0.40660  0.02920  Biso   1.000  H
  O39      1.0000 0.12751  0.44582  0.05256  Biso   1.000  O
  O40      1.0000 0.21040  0.44900  0.05080  Biso   1.000  O
  C172     1.0000 0.17020  0.43000  0.06400  Biso   1.000  C
  C173     1.0000 0.19750  0.24920  0.17770  Biso   1.000  C
  C174     1.0000 0.16720  0.23760  0.21890  Biso   1.000  C
  H116     1.0000 0.13950  0.25740  0.22580  Biso   1.000  H
  C175     1.0000 0.17490  0.38450  0.09490  Biso   1.000  C
  C176     1.0000 0.13380  0.35790  0.11280  Biso   1.000  C
  H117     1.0000 0.10170  0.36930  0.10630  Biso   1.000  H
  C177     1.0000 0.14090  0.31480  0.14000  Biso   1.000  C
  H118     1.0000 0.11330  0.29820  0.15300  Biso   1.000  H
  C178     1.0000 0.18840  0.29560  0.14860  Biso   1.000  C
  C179     1.0000 0.22880  0.32300  0.13160  Biso   1.000  C
  H119     1.0000 0.26090  0.31150  0.13800  Biso   1.000  H
  C180     1.0000 0.22250  0.36730  0.10540  Biso   1.000  C
  H120     1.0000 0.25020  0.38530  0.09480  Biso   1.000  H
  H121     1.0000 0.97080  0.69550  0.40660  Biso   1.000  H
  O41      1.0000 0.94744  0.87249  0.44582  Biso   1.000  O
  O42      1.0000 0.94920  0.78960  0.44900  Biso   1.000  O
  C181     1.0000 0.93600  0.82980  0.43000  Biso   1.000  C
  C182     1.0000 0.82230  0.80250  0.24920  Biso   1.000  C
  C183     1.0000 0.78110  0.83280  0.23760  Biso   1.000  C
  H122     1.0000 0.77420  0.86050  0.25740  Biso   1.000  H
  C184     1.0000 0.90510  0.82510  0.38450  Biso   1.000  C
  C185     1.0000 0.88720  0.86620  0.35790  Biso   1.000  C
  H123     1.0000 0.89370  0.89830  0.36930  Biso   1.000  H
  C186     1.0000 0.86000  0.85910  0.31480  Biso   1.000  C
  H124     1.0000 0.84700  0.88670  0.29820  Biso   1.000  H
  C187     1.0000 0.85140  0.81160  0.29560  Biso   1.000  C
  C188     1.0000 0.86840  0.77120  0.32300  Biso   1.000  C
  H125     1.0000 0.86200  0.73910  0.31150  Biso   1.000  H
  C189     1.0000 0.89460  0.77750  0.36730  Biso   1.000  C
  H126     1.0000 0.90520  0.74980  0.38530  Biso   1.000  H
  H127     1.0000 0.02920  0.69550  0.59340  Biso   1.000  H
  O43      1.0000 0.05256  0.87249  0.55418  Biso   1.000  O
  O44      1.0000 0.05080  0.78960  0.55100  Biso   1.000  O
  C190     1.0000 0.06400  0.82980  0.57000  Biso   1.000  C
  C191     1.0000 0.17770  0.80250  0.75080  Biso   1.000  C
  C192     1.0000 0.21890  0.83280  0.76240  Biso   1.000  C
  H128     1.0000 0.22580  0.86050  0.74260  Biso   1.000  H
  C193     1.0000 0.09490  0.82510  0.61550  Biso   1.000  C
  C194     1.0000 0.11280  0.86620  0.64210  Biso   1.000  C
  H129     1.0000 0.10630  0.89830  0.63070  Biso   1.000  H
  C195     1.0000 0.14000  0.85910  0.68520  Biso   1.000  C
  H130     1.0000 0.15300  0.88670  0.70180  Biso   1.000  H
  C196     1.0000 0.14860  0.81160  0.70440  Biso   1.000  C
  C197     1.0000 0.13160  0.77120  0.67700  Biso   1.000  C
  H131     1.0000 0.13800  0.73910  0.68850  Biso   1.000  H
  C198     1.0000 0.10540  0.77750  0.63270  Biso   1.000  C
  H132     1.0000 0.09480  0.74980  0.61470  Biso   1.000  H
  H133     1.0000 0.97080  0.30450  0.59340  Biso   1.000  H
  O45      1.0000 0.94744  0.12751  0.55418  Biso   1.000  O
  O46      1.0000 0.94920  0.21040  0.55100  Biso   1.000  O
  C199     1.0000 0.93600  0.17020  0.57000  Biso   1.000  C
  C200     1.0000 0.82230  0.19750  0.75080  Biso   1.000  C
  C201     1.0000 0.78110  0.16720  0.76240  Biso   1.000  C
  H134     1.0000 0.77420  0.13950  0.74260  Biso   1.000  H
  C202     1.0000 0.90510  0.17490  0.61550  Biso   1.000  C
  C203     1.0000 0.88720  0.13380  0.64210  Biso   1.000  C
  H135     1.0000 0.89370  0.10170  0.63070  Biso   1.000  H
  C204     1.0000 0.86000  0.14090  0.68520  Biso   1.000  C
  H136     1.0000 0.84700  0.11330  0.70180  Biso   1.000  H
  C205     1.0000 0.85140  0.18840  0.70440  Biso   1.000  C
  C206     1.0000 0.86840  0.22880  0.67700  Biso   1.000  C
  H137     1.0000 0.86200  0.26090  0.68850  Biso   1.000  H
  C207     1.0000 0.89460  0.22250  0.63270  Biso   1.000  C
  H138     1.0000 0.90520  0.25020  0.61470  Biso   1.000  H
  H139     1.0000 0.02920  0.30450  0.40660  Biso   1.000  H
  O47      1.0000 0.05256  0.12751  0.44582  Biso   1.000  O
  O48      1.0000 0.05080  0.21040  0.44900  Biso   1.000  O
  C208     1.0000 0.06400  0.17020  0.43000  Biso   1.000  C
  C209     1.0000 0.17770  0.19750  0.24920  Biso   1.000  C
  C210     1.0000 0.21890  0.16720  0.23760  Biso   1.000  C
  H140     1.0000 0.22580  0.13950  0.25740  Biso   1.000  H
  C211     1.0000 0.09490  0.17490  0.38450  Biso   1.000  C
  C212     1.0000 0.11280  0.13380  0.35790  Biso   1.000  C
  H141     1.0000 0.10630  0.10170  0.36930  Biso   1.000  H
  C213     1.0000 0.14000  0.14090  0.31480  Biso   1.000  C
  H142     1.0000 0.15300  0.11330  0.29820  Biso   1.000  H
  C214     1.0000 0.14860  0.18840  0.29560  Biso   1.000  C
  C215     1.0000 0.13160  0.22880  0.32300  Biso   1.000  C
  H143     1.0000 0.13800  0.26090  0.31150  Biso   1.000  H
  C216     1.0000 0.10540  0.22250  0.36730  Biso   1.000  C
  H144     1.0000 0.09480  0.25020  0.38530  Biso   1.000  H
  Ni1      1.0000 0.50000  0.00000  0.22163  Biso   1.000  Ni
  Ni2      1.0000 0.50000  0.00000  0.11549  Biso   1.000  Ni
  N1       1.0000 0.50000  0.00000  0.29620  Biso   1.000  N
  Ni3      1.0000 0.50000  0.00000  0.77837  Biso   1.000  Ni
  Ni4      1.0000 0.50000  0.00000  0.88451  Biso   1.000  Ni
  N2       1.0000 0.50000  0.00000  0.70380  Biso   1.000  N
  Ni5      1.0000 0.22163  0.50000  0.00000  Biso   1.000  Ni
  Ni6      1.0000 0.11549  0.50000  0.00000  Biso   1.000  Ni
  N3       1.0000 0.29620  0.50000  0.00000  Biso   1.000  N
  Ni7      1.0000 0.77837  0.50000  0.00000  Biso   1.000  Ni
  Ni8      1.0000 0.88451  0.50000  0.00000  Biso   1.000  Ni
  N4       1.0000 0.70380  0.50000  0.00000  Biso   1.000  N
  Ni9      1.0000 0.00000  0.22163  0.50000  Biso   1.000  Ni
  Ni10     1.0000 0.00000  0.11549  0.50000  Biso   1.000  Ni
  N5       1.0000 0.00000  0.29620  0.50000  Biso   1.000  N
  Ni11     1.0000 0.00000  0.77837  0.50000  Biso   1.000  Ni
  Ni12     1.0000 0.00000  0.88451  0.50000  Biso   1.000  Ni
  N6       1.0000 0.00000  0.70380  0.50000  Biso   1.000  N
  C217     1.0000 0.53520  0.00000  0.32690  Biso   1.000  C
  N7       1.0000 0.52370  0.00000  0.37250  Biso   1.000  N
  H145     1.0000 0.54340  0.00000  0.39780  Biso   1.000  H
  C218     1.0000 0.58310  0.00000  0.32240  Biso   1.000  C
  H146     1.0000 0.59810  0.00000  0.35490  Biso   1.000  H
  C219     1.0000 0.46480  0.00000  0.32690  Biso   1.000  C
  N8       1.0000 0.47630  0.00000  0.37250  Biso   1.000  N
  H147     1.0000 0.45660  0.00000  0.39780  Biso   1.000  H
  C220     1.0000 0.41690  0.00000  0.32240  Biso   1.000  C
  H148     1.0000 0.40190  0.00000  0.35490  Biso   1.000  H
  C221     1.0000 0.46480  0.00000  0.67310  Biso   1.000  C
  N9       1.0000 0.47630  0.00000  0.62750  Biso   1.000  N
  H149     1.0000 0.45660  0.00000  0.60220  Biso   1.000  H
  C222     1.0000 0.41690  0.00000  0.67760  Biso   1.000  C
  H150     1.0000 0.40190  0.00000  0.64510  Biso   1.000  H
  C223     1.0000 0.53520  0.00000  0.67310  Biso   1.000  C
  N10      1.0000 0.52370  0.00000  0.62750  Biso   1.000  N
  H151     1.0000 0.54340  0.00000  0.60220  Biso   1.000  H
  C224     1.0000 0.58310  0.00000  0.67760  Biso   1.000  C
  H152     1.0000 0.59810  0.00000  0.64510  Biso   1.000  H
  C225     1.0000 0.32690  0.53520  0.00000  Biso   1.000  C
  N11      1.0000 0.37250  0.52370  0.00000  Biso   1.000  N
  H153     1.0000 0.39780  0.54340  0.00000  Biso   1.000  H
  C226     1.0000 0.32240  0.58310  0.00000  Biso   1.000  C
  H154     1.0000 0.35490  0.59810  0.00000  Biso   1.000  H
  C227     1.0000 0.32690  0.46480  0.00000  Biso   1.000  C
  N12      1.0000 0.37250  0.47630  0.00000  Biso   1.000  N
  H155     1.0000 0.39780  0.45660  0.00000  Biso   1.000  H
  C228     1.0000 0.32240  0.41690  0.00000  Biso   1.000  C
  H156     1.0000 0.35490  0.40190  0.00000  Biso   1.000  H
  C229     1.0000 0.67310  0.46480  0.00000  Biso   1.000  C
  N13      1.0000 0.62750  0.47630  0.00000  Biso   1.000  N
  H157     1.0000 0.60220  0.45660  0.00000  Biso   1.000  H
  C230     1.0000 0.67760  0.41690  0.00000  Biso   1.000  C
  H158     1.0000 0.64510  0.40190  0.00000  Biso   1.000  H
  C231     1.0000 0.67310  0.53520  0.00000  Biso   1.000  C
  N14      1.0000 0.62750  0.52370  0.00000  Biso   1.000  N
  H159     1.0000 0.60220  0.54340  0.00000  Biso   1.000  H
  C232     1.0000 0.67760  0.58310  0.00000  Biso   1.000  C
  H160     1.0000 0.64510  0.59810  0.00000  Biso   1.000  H
  C233     1.0000 0.00000  0.32690  0.53520  Biso   1.000  C
  N15      1.0000 0.00000  0.37250  0.52370  Biso   1.000  N
  H161     1.0000 0.00000  0.39780  0.54340  Biso   1.000  H
  C234     1.0000 0.00000  0.32240  0.58310  Biso   1.000  C
  H162     1.0000 0.00000  0.35490  0.59810  Biso   1.000  H
  C235     1.0000 0.00000  0.32690  0.46480  Biso   1.000  C
  N16      1.0000 0.00000  0.37250  0.47630  Biso   1.000  N
  H163     1.0000 0.00000  0.39780  0.45660  Biso   1.000  H
  C236     1.0000 0.00000  0.32240  0.41690  Biso   1.000  C
  H164     1.0000 0.00000  0.35490  0.40190  Biso   1.000  H
  C237     1.0000 0.00000  0.67310  0.46480  Biso   1.000  C
  N17      1.0000 0.00000  0.62750  0.47630  Biso   1.000  N
  H165     1.0000 0.00000  0.60220  0.45660  Biso   1.000  H
  C238     1.0000 0.00000  0.67760  0.41690  Biso   1.000  C
  H166     1.0000 0.00000  0.64510  0.40190  Biso   1.000  H
  C239     1.0000 0.00000  0.67310  0.53520  Biso   1.000  C
  N18      1.0000 0.00000  0.62750  0.52370  Biso   1.000  N
  H167     1.0000 0.00000  0.60220  0.54340  Biso   1.000  H
  C240     1.0000 0.00000  0.67760  0.58310  Biso   1.000  C
  H168     1.0000 0.00000  0.64510  0.59810  Biso   1.000  H
  H169     1.0000 0.09340  0.52920  0.80450  Biso   1.000  H
  O49      1.0000 0.05418  0.55256  0.62751  Biso   1.000  O
  O50      1.0000 0.05100  0.55080  0.71040  Biso   1.000  O
  C241     1.0000 0.07000  0.56400  0.67020  Biso   1.000  C
  C242     1.0000 0.25080  0.67770  0.69750  Biso   1.000  C
  C243     1.0000 0.26240  0.71890  0.66720  Biso   1.000  C
  H170     1.0000 0.24260  0.72580  0.63950  Biso   1.000  H
  C244     1.0000 0.11550  0.59490  0.67490  Biso   1.000  C
  C245     1.0000 0.14210  0.61280  0.63380  Biso   1.000  C
  H171     1.0000 0.13070  0.60630  0.60170  Biso   1.000  H
  C246     1.0000 0.18520  0.64000  0.64090  Biso   1.000  C
  H172     1.0000 0.20180  0.65300  0.61330  Biso   1.000  H
  C247     1.0000 0.20440  0.64860  0.68840  Biso   1.000  C
  C248     1.0000 0.17700  0.63160  0.72880  Biso   1.000  C
  H173     1.0000 0.18850  0.63800  0.76090  Biso   1.000  H
  C249     1.0000 0.13270  0.60540  0.72250  Biso   1.000  C
  H174     1.0000 0.11470  0.59480  0.75020  Biso   1.000  H
  H175     1.0000 0.90660  0.47080  0.80450  Biso   1.000  H
  O51      1.0000 0.94582  0.44744  0.62751  Biso   1.000  O
  O52      1.0000 0.94900  0.44920  0.71040  Biso   1.000  O
  C250     1.0000 0.93000  0.43600  0.67020  Biso   1.000  C
  C251     1.0000 0.74920  0.32230  0.69750  Biso   1.000  C
  C252     1.0000 0.73760  0.28110  0.66720  Biso   1.000  C
  H176     1.0000 0.75740  0.27420  0.63950  Biso   1.000  H
  C253     1.0000 0.88450  0.40510  0.67490  Biso   1.000  C
  C254     1.0000 0.85790  0.38720  0.63380  Biso   1.000  C
  H177     1.0000 0.86930  0.39370  0.60170  Biso   1.000  H
  C255     1.0000 0.81480  0.36000  0.64090  Biso   1.000  C
  H178     1.0000 0.79820  0.34700  0.61330  Biso   1.000  H
  C256     1.0000 0.79560  0.35140  0.68840  Biso   1.000  C
  C257     1.0000 0.82300  0.36840  0.72880  Biso   1.000  C
  H179     1.0000 0.81150  0.36200  0.76090  Biso   1.000  H
  C258     1.0000 0.86730  0.39460  0.72250  Biso   1.000  C
  H180     1.0000 0.88530  0.40520  0.75020  Biso   1.000  H
  H181     1.0000 0.90660  0.52920  0.19550  Biso   1.000  H
  O53      1.0000 0.94582  0.55256  0.37249  Biso   1.000  O
  O54      1.0000 0.94900  0.55080  0.28960  Biso   1.000  O
  C259     1.0000 0.93000  0.56400  0.32980  Biso   1.000  C
  C260     1.0000 0.74920  0.67770  0.30250  Biso   1.000  C
  C261     1.0000 0.73760  0.71890  0.33280  Biso   1.000  C
  H182     1.0000 0.75740  0.72580  0.36050  Biso   1.000  H
  C262     1.0000 0.88450  0.59490  0.32510  Biso   1.000  C
  C263     1.0000 0.85790  0.61280  0.36620  Biso   1.000  C
  H183     1.0000 0.86930  0.60630  0.39830  Biso   1.000  H
  C264     1.0000 0.81480  0.64000  0.35910  Biso   1.000  C
  H184     1.0000 0.79820  0.65300  0.38670  Biso   1.000  H
  C265     1.0000 0.79560  0.64860  0.31160  Biso   1.000  C
  C266     1.0000 0.82300  0.63160  0.27120  Biso   1.000  C
  H185     1.0000 0.81150  0.63800  0.23910  Biso   1.000  H
  C267     1.0000 0.86730  0.60540  0.27750  Biso   1.000  C
  H186     1.0000 0.88530  0.59480  0.24980  Biso   1.000  H
  H187     1.0000 0.09340  0.47080  0.19550  Biso   1.000  H
  O55      1.0000 0.05418  0.44744  0.37249  Biso   1.000  O
  O56      1.0000 0.05100  0.44920  0.28960  Biso   1.000  O
  C268     1.0000 0.07000  0.43600  0.32980  Biso   1.000  C
  C269     1.0000 0.25080  0.32230  0.30250  Biso   1.000  C
  C270     1.0000 0.26240  0.28110  0.33280  Biso   1.000  C
  H188     1.0000 0.24260  0.27420  0.36050  Biso   1.000  H
  C271     1.0000 0.11550  0.40510  0.32510  Biso   1.000  C
  C272     1.0000 0.14210  0.38720  0.36620  Biso   1.000  C
  H189     1.0000 0.13070  0.39370  0.39830  Biso   1.000  H
  C273     1.0000 0.18520  0.36000  0.35910  Biso   1.000  C
  H190     1.0000 0.20180  0.34700  0.38670  Biso   1.000  H
  C274     1.0000 0.20440  0.35140  0.31160  Biso   1.000  C
  C275     1.0000 0.17700  0.36840  0.27120  Biso   1.000  C
  H191     1.0000 0.18850  0.36200  0.23910  Biso   1.000  H
  C276     1.0000 0.13270  0.39460  0.27750  Biso   1.000  C
  H192     1.0000 0.11470  0.40520  0.24980  Biso   1.000  H
  H193     1.0000 0.80450  0.09340  0.52920  Biso   1.000  H
  O57      1.0000 0.62751  0.05418  0.55256  Biso   1.000  O
  O58      1.0000 0.71040  0.05100  0.55080  Biso   1.000  O
  C277     1.0000 0.67020  0.07000  0.56400  Biso   1.000  C
  C278     1.0000 0.69750  0.25080  0.67770  Biso   1.000  C
  C279     1.0000 0.66720  0.26240  0.71890  Biso   1.000  C
  H194     1.0000 0.63950  0.24260  0.72580  Biso   1.000  H
  C280     1.0000 0.67490  0.11550  0.59490  Biso   1.000  C
  C281     1.0000 0.63380  0.14210  0.61280  Biso   1.000  C
  H195     1.0000 0.60170  0.13070  0.60630  Biso   1.000  H
  C282     1.0000 0.64090  0.18520  0.64000  Biso   1.000  C
  H196     1.0000 0.61330  0.20180  0.65300  Biso   1.000  H
  C283     1.0000 0.68840  0.20440  0.64860  Biso   1.000  C
  C284     1.0000 0.72880  0.17700  0.63160  Biso   1.000  C
  H197     1.0000 0.76090  0.18850  0.63800  Biso   1.000  H
  C285     1.0000 0.72250  0.13270  0.60540  Biso   1.000  C
  H198     1.0000 0.75020  0.11470  0.59480  Biso   1.000  H
  H199     1.0000 0.80450  0.90660  0.47080  Biso   1.000  H
  O59      1.0000 0.62751  0.94582  0.44744  Biso   1.000  O
  O60      1.0000 0.71040  0.94900  0.44920  Biso   1.000  O
  C286     1.0000 0.67020  0.93000  0.43600  Biso   1.000  C
  C287     1.0000 0.69750  0.74920  0.32230  Biso   1.000  C
  C288     1.0000 0.66720  0.73760  0.28110  Biso   1.000  C
  H200     1.0000 0.63950  0.75740  0.27420  Biso   1.000  H
  C289     1.0000 0.67490  0.88450  0.40510  Biso   1.000  C
  C290     1.0000 0.63380  0.85790  0.38720  Biso   1.000  C
  H201     1.0000 0.60170  0.86930  0.39370  Biso   1.000  H
  C291     1.0000 0.64090  0.81480  0.36000  Biso   1.000  C
  H202     1.0000 0.61330  0.79820  0.34700  Biso   1.000  H
  C292     1.0000 0.68840  0.79560  0.35140  Biso   1.000  C
  C293     1.0000 0.72880  0.82300  0.36840  Biso   1.000  C
  H203     1.0000 0.76090  0.81150  0.36200  Biso   1.000  H
  C294     1.0000 0.72250  0.86730  0.39460  Biso   1.000  C
  H204     1.0000 0.75020  0.88530  0.40520  Biso   1.000  H
  H205     1.0000 0.19550  0.90660  0.52920  Biso   1.000  H
  O61      1.0000 0.37249  0.94582  0.55256  Biso   1.000  O
  O62      1.0000 0.28960  0.94900  0.55080  Biso   1.000  O
  C295     1.0000 0.32980  0.93000  0.56400  Biso   1.000  C
  C296     1.0000 0.30250  0.74920  0.67770  Biso   1.000  C
  C297     1.0000 0.33280  0.73760  0.71890  Biso   1.000  C
  H206     1.0000 0.36050  0.75740  0.72580  Biso   1.000  H
  C298     1.0000 0.32510  0.88450  0.59490  Biso   1.000  C
  C299     1.0000 0.36620  0.85790  0.61280  Biso   1.000  C
  H207     1.0000 0.39830  0.86930  0.60630  Biso   1.000  H
  C300     1.0000 0.35910  0.81480  0.64000  Biso   1.000  C
  H208     1.0000 0.38670  0.79820  0.65300  Biso   1.000  H
  C301     1.0000 0.31160  0.79560  0.64860  Biso   1.000  C
  C302     1.0000 0.27120  0.82300  0.63160  Biso   1.000  C
  H209     1.0000 0.23910  0.81150  0.63800  Biso   1.000  H
  C303     1.0000 0.27750  0.86730  0.60540  Biso   1.000  C
  H210     1.0000 0.24980  0.88530  0.59480  Biso   1.000  H
  H211     1.0000 0.19550  0.09340  0.47080  Biso   1.000  H
  O63      1.0000 0.37249  0.05418  0.44744  Biso   1.000  O
  O64      1.0000 0.28960  0.05100  0.44920  Biso   1.000  O
  C304     1.0000 0.32980  0.07000  0.43600  Biso   1.000  C
  C305     1.0000 0.30250  0.25080  0.32230  Biso   1.000  C
  C306     1.0000 0.33280  0.26240  0.28110  Biso   1.000  C
  H212     1.0000 0.36050  0.24260  0.27420  Biso   1.000  H
  C307     1.0000 0.32510  0.11550  0.40510  Biso   1.000  C
  C308     1.0000 0.36620  0.14210  0.38720  Biso   1.000  C
  H213     1.0000 0.39830  0.13070  0.39370  Biso   1.000  H
  C309     1.0000 0.35910  0.18520  0.36000  Biso   1.000  C
  H214     1.0000 0.38670  0.20180  0.34700  Biso   1.000  H
  C310     1.0000 0.31160  0.20440  0.35140  Biso   1.000  C
  C311     1.0000 0.27120  0.17700  0.36840  Biso   1.000  C
  H215     1.0000 0.23910  0.18850  0.36200  Biso   1.000  H
  C312     1.0000 0.27750  0.13270  0.39460  Biso   1.000  C
  H216     1.0000 0.24980  0.11470  0.40520  Biso   1.000  H
  H217     1.0000 0.52920  0.80450  0.09340  Biso   1.000  H
  O65      1.0000 0.55256  0.62751  0.05418  Biso   1.000  O
  O66      1.0000 0.55080  0.71040  0.05100  Biso   1.000  O
  C313     1.0000 0.56400  0.67020  0.07000  Biso   1.000  C
  C314     1.0000 0.67770  0.69750  0.25080  Biso   1.000  C
  C315     1.0000 0.71890  0.66720  0.26240  Biso   1.000  C
  H218     1.0000 0.72580  0.63950  0.24260  Biso   1.000  H
  C316     1.0000 0.59490  0.67490  0.11550  Biso   1.000  C
  C317     1.0000 0.61280  0.63380  0.14210  Biso   1.000  C
  H219     1.0000 0.60630  0.60170  0.13070  Biso   1.000  H
  C318     1.0000 0.64000  0.64090  0.18520  Biso   1.000  C
  H220     1.0000 0.65300  0.61330  0.20180  Biso   1.000  H
  C319     1.0000 0.64860  0.68840  0.20440  Biso   1.000  C
  C320     1.0000 0.63160  0.72880  0.17700  Biso   1.000  C
  H221     1.0000 0.63800  0.76090  0.18850  Biso   1.000  H
  C321     1.0000 0.60540  0.72250  0.13270  Biso   1.000  C
  H222     1.0000 0.59480  0.75020  0.11470  Biso   1.000  H
  H223     1.0000 0.47080  0.80450  0.90660  Biso   1.000  H
  O67      1.0000 0.44744  0.62751  0.94582  Biso   1.000  O
  O68      1.0000 0.44920  0.71040  0.94900  Biso   1.000  O
  C322     1.0000 0.43600  0.67020  0.93000  Biso   1.000  C
  C323     1.0000 0.32230  0.69750  0.74920  Biso   1.000  C
  C324     1.0000 0.28110  0.66720  0.73760  Biso   1.000  C
  H224     1.0000 0.27420  0.63950  0.75740  Biso   1.000  H
  C325     1.0000 0.40510  0.67490  0.88450  Biso   1.000  C
  C326     1.0000 0.38720  0.63380  0.85790  Biso   1.000  C
  H225     1.0000 0.39370  0.60170  0.86930  Biso   1.000  H
  C327     1.0000 0.36000  0.64090  0.81480  Biso   1.000  C
  H226     1.0000 0.34700  0.61330  0.79820  Biso   1.000  H
  C328     1.0000 0.35140  0.68840  0.79560  Biso   1.000  C
  C329     1.0000 0.36840  0.72880  0.82300  Biso   1.000  C
  H227     1.0000 0.36200  0.76090  0.81150  Biso   1.000  H
  C330     1.0000 0.39460  0.72250  0.86730  Biso   1.000  C
  H228     1.0000 0.40520  0.75020  0.88530  Biso   1.000  H
  H229     1.0000 0.52920  0.19550  0.90660  Biso   1.000  H
  O69      1.0000 0.55256  0.37249  0.94582  Biso   1.000  O
  O70      1.0000 0.55080  0.28960  0.94900  Biso   1.000  O
  C331     1.0000 0.56400  0.32980  0.93000  Biso   1.000  C
  C332     1.0000 0.67770  0.30250  0.74920  Biso   1.000  C
  C333     1.0000 0.71890  0.33280  0.73760  Biso   1.000  C
  H230     1.0000 0.72580  0.36050  0.75740  Biso   1.000  H
  C334     1.0000 0.59490  0.32510  0.88450  Biso   1.000  C
  C335     1.0000 0.61280  0.36620  0.85790  Biso   1.000  C
  H231     1.0000 0.60630  0.39830  0.86930  Biso   1.000  H
  C336     1.0000 0.64000  0.35910  0.81480  Biso   1.000  C
  H232     1.0000 0.65300  0.38670  0.79820  Biso   1.000  H
  C337     1.0000 0.64860  0.31160  0.79560  Biso   1.000  C
  C338     1.0000 0.63160  0.27120  0.82300  Biso   1.000  C
  H233     1.0000 0.63800  0.23910  0.81150  Biso   1.000  H
  C339     1.0000 0.60540  0.27750  0.86730  Biso   1.000  C
  H234     1.0000 0.59480  0.24980  0.88530  Biso   1.000  H
  H235     1.0000 0.47080  0.19550  0.09340  Biso   1.000  H
  O71      1.0000 0.44744  0.37249  0.05418  Biso   1.000  O
  O72      1.0000 0.44920  0.28960  0.05100  Biso   1.000  O
  C340     1.0000 0.43600  0.32980  0.07000  Biso   1.000  C
  C341     1.0000 0.32230  0.30250  0.25080  Biso   1.000  C
  C342     1.0000 0.28110  0.33280  0.26240  Biso   1.000  C
  H236     1.0000 0.27420  0.36050  0.24260  Biso   1.000  H
  C343     1.0000 0.40510  0.32510  0.11550  Biso   1.000  C
  C344     1.0000 0.38720  0.36620  0.14210  Biso   1.000  C
  H237     1.0000 0.39370  0.39830  0.13070  Biso   1.000  H
  C345     1.0000 0.36000  0.35910  0.18520  Biso   1.000  C
  H238     1.0000 0.34700  0.38670  0.20180  Biso   1.000  H
  C346     1.0000 0.35140  0.31160  0.20440  Biso   1.000  C
  C347     1.0000 0.36840  0.27120  0.17700  Biso   1.000  C
  H239     1.0000 0.36200  0.23910  0.18850  Biso   1.000  H
  C348     1.0000 0.39460  0.27750  0.13270  Biso   1.000  C
  H240     1.0000 0.40520  0.24980  0.11470  Biso   1.000  H
  H241     1.0000 0.90660  0.47080  0.19550  Biso   1.000  H
  O73      1.0000 0.94582  0.44744  0.37249  Biso   1.000  O
  O74      1.0000 0.94900  0.44920  0.28960  Biso   1.000  O
  C349     1.0000 0.93000  0.43600  0.32980  Biso   1.000  C
  C350     1.0000 0.74920  0.32230  0.30250  Biso   1.000  C
  C351     1.0000 0.73760  0.28110  0.33280  Biso   1.000  C
  H242     1.0000 0.75740  0.27420  0.36050  Biso   1.000  H
  C352     1.0000 0.88450  0.40510  0.32510  Biso   1.000  C
  C353     1.0000 0.85790  0.38720  0.36620  Biso   1.000  C
  H243     1.0000 0.86930  0.39370  0.39830  Biso   1.000  H
  C354     1.0000 0.81480  0.36000  0.35910  Biso   1.000  C
  H244     1.0000 0.79820  0.34700  0.38670  Biso   1.000  H
  C355     1.0000 0.79560  0.35140  0.31160  Biso   1.000  C
  C356     1.0000 0.82300  0.36840  0.27120  Biso   1.000  C
  H245     1.0000 0.81150  0.36200  0.23910  Biso   1.000  H
  C357     1.0000 0.86730  0.39460  0.27750  Biso   1.000  C
  H246     1.0000 0.88530  0.40520  0.24980  Biso   1.000  H
  H247     1.0000 0.09340  0.52920  0.19550  Biso   1.000  H
  O75      1.0000 0.05418  0.55256  0.37249  Biso   1.000  O
  O76      1.0000 0.05100  0.55080  0.28960  Biso   1.000  O
  C358     1.0000 0.07000  0.56400  0.32980  Biso   1.000  C
  C359     1.0000 0.25080  0.67770  0.30250  Biso   1.000  C
  C360     1.0000 0.26240  0.71890  0.33280  Biso   1.000  C
  H248     1.0000 0.24260  0.72580  0.36050  Biso   1.000  H
  C361     1.0000 0.11550  0.59490  0.32510  Biso   1.000  C
  C362     1.0000 0.14210  0.61280  0.36620  Biso   1.000  C
  H249     1.0000 0.13070  0.60630  0.39830  Biso   1.000  H
  C363     1.0000 0.18520  0.64000  0.35910  Biso   1.000  C
  H250     1.0000 0.20180  0.65300  0.38670  Biso   1.000  H
  C364     1.0000 0.20440  0.64860  0.31160  Biso   1.000  C
  C365     1.0000 0.17700  0.63160  0.27120  Biso   1.000  C
  H251     1.0000 0.18850  0.63800  0.23910  Biso   1.000  H
  C366     1.0000 0.13270  0.60540  0.27750  Biso   1.000  C
  H252     1.0000 0.11470  0.59480  0.24980  Biso   1.000  H
  H253     1.0000 0.09340  0.47080  0.80450  Biso   1.000  H
  O77      1.0000 0.05418  0.44744  0.62751  Biso   1.000  O
  O78      1.0000 0.05100  0.44920  0.71040  Biso   1.000  O
  C367     1.0000 0.07000  0.43600  0.67020  Biso   1.000  C
  C368     1.0000 0.25080  0.32230  0.69750  Biso   1.000  C
  C369     1.0000 0.26240  0.28110  0.66720  Biso   1.000  C
  H254     1.0000 0.24260  0.27420  0.63950  Biso   1.000  H
  C370     1.0000 0.11550  0.40510  0.67490  Biso   1.000  C
  C371     1.0000 0.14210  0.38720  0.63380  Biso   1.000  C
  H255     1.0000 0.13070  0.39370  0.60170  Biso   1.000  H
  C372     1.0000 0.18520  0.36000  0.64090  Biso   1.000  C
  H256     1.0000 0.20180  0.34700  0.61330  Biso   1.000  H
  C373     1.0000 0.20440  0.35140  0.68840  Biso   1.000  C
  C374     1.0000 0.17700  0.36840  0.72880  Biso   1.000  C
  H257     1.0000 0.18850  0.36200  0.76090  Biso   1.000  H
  C375     1.0000 0.13270  0.39460  0.72250  Biso   1.000  C
  H258     1.0000 0.11470  0.40520  0.75020  Biso   1.000  H
  H259     1.0000 0.90660  0.52920  0.80450  Biso   1.000  H
  O79      1.0000 0.94582  0.55256  0.62751  Biso   1.000  O
  O80      1.0000 0.94900  0.55080  0.71040  Biso   1.000  O
  C376     1.0000 0.93000  0.56400  0.67020  Biso   1.000  C
  C377     1.0000 0.74920  0.67770  0.69750  Biso   1.000  C
  C378     1.0000 0.73760  0.71890  0.66720  Biso   1.000  C
  H260     1.0000 0.75740  0.72580  0.63950  Biso   1.000  H
  C379     1.0000 0.88450  0.59490  0.67490  Biso   1.000  C
  C380     1.0000 0.85790  0.61280  0.63380  Biso   1.000  C
  H261     1.0000 0.86930  0.60630  0.60170  Biso   1.000  H
  C381     1.0000 0.81480  0.64000  0.64090  Biso   1.000  C
  H262     1.0000 0.79820  0.65300  0.61330  Biso   1.000  H
  C382     1.0000 0.79560  0.64860  0.68840  Biso   1.000  C
  C383     1.0000 0.82300  0.63160  0.72880  Biso   1.000  C
  H263     1.0000 0.81150  0.63800  0.76090  Biso   1.000  H
  C384     1.0000 0.86730  0.60540  0.72250  Biso   1.000  C
  H264     1.0000 0.88530  0.59480  0.75020  Biso   1.000  H
  H265     1.0000 0.19550  0.90660  0.47080  Biso   1.000  H
  O81      1.0000 0.37249  0.94582  0.44744  Biso   1.000  O
  O82      1.0000 0.28960  0.94900  0.44920  Biso   1.000  O
  C385     1.0000 0.32980  0.93000  0.43600  Biso   1.000  C
  C386     1.0000 0.30250  0.74920  0.32230  Biso   1.000  C
  C387     1.0000 0.33280  0.73760  0.28110  Biso   1.000  C
  H266     1.0000 0.36050  0.75740  0.27420  Biso   1.000  H
  C388     1.0000 0.32510  0.88450  0.40510  Biso   1.000  C
  C389     1.0000 0.36620  0.85790  0.38720  Biso   1.000  C
  H267     1.0000 0.39830  0.86930  0.39370  Biso   1.000  H
  C390     1.0000 0.35910  0.81480  0.36000  Biso   1.000  C
  H268     1.0000 0.38670  0.79820  0.34700  Biso   1.000  H
  C391     1.0000 0.31160  0.79560  0.35140  Biso   1.000  C
  C392     1.0000 0.27120  0.82300  0.36840  Biso   1.000  C
  H269     1.0000 0.23910  0.81150  0.36200  Biso   1.000  H
  C393     1.0000 0.27750  0.86730  0.39460  Biso   1.000  C
  H270     1.0000 0.24980  0.88530  0.40520  Biso   1.000  H
  H271     1.0000 0.19550  0.09340  0.52920  Biso   1.000  H
  O83      1.0000 0.37249  0.05418  0.55256  Biso   1.000  O
  O84      1.0000 0.28960  0.05100  0.55080  Biso   1.000  O
  C394     1.0000 0.32980  0.07000  0.56400  Biso   1.000  C
  C395     1.0000 0.30250  0.25080  0.67770  Biso   1.000  C
  C396     1.0000 0.33280  0.26240  0.71890  Biso   1.000  C
  H272     1.0000 0.36050  0.24260  0.72580  Biso   1.000  H
  C397     1.0000 0.32510  0.11550  0.59490  Biso   1.000  C
  C398     1.0000 0.36620  0.14210  0.61280  Biso   1.000  C
  H273     1.0000 0.39830  0.13070  0.60630  Biso   1.000  H
  C399     1.0000 0.35910  0.18520  0.64000  Biso   1.000  C
  H274     1.0000 0.38670  0.20180  0.65300  Biso   1.000  H
  C400     1.0000 0.31160  0.20440  0.64860  Biso   1.000  C
  C401     1.0000 0.27120  0.17700  0.63160  Biso   1.000  C
  H275     1.0000 0.23910  0.18850  0.63800  Biso   1.000  H
  C402     1.0000 0.27750  0.13270  0.60540  Biso   1.000  C
  H276     1.0000 0.24980  0.11470  0.59480  Biso   1.000  H
  H277     1.0000 0.80450  0.09340  0.47080  Biso   1.000  H
  O85      1.0000 0.62751  0.05418  0.44744  Biso   1.000  O
  O86      1.0000 0.71040  0.05100  0.44920  Biso   1.000  O
  C403     1.0000 0.67020  0.07000  0.43600  Biso   1.000  C
  C404     1.0000 0.69750  0.25080  0.32230  Biso   1.000  C
  C405     1.0000 0.66720  0.26240  0.28110  Biso   1.000  C
  H278     1.0000 0.63950  0.24260  0.27420  Biso   1.000  H
  C406     1.0000 0.67490  0.11550  0.40510  Biso   1.000  C
  C407     1.0000 0.63380  0.14210  0.38720  Biso   1.000  C
  H279     1.0000 0.60170  0.13070  0.39370  Biso   1.000  H
  C408     1.0000 0.64090  0.18520  0.36000  Biso   1.000  C
  H280     1.0000 0.61330  0.20180  0.34700  Biso   1.000  H
  C409     1.0000 0.68840  0.20440  0.35140  Biso   1.000  C
  C410     1.0000 0.72880  0.17700  0.36840  Biso   1.000  C
  H281     1.0000 0.76090  0.18850  0.36200  Biso   1.000  H
  C411     1.0000 0.72250  0.13270  0.39460  Biso   1.000  C
  H282     1.0000 0.75020  0.11470  0.40520  Biso   1.000  H
  H283     1.0000 0.80450  0.90660  0.52920  Biso   1.000  H
  O87      1.0000 0.62751  0.94582  0.55256  Biso   1.000  O
  O88      1.0000 0.71040  0.94900  0.55080  Biso   1.000  O
  C412     1.0000 0.67020  0.93000  0.56400  Biso   1.000  C
  C413     1.0000 0.69750  0.74920  0.67770  Biso   1.000  C
  C414     1.0000 0.66720  0.73760  0.71890  Biso   1.000  C
  H284     1.0000 0.63950  0.75740  0.72580  Biso   1.000  H
  C415     1.0000 0.67490  0.88450  0.59490  Biso   1.000  C
  C416     1.0000 0.63380  0.85790  0.61280  Biso   1.000  C
  H285     1.0000 0.60170  0.86930  0.60630  Biso   1.000  H
  C417     1.0000 0.64090  0.81480  0.64000  Biso   1.000  C
  H286     1.0000 0.61330  0.79820  0.65300  Biso   1.000  H
  C418     1.0000 0.68840  0.79560  0.64860  Biso   1.000  C
  C419     1.0000 0.72880  0.82300  0.63160  Biso   1.000  C
  H287     1.0000 0.76090  0.81150  0.63800  Biso   1.000  H
  C420     1.0000 0.72250  0.86730  0.60540  Biso   1.000  C
  H288     1.0000 0.75020  0.88530  0.59480  Biso   1.000  H
  H289     1.0000 0.47080  0.19550  0.90660  Biso   1.000  H
  O89      1.0000 0.44744  0.37249  0.94582  Biso   1.000  O
  O90      1.0000 0.44920  0.28960  0.94900  Biso   1.000  O
  C421     1.0000 0.43600  0.32980  0.93000  Biso   1.000  C
  C422     1.0000 0.32230  0.30250  0.74920  Biso   1.000  C
  C423     1.0000 0.28110  0.33280  0.73760  Biso   1.000  C
  H290     1.0000 0.27420  0.36050  0.75740  Biso   1.000  H
  C424     1.0000 0.40510  0.32510  0.88450  Biso   1.000  C
  C425     1.0000 0.38720  0.36620  0.85790  Biso   1.000  C
  H291     1.0000 0.39370  0.39830  0.86930  Biso   1.000  H
  C426     1.0000 0.36000  0.35910  0.81480  Biso   1.000  C
  H292     1.0000 0.34700  0.38670  0.79820  Biso   1.000  H
  C427     1.0000 0.35140  0.31160  0.79560  Biso   1.000  C
  C428     1.0000 0.36840  0.27120  0.82300  Biso   1.000  C
  H293     1.0000 0.36200  0.23910  0.81150  Biso   1.000  H
  C429     1.0000 0.39460  0.27750  0.86730  Biso   1.000  C
  H294     1.0000 0.40520  0.24980  0.88530  Biso   1.000  H
  H295     1.0000 0.52920  0.19550  0.09340  Biso   1.000  H
  O91      1.0000 0.55256  0.37249  0.05418  Biso   1.000  O
  O92      1.0000 0.55080  0.28960  0.05100  Biso   1.000  O
  C430     1.0000 0.56400  0.32980  0.07000  Biso   1.000  C
  C431     1.0000 0.67770  0.30250  0.25080  Biso   1.000  C
  C432     1.0000 0.71890  0.33280  0.26240  Biso   1.000  C
  H296     1.0000 0.72580  0.36050  0.24260  Biso   1.000  H
  C433     1.0000 0.59490  0.32510  0.11550  Biso   1.000  C
  C434     1.0000 0.61280  0.36620  0.14210  Biso   1.000  C
  H297     1.0000 0.60630  0.39830  0.13070  Biso   1.000  H
  C435     1.0000 0.64000  0.35910  0.18520  Biso   1.000  C
  H298     1.0000 0.65300  0.38670  0.20180  Biso   1.000  H
  C436     1.0000 0.64860  0.31160  0.20440  Biso   1.000  C
  C437     1.0000 0.63160  0.27120  0.17700  Biso   1.000  C
  H299     1.0000 0.63800  0.23910  0.18850  Biso   1.000  H
  C438     1.0000 0.60540  0.27750  0.13270  Biso   1.000  C
  H300     1.0000 0.59480  0.24980  0.11470  Biso   1.000  H
  H301     1.0000 0.47080  0.80450  0.09340  Biso   1.000  H
  O93      1.0000 0.44744  0.62751  0.05418  Biso   1.000  O
  O94      1.0000 0.44920  0.71040  0.05100  Biso   1.000  O
  C439     1.0000 0.43600  0.67020  0.07000  Biso   1.000  C
  C440     1.0000 0.32230  0.69750  0.25080  Biso   1.000  C
  C441     1.0000 0.28110  0.66720  0.26240  Biso   1.000  C
  H302     1.0000 0.27420  0.63950  0.24260  Biso   1.000  H
  C442     1.0000 0.40510  0.67490  0.11550  Biso   1.000  C
  C443     1.0000 0.38720  0.63380  0.14210  Biso   1.000  C
  H303     1.0000 0.39370  0.60170  0.13070  Biso   1.000  H
  C444     1.0000 0.36000  0.64090  0.18520  Biso   1.000  C
  H304     1.0000 0.34700  0.61330  0.20180  Biso   1.000  H
  C445     1.0000 0.35140  0.68840  0.20440  Biso   1.000  C
  C446     1.0000 0.36840  0.72880  0.17700  Biso   1.000  C
  H305     1.0000 0.36200  0.76090  0.18850  Biso   1.000  H
  C447     1.0000 0.39460  0.72250  0.13270  Biso   1.000  C
  H306     1.0000 0.40520  0.75020  0.11470  Biso   1.000  H
  H307     1.0000 0.52920  0.80450  0.90660  Biso   1.000  H
  O95      1.0000 0.55256  0.62751  0.94582  Biso   1.000  O
  O96      1.0000 0.55080  0.71040  0.94900  Biso   1.000  O
  C448     1.0000 0.56400  0.67020  0.93000  Biso   1.000  C
  C449     1.0000 0.67770  0.69750  0.74920  Biso   1.000  C
  C450     1.0000 0.71890  0.66720  0.73760  Biso   1.000  C
  H308     1.0000 0.72580  0.63950  0.75740  Biso   1.000  H
  C451     1.0000 0.59490  0.67490  0.88450  Biso   1.000  C
  C452     1.0000 0.61280  0.63380  0.85790  Biso   1.000  C
  H309     1.0000 0.60630  0.60170  0.86930  Biso   1.000  H
  C453     1.0000 0.64000  0.64090  0.81480  Biso   1.000  C
  H310     1.0000 0.65300  0.61330  0.79820  Biso   1.000  H
  C454     1.0000 0.64860  0.68840  0.79560  Biso   1.000  C
  C455     1.0000 0.63160  0.72880  0.82300  Biso   1.000  C
  H311     1.0000 0.63800  0.76090  0.81150  Biso   1.000  H
  C456     1.0000 0.60540  0.72250  0.86730  Biso   1.000  C
  H312     1.0000 0.59480  0.75020  0.88530  Biso   1.000  H
  Ni13     1.0000 0.00000  0.50000  0.72163  Biso   1.000  Ni
  Ni14     1.0000 0.00000  0.50000  0.61549  Biso   1.000  Ni
  N19      1.0000 0.00000  0.50000  0.79620  Biso   1.000  N
  Ni15     1.0000 0.00000  0.50000  0.27837  Biso   1.000  Ni
  Ni16     1.0000 0.00000  0.50000  0.38451  Biso   1.000  Ni
  N20      1.0000 0.00000  0.50000  0.20380  Biso   1.000  N
  Ni17     1.0000 0.72163  0.00000  0.50000  Biso   1.000  Ni
  Ni18     1.0000 0.61549  0.00000  0.50000  Biso   1.000  Ni
  N21      1.0000 0.79620  0.00000  0.50000  Biso   1.000  N
  Ni19     1.0000 0.27837  0.00000  0.50000  Biso   1.000  Ni
  Ni20     1.0000 0.38451  0.00000  0.50000  Biso   1.000  Ni
  N22      1.0000 0.20380  0.00000  0.50000  Biso   1.000  N
  Ni21     1.0000 0.50000  0.72163  0.00000  Biso   1.000  Ni
  Ni22     1.0000 0.50000  0.61549  0.00000  Biso   1.000  Ni
  N23      1.0000 0.50000  0.79620  0.00000  Biso   1.000  N
  Ni23     1.0000 0.50000  0.27837  0.00000  Biso   1.000  Ni
  Ni24     1.0000 0.50000  0.38451  0.00000  Biso   1.000  Ni
  N24      1.0000 0.50000  0.20380  0.00000  Biso   1.000  N
  C457     1.0000 0.03520  0.50000  0.82690  Biso   1.000  C
  N25      1.0000 0.02370  0.50000  0.87250  Biso   1.000  N
  H313     1.0000 0.04340  0.50000  0.89780  Biso   1.000  H
  C458     1.0000 0.08310  0.50000  0.82240  Biso   1.000  C
  H314     1.0000 0.09810  0.50000  0.85490  Biso   1.000  H
  C459     1.0000 0.96480  0.50000  0.82690  Biso   1.000  C
  N26      1.0000 0.97630  0.50000  0.87250  Biso   1.000  N
  H315     1.0000 0.95660  0.50000  0.89780  Biso   1.000  H
  C460     1.0000 0.91690  0.50000  0.82240  Biso   1.000  C
  H316     1.0000 0.90190  0.50000  0.85490  Biso   1.000  H
  C461     1.0000 0.96480  0.50000  0.17310  Biso   1.000  C
  N27      1.0000 0.97630  0.50000  0.12750  Biso   1.000  N
  H317     1.0000 0.95660  0.50000  0.10220  Biso   1.000  H
  C462     1.0000 0.91690  0.50000  0.17760  Biso   1.000  C
  H318     1.0000 0.90190  0.50000  0.14510  Biso   1.000  H
  C463     1.0000 0.03520  0.50000  0.17310  Biso   1.000  C
  N28      1.0000 0.02370  0.50000  0.12750  Biso   1.000  N
  H319     1.0000 0.04340  0.50000  0.10220  Biso   1.000  H
  C464     1.0000 0.08310  0.50000  0.17760  Biso   1.000  C
  H320     1.0000 0.09810  0.50000  0.14510  Biso   1.000  H
  C465     1.0000 0.82690  0.03520  0.50000  Biso   1.000  C
  N29      1.0000 0.87250  0.02370  0.50000  Biso   1.000  N
  H321     1.0000 0.89780  0.04340  0.50000  Biso   1.000  H
  C466     1.0000 0.82240  0.08310  0.50000  Biso   1.000  C
  H322     1.0000 0.85490  0.09810  0.50000  Biso   1.000  H
  C467     1.0000 0.82690  0.96480  0.50000  Biso   1.000  C
  N30      1.0000 0.87250  0.97630  0.50000  Biso   1.000  N
  H323     1.0000 0.89780  0.95660  0.50000  Biso   1.000  H
  C468     1.0000 0.82240  0.91690  0.50000  Biso   1.000  C
  H324     1.0000 0.85490  0.90190  0.50000  Biso   1.000  H
  C469     1.0000 0.17310  0.96480  0.50000  Biso   1.000  C
  N31      1.0000 0.12750  0.97630  0.50000  Biso   1.000  N
  H325     1.0000 0.10220  0.95660  0.50000  Biso   1.000  H
  C470     1.0000 0.17760  0.91690  0.50000  Biso   1.000  C
  H326     1.0000 0.14510  0.90190  0.50000  Biso   1.000  H
  C471     1.0000 0.17310  0.03520  0.50000  Biso   1.000  C
  N32      1.0000 0.12750  0.02370  0.50000  Biso   1.000  N
  H327     1.0000 0.10220  0.04340  0.50000  Biso   1.000  H
  C472     1.0000 0.17760  0.08310  0.50000  Biso   1.000  C
  H328     1.0000 0.14510  0.09810  0.50000  Biso   1.000  H
  C473     1.0000 0.50000  0.82690  0.03520  Biso   1.000  C
  N33      1.0000 0.50000  0.87250  0.02370  Biso   1.000  N
  H329     1.0000 0.50000  0.89780  0.04340  Biso   1.000  H
  C474     1.0000 0.50000  0.82240  0.08310  Biso   1.000  C
  H330     1.0000 0.50000  0.85490  0.09810  Biso   1.000  H
  C475     1.0000 0.50000  0.82690  0.96480  Biso   1.000  C
  N34      1.0000 0.50000  0.87250  0.97630  Biso   1.000  N
  H331     1.0000 0.50000  0.89780  0.95660  Biso   1.000  H
  C476     1.0000 0.50000  0.82240  0.91690  Biso   1.000  C
  H332     1.0000 0.50000  0.85490  0.90190  Biso   1.000  H
  C477     1.0000 0.50000  0.17310  0.96480  Biso   1.000  C
  N35      1.0000 0.50000  0.12750  0.97630  Biso   1.000  N
  H333     1.0000 0.50000  0.10220  0.95660  Biso   1.000  H
  C478     1.0000 0.50000  0.17760  0.91690  Biso   1.000  C
  H334     1.0000 0.50000  0.14510  0.90190  Biso   1.000  H
  C479     1.0000 0.50000  0.17310  0.03520  Biso   1.000  C
  N36      1.0000 0.50000  0.12750  0.02370  Biso   1.000  N
  H335     1.0000 0.50000  0.10220  0.04340  Biso   1.000  H
  C480     1.0000 0.50000  0.17760  0.08310  Biso   1.000  C
  H336     1.0000 0.50000  0.14510  0.09810  Biso   1.000  H
