data_image0
_cell_length_a       31.154
_cell_length_b       18.385
_cell_length_c       26.034
_cell_angle_alpha    90
_cell_angle_beta     114.274
_cell_angle_gamma    90

_symmetry_space_group_name_H-M    "P 1"
_symmetry_int_tables_number       1

loop_
  _symmetry_equiv_pos_as_xyz
  'x, y, z'

loop_
  _atom_site_label
  _atom_site_occupancy
  _atom_site_fract_x
  _atom_site_fract_y
  _atom_site_fract_z
  _atom_site_thermal_displace_type
  _atom_site_B_iso_or_equiv
  _atom_site_type_symbol
  Cu1      1.0000 0.49998  0.01811  0.49999  Biso   1.000  Cu
  Cu2      1.0000 0.56289  0.13566  0.56568  Biso   1.000  Cu
  Cu3      1.0000 0.71437  0.26266  0.08896  Biso   1.000  Cu
  Cu4      1.0000 0.65317  0.38685  0.02745  Biso   1.000  Cu
  Cu5      1.0000 0.48788  0.49250  0.00127  Biso   1.000  Cu
  Cu6      1.0000 0.54581  0.37333  0.06919  Biso   1.000  Cu
  Cu7      1.0000 0.72088  0.23442  0.58870  Biso   1.000  Cu
  Cu8      1.0000 0.66356  0.11891  0.51417  Biso   1.000  Cu
  Cl1      1.0000 0.57634  0.04813  0.49772  Biso   1.000  Cl
  Cl2      1.0000 0.63662  0.29848  0.08829  Biso   1.000  Cl
  Cl3      1.0000 0.56878  0.45322  0.00643  Biso   1.000  Cl
  Cl4      1.0000 0.64343  0.19994  0.58669  Biso   1.000  Cl
  N1       1.0000 0.45417  0.06940  0.43654  Biso   1.000  N
  N2       1.0000 0.19599  0.96098  0.07655  Biso   1.000  N
  N3       1.0000 0.51534  0.94323  0.55635  Biso   1.000  N
  N4       1.0000 0.64004  0.83091  0.94209  Biso   1.000  N
  N5       1.0000 0.57888  0.08716  0.63870  Biso   1.000  N
  N6       1.0000 0.69662  0.18955  0.03050  Biso   1.000  N
  N7       1.0000 0.75981  0.31334  0.15350  Biso   1.000  N
  N8       1.0000 0.00460  0.20029  0.51996  Biso   1.000  N
  N9       1.0000 0.63581  0.34186  0.95327  Biso   1.000  N
  N10      1.0000 0.50678  0.43260  0.55749  Biso   1.000  N
  N11      1.0000 0.44479  0.43924  0.93748  Biso   1.000  N
  N12      1.0000 0.20507  0.54784  0.56569  Biso   1.000  N
  N13      1.0000 0.57001  0.42081  0.14241  Biso   1.000  N
  N14      1.0000 0.70457  0.31021  0.53273  Biso   1.000  N
  N15      1.0000 0.76494  0.18228  0.65304  Biso   1.000  N
  N16      1.0000 0.02052  0.29161  0.01478  Biso   1.000  N
  C1       1.0000 0.46683  0.10572  0.40027  Biso   1.000  C
  H1       1.0000 0.49950  0.11080  0.40930  Biso   1.000  H
  C2       1.0000 0.43541  0.13617  0.35073  Biso   1.000  C
  H2       1.0000 0.44640  0.16170  0.32680  Biso   1.000  H
  C3       1.0000 0.38755  0.12917  0.33625  Biso   1.000  C
  C4       1.0000 0.37435  0.09380  0.37447  Biso   1.000  C
  H3       1.0000 0.34190  0.08950  0.36690  Biso   1.000  H
  C5       1.0000 0.40766  0.06494  0.42306  Biso   1.000  C
  H4       1.0000 0.39750  0.04070  0.44830  Biso   1.000  H
  C6       1.0000 0.24151  0.96290  0.08618  Biso   1.000  C
  H5       1.0000 0.25300  0.92780  0.06820  Biso   1.000  H
  C7       1.0000 0.27277  0.01350  0.12101  Biso   1.000  C
  H6       1.0000 0.30490  0.01220  0.12680  Biso   1.000  H
  C8       1.0000 0.25719  0.06609  0.14745  Biso   1.000  C
  C9       1.0000 0.20997  0.06395  0.13747  Biso   1.000  C
  H7       1.0000 0.19750  0.09890  0.15450  Biso   1.000  H
  C10      1.0000 0.18074  0.01077  0.10254  Biso   1.000  C
  H8       1.0000 0.14860  0.00980  0.09690  Biso   1.000  H
  C11      1.0000 0.35141  0.15674  0.28019  Biso   1.000  C
  H9       1.0000 0.36760  0.18470  0.26090  Biso   1.000  H
  H10      1.0000 0.32920  0.18980  0.28690  Biso   1.000  H
  C12      1.0000 0.32379  0.09355  0.24211  Biso   1.000  C
  H11      1.0000 0.30570  0.06740  0.26000  Biso   1.000  H
  H12      1.0000 0.34590  0.05880  0.23700  Biso   1.000  H
  C13      1.0000 0.28981  0.12383  0.18438  Biso   1.000  C
  H13      1.0000 0.27080  0.16350  0.19030  Biso   1.000  H
  H14      1.0000 0.30840  0.14470  0.16490  Biso   1.000  H
  C14      1.0000 0.55978  0.91656  0.58084  Biso   1.000  C
  H15      1.0000 0.58350  0.93770  0.57150  Biso   1.000  H
  C15      1.0000 0.57174  0.85962  0.61893  Biso   1.000  C
  H16      1.0000 0.60340  0.84330  0.63600  Biso   1.000  H
  C16      1.0000 0.53808  0.82650  0.63236  Biso   1.000  C
  C17      1.0000 0.49290  0.85460  0.60784  Biso   1.000  C
  H17      1.0000 0.46870  0.83430  0.61670  Biso   1.000  H
  C18      1.0000 0.48284  0.91240  0.57022  Biso   1.000  C
  H18      1.0000 0.45160  0.93070  0.55380  Biso   1.000  H
  C19      1.0000 0.66872  0.79920  0.92167  Biso   1.000  C
  H19      1.0000 0.70170  0.80010  0.94390  Biso   1.000  H
  C20      1.0000 0.65196  0.76517  0.86937  Biso   1.000  C
  H20      1.0000 0.67340  0.74380  0.85630  Biso   1.000  H
  C21      1.0000 0.60385  0.76240  0.83618  Biso   1.000  C
  C22      1.0000 0.57464  0.79470  0.85771  Biso   1.000  C
  H21      1.0000 0.54150  0.79420  0.83660  Biso   1.000  H
  C23      1.0000 0.59379  0.82770  0.91007  Biso   1.000  C
  H22      1.0000 0.57300  0.84920  0.92400  Biso   1.000  H
  C24      1.0000 0.55077  0.76468  0.67386  Biso   1.000  C
  H23      1.0000 0.57420  0.73300  0.66840  Biso   1.000  H
  H24      1.0000 0.52240  0.73510  0.66700  Biso   1.000  H
  C25      1.0000 0.57106  0.79313  0.73456  Biso   1.000  C
  H25      1.0000 0.54750  0.82470  0.73990  Biso   1.000  H
  H26      1.0000 0.59930  0.82300  0.74120  Biso   1.000  H
  C26      1.0000 0.58455  0.73101  0.77779  Biso   1.000  C
  H27      1.0000 0.55650  0.70090  0.77160  Biso   1.000  H
  H28      1.0000 0.60850  0.69950  0.77320  Biso   1.000  H
  C27      1.0000 0.62424  0.07560  0.67332  Biso   1.000  C
  H29      1.0000 0.64780  0.09070  0.66120  Biso   1.000  H
  C28      1.0000 0.63847  0.04290  0.72546  Biso   1.000  C
  H30      1.0000 0.67100  0.03610  0.74830  Biso   1.000  H
  C29      1.0000 0.60505  0.01988  0.74450  Biso   1.000  C
  C30      1.0000 0.55836  0.03160  0.70831  Biso   1.000  C
  H31      1.0000 0.53410  0.01640  0.71900  Biso   1.000  H
  C31      1.0000 0.54681  0.06510  0.65680  Biso   1.000  C
  H32      1.0000 0.51450  0.07280  0.63320  Biso   1.000  H
  C32      1.0000 0.72658  0.16210  0.01085  Biso   1.000  C
  H33      1.0000 0.75760  0.18130  0.02490  Biso   1.000  H
  C33      1.0000 0.71476  0.10700  0.97107  Biso   1.000  C
  H34      1.0000 0.73720  0.08990  0.95790  Biso   1.000  H
  C34      1.0000 0.67035  0.07727  0.95077  Biso   1.000  C
  C35      1.0000 0.63898  0.10530  0.97180  Biso   1.000  C
  H35      1.0000 0.60810  0.08590  0.95950  Biso   1.000  H
  C36      1.0000 0.65331  0.16090  0.01037  Biso   1.000  C
  H36      1.0000 0.63130  0.18000  0.02350  Biso   1.000  H
  C37      1.0000 0.61985  0.98764  0.80232  Biso   1.000  C
  H37      1.0000 0.64530  0.95170  0.80910  Biso   1.000  H
  H38      1.0000 0.59280  0.96210  0.80490  Biso   1.000  H
  C38      1.0000 0.63747  0.04792  0.84756  Biso   1.000  C
  H39      1.0000 0.66350  0.07480  0.84360  Biso   1.000  H
  H40      1.0000 0.61150  0.08270  0.84130  Biso   1.000  H
  C39      1.0000 0.65482  0.01720  0.90733  Biso   1.000  C
  H41      1.0000 0.62920  0.98900  0.91110  Biso   1.000  H
  H42      1.0000 0.68150  0.98380  0.91420  Biso   1.000  H
  C40      1.0000 0.74659  0.34900  0.18919  Biso   1.000  C
  H43      1.0000 0.71390  0.35340  0.17990  Biso   1.000  H
  C41      1.0000 0.77775  0.37980  0.23870  Biso   1.000  C
  H44      1.0000 0.76640  0.40490  0.26260  Biso   1.000  H
  C42      1.0000 0.82577  0.37398  0.25348  Biso   1.000  C
  C43      1.0000 0.83915  0.33958  0.21528  Biso   1.000  C
  H45      1.0000 0.87160  0.33620  0.22290  Biso   1.000  H
  C44      1.0000 0.80616  0.31004  0.16620  Biso   1.000  C
  H46      1.0000 0.81650  0.28670  0.14070  Biso   1.000  H
  C45      1.0000 0.95945  0.20854  0.50964  Biso   1.000  C
  H47      1.0000 0.94630  0.17660  0.52810  Biso   1.000  H
  C46      1.0000 0.93026  0.26049  0.47382  Biso   1.000  C
  H48      1.0000 0.89810  0.26310  0.46790  Biso   1.000  H
  C47      1.0000 0.94807  0.30872  0.44659  Biso   1.000  C
  C48      1.0000 0.99536  0.30082  0.45739  Biso   1.000  C
  H49      1.0000 0.00940  0.33260  0.44000  Biso   1.000  H
  C49      1.0000 0.02209  0.24676  0.49348  Biso   1.000  C
  H50      1.0000 0.05430  0.24230  0.49980  Biso   1.000  H
  C50      1.0000 0.86131  0.40179  0.30891  Biso   1.000  C
  H51      1.0000 0.84540  0.43360  0.32630  Biso   1.000  H
  H52      1.0000 0.88520  0.43130  0.30240  Biso   1.000  H
  C51      1.0000 0.88608  0.33892  0.34972  Biso   1.000  C
  H53      1.0000 0.86210  0.30660  0.35340  Biso   1.000  H
  H54      1.0000 0.90470  0.30990  0.33410  Biso   1.000  H
  C52      1.0000 0.91865  0.36803  0.40790  Biso   1.000  C
  H55      1.0000 0.93980  0.40530  0.40340  Biso   1.000  H
  H56      1.0000 0.89940  0.39170  0.42530  Biso   1.000  H
  C53      1.0000 0.66720  0.31582  0.93527  Biso   1.000  C
  H57      1.0000 0.69970  0.32050  0.95920  Biso   1.000  H
  C54      1.0000 0.65472  0.28216  0.88326  Biso   1.000  C
  H58      1.0000 0.67840  0.26380  0.87260  Biso   1.000  H
  C55      1.0000 0.60736  0.27545  0.84675  Biso   1.000  C
  C56      1.0000 0.57500  0.30374  0.86477  Biso   1.000  C
  H59      1.0000 0.54230  0.30180  0.84090  Biso   1.000  H
  C57      1.0000 0.59007  0.33498  0.91773  Biso   1.000  C
  H60      1.0000 0.56690  0.35250  0.92960  Biso   1.000  H
  C58      1.0000 0.55000  0.40193  0.57492  Biso   1.000  C
  H61      1.0000 0.57080  0.41850  0.55900  Biso   1.000  H
  C59      1.0000 0.56481  0.34790  0.61464  Biso   1.000  C
  H62      1.0000 0.59560  0.32830  0.62590  Biso   1.000  H
  C60      1.0000 0.53594  0.32160  0.63853  Biso   1.000  C
  C61      1.0000 0.49115  0.35207  0.62060  Biso   1.000  C
  H63      1.0000 0.46990  0.33600  0.63600  Biso   1.000  H
  C62      1.0000 0.47794  0.40651  0.57976  Biso   1.000  C
  H64      1.0000 0.44710  0.42610  0.56710  Biso   1.000  H
  C63      1.0000 0.55226  0.26396  0.68343  Biso   1.000  C
  H65      1.0000 0.57660  0.23350  0.67880  Biso   1.000  H
  H66      1.0000 0.52540  0.23220  0.67950  Biso   1.000  H
  C64      1.0000 0.57278  0.29907  0.74275  Biso   1.000  C
  H67      1.0000 0.59850  0.33290  0.74580  Biso   1.000  H
  H68      1.0000 0.54790  0.32760  0.74790  Biso   1.000  H
  C65      1.0000 0.59187  0.24179  0.78915  Biso   1.000  C
  H69      1.0000 0.56710  0.20510  0.78380  Biso   1.000  H
  H70      1.0000 0.61890  0.21660  0.78640  Biso   1.000  H
  C66      1.0000 0.46033  0.40201  0.90405  Biso   1.000  C
  H71      1.0000 0.49340  0.39670  0.91600  Biso   1.000  H
  C67      1.0000 0.43091  0.37092  0.85319  Biso   1.000  C
  H72      1.0000 0.44370  0.34490  0.83120  Biso   1.000  H
  C68      1.0000 0.38253  0.37830  0.83474  Biso   1.000  C
  C69      1.0000 0.36651  0.41487  0.86991  Biso   1.000  C
  H73      1.0000 0.33360  0.41970  0.85940  Biso   1.000  H
  C70      1.0000 0.39774  0.44439  0.91998  Biso   1.000  C
  H74      1.0000 0.38560  0.46940  0.94310  Biso   1.000  H
  C71      1.0000 0.24933  0.53670  0.57297  Biso   1.000  C
  H75      1.0000 0.26170  0.56590  0.55210  Biso   1.000  H
  C72      1.0000 0.27882  0.48440  0.60980  Biso   1.000  C
  H76      1.0000 0.31030  0.47890  0.61370  Biso   1.000  H
  C73      1.0000 0.26169  0.44120  0.64011  Biso   1.000  C
  C74      1.0000 0.21619  0.45330  0.63312  Biso   1.000  C
  H77      1.0000 0.20310  0.42560  0.65390  Biso   1.000  H
  C75      1.0000 0.18913  0.50660  0.59526  Biso   1.000  C
  H78      1.0000 0.15750  0.51330  0.59070  Biso   1.000  H
  C76      1.0000 0.29104  0.38250  0.67953  Biso   1.000  C
  H79      1.0000 0.31060  0.35850  0.66260  Biso   1.000  H
  H80      1.0000 0.26990  0.34530  0.68400  Biso   1.000  H
  C77      1.0000 0.32326  0.41230  0.73778  Biso   1.000  C
  H81      1.0000 0.30420  0.43990  0.75370  Biso   1.000  H
  H82      1.0000 0.34660  0.44600  0.73400  Biso   1.000  H
  C78      1.0000 0.34904  0.34982  0.77781  Biso   1.000  C
  H83      1.0000 0.32570  0.31730  0.78270  Biso   1.000  H
  H84      1.0000 0.36690  0.32100  0.76100  Biso   1.000  H
  C79      1.0000 0.61652  0.42479  0.17384  Biso   1.000  C
  H85      1.0000 0.63720  0.40540  0.15870  Biso   1.000  H
  C80      1.0000 0.63606  0.45544  0.22691  Biso   1.000  C
  H86      1.0000 0.66930  0.45640  0.24750  Biso   1.000  H
  C81      1.0000 0.60694  0.48478  0.24993  Biso   1.000  C
  C82      1.0000 0.55899  0.48135  0.21724  Biso   1.000  C
  H87      1.0000 0.53760  0.50130  0.23100  Biso   1.000  H
  C83      1.0000 0.54202  0.44928  0.16490  Biso   1.000  C
  H88      1.0000 0.50890  0.44720  0.14370  Biso   1.000  H
  C84      1.0000 0.73670  0.34330  0.51929  Biso   1.000  C
  H89      1.0000 0.76850  0.32750  0.53700  Biso   1.000  H
  C85      1.0000 0.72563  0.39920  0.48086  Biso   1.000  C
  H90      1.0000 0.74950  0.42070  0.47200  Biso   1.000  H
  C86      1.0000 0.68009  0.42409  0.45531  Biso   1.000  C
  C87      1.0000 0.64665  0.39050  0.46967  Biso   1.000  C
  H91      1.0000 0.61480  0.40610  0.45310  Biso   1.000  H
  C88      1.0000 0.66022  0.33445  0.50816  Biso   1.000  C
  H92      1.0000 0.63700  0.31190  0.51770  Biso   1.000  H
  C89      1.0000 0.62642  0.51582  0.30859  Biso   1.000  C
  H93      1.0000 0.60170  0.54430  0.31410  Biso   1.000  H
  H94      1.0000 0.65290  0.54900  0.31360  Biso   1.000  H
  C90      1.0000 0.64381  0.45451  0.35281  Biso   1.000  C
  H95      1.0000 0.61700  0.42250  0.34870  Biso   1.000  H
  H96      1.0000 0.66750  0.42480  0.34620  Biso   1.000  H
  C91      1.0000 0.66559  0.48533  0.41268  Biso   1.000  C
  H97      1.0000 0.69350  0.51520  0.41760  Biso   1.000  H
  H98      1.0000 0.64240  0.51700  0.41890  Biso   1.000  H
  C92      1.0000 0.81174  0.18740  0.66883  Biso   1.000  C
  H99      1.0000 0.82330  0.21110  0.64470  Biso   1.000  H
  C93      1.0000 0.84349  0.15890  0.71965  Biso   1.000  C
  H100     1.0000 0.87630  0.16370  0.72960  Biso   1.000  H
  C94      1.0000 0.82850  0.12402  0.75569  Biso   1.000  C
  C95      1.0000 0.78033  0.11701  0.73846  Biso   1.000  C
  H101     1.0000 0.76800  0.09150  0.76120  Biso   1.000  H
  C96      1.0000 0.75032  0.14750  0.68784  Biso   1.000  C
  H102     1.0000 0.71740  0.14350  0.67730  Biso   1.000  H
  C97      1.0000 0.03409  0.24940  0.98198  Biso   1.000  C
  H103     1.0000 0.06490  0.25560  0.98370  Biso   1.000  H
  C98      1.0000 0.00506  0.19728  0.94563  Biso   1.000  C
  H104     1.0000 0.01590  0.16920  0.92270  Biso   1.000  H
  C99      1.0000 0.96037  0.18645  0.94292  Biso   1.000  C
  C100     1.0000 0.94625  0.23031  0.97637  Biso   1.000  C
  H105     1.0000 0.91560  0.22510  0.97550  Biso   1.000  H
  C101     1.0000 0.97678  0.28160  0.01096  Biso   1.000  C
  H106     1.0000 0.96620  0.31140  0.03320  Biso   1.000  H
  C102     1.0000 0.86294  0.09702  0.81226  Biso   1.000  C
  H107     1.0000 0.88370  0.06010  0.80670  Biso   1.000  H
  H108     1.0000 0.84540  0.07330  0.83190  Biso   1.000  H
  C103     1.0000 0.89310  0.15831  0.84911  Biso   1.000  C
  H109     1.0000 0.87250  0.19470  0.85580  Biso   1.000  H
  H110     1.0000 0.91030  0.18280  0.82940  Biso   1.000  H
  C104     1.0000 0.92837  0.12840  0.90559  Biso   1.000  C
  H111     1.0000 0.91090  0.10530  0.92560  Biso   1.000  H
  H112     1.0000 0.94780  0.09040  0.89850  Biso   1.000  H
  Cu9      1.0000 0.99998  0.51811  0.49999  Biso   1.000  Cu
  Cu10     1.0000 0.06289  0.63566  0.56568  Biso   1.000  Cu
  Cu11     1.0000 0.21437  0.76266  0.08896  Biso   1.000  Cu
  Cu12     1.0000 0.15317  0.88685  0.02745  Biso   1.000  Cu
  Cu13     1.0000 0.98788  0.99250  0.00127  Biso   1.000  Cu
  Cu14     1.0000 0.04581  0.87333  0.06919  Biso   1.000  Cu
  Cu15     1.0000 0.22088  0.73442  0.58870  Biso   1.000  Cu
  Cu16     1.0000 0.16356  0.61891  0.51417  Biso   1.000  Cu
  Cl5      1.0000 0.07634  0.54813  0.49772  Biso   1.000  Cl
  Cl6      1.0000 0.13662  0.79848  0.08829  Biso   1.000  Cl
  Cl7      1.0000 0.06878  0.95322  0.00643  Biso   1.000  Cl
  Cl8      1.0000 0.14343  0.69994  0.58669  Biso   1.000  Cl
  N17      1.0000 0.95417  0.56940  0.43654  Biso   1.000  N
  N18      1.0000 0.69599  0.46098  0.07655  Biso   1.000  N
  N19      1.0000 0.01534  0.44323  0.55635  Biso   1.000  N
  N20      1.0000 0.14004  0.33091  0.94209  Biso   1.000  N
  N21      1.0000 0.07888  0.58716  0.63870  Biso   1.000  N
  N22      1.0000 0.19662  0.68955  0.03050  Biso   1.000  N
  N23      1.0000 0.25981  0.81334  0.15350  Biso   1.000  N
  N24      1.0000 0.50460  0.70029  0.51996  Biso   1.000  N
  N25      1.0000 0.13581  0.84186  0.95327  Biso   1.000  N
  N26      1.0000 0.00678  0.93260  0.55749  Biso   1.000  N
  N27      1.0000 0.94479  0.93924  0.93748  Biso   1.000  N
  N28      1.0000 0.70507  0.04784  0.56569  Biso   1.000  N
  N29      1.0000 0.07001  0.92081  0.14241  Biso   1.000  N
  N30      1.0000 0.20457  0.81021  0.53273  Biso   1.000  N
  N31      1.0000 0.26494  0.68228  0.65304  Biso   1.000  N
  N32      1.0000 0.52052  0.79161  0.01478  Biso   1.000  N
  C105     1.0000 0.96683  0.60572  0.40027  Biso   1.000  C
  H113     1.0000 0.99950  0.61080  0.40930  Biso   1.000  H
  C106     1.0000 0.93541  0.63617  0.35073  Biso   1.000  C
  H114     1.0000 0.94640  0.66170  0.32680  Biso   1.000  H
  C107     1.0000 0.88755  0.62917  0.33625  Biso   1.000  C
  C108     1.0000 0.87435  0.59380  0.37447  Biso   1.000  C
  H115     1.0000 0.84190  0.58950  0.36690  Biso   1.000  H
  C109     1.0000 0.90766  0.56494  0.42306  Biso   1.000  C
  H116     1.0000 0.89750  0.54070  0.44830  Biso   1.000  H
  C110     1.0000 0.74151  0.46290  0.08618  Biso   1.000  C
  H117     1.0000 0.75300  0.42780  0.06820  Biso   1.000  H
  C111     1.0000 0.77277  0.51350  0.12101  Biso   1.000  C
  H118     1.0000 0.80490  0.51220  0.12680  Biso   1.000  H
  C112     1.0000 0.75719  0.56609  0.14745  Biso   1.000  C
  C113     1.0000 0.70997  0.56395  0.13747  Biso   1.000  C
  H119     1.0000 0.69750  0.59890  0.15450  Biso   1.000  H
  C114     1.0000 0.68074  0.51077  0.10254  Biso   1.000  C
  H120     1.0000 0.64860  0.50980  0.09690  Biso   1.000  H
  C115     1.0000 0.85141  0.65674  0.28019  Biso   1.000  C
  H121     1.0000 0.86760  0.68470  0.26090  Biso   1.000  H
  H122     1.0000 0.82920  0.68980  0.28690  Biso   1.000  H
  C116     1.0000 0.82379  0.59355  0.24211  Biso   1.000  C
  H123     1.0000 0.80570  0.56740  0.26000  Biso   1.000  H
  H124     1.0000 0.84590  0.55880  0.23700  Biso   1.000  H
  C117     1.0000 0.78981  0.62383  0.18438  Biso   1.000  C
  H125     1.0000 0.77080  0.66350  0.19030  Biso   1.000  H
  H126     1.0000 0.80840  0.64470  0.16490  Biso   1.000  H
  C118     1.0000 0.05978  0.41656  0.58084  Biso   1.000  C
  H127     1.0000 0.08350  0.43770  0.57150  Biso   1.000  H
  C119     1.0000 0.07174  0.35962  0.61893  Biso   1.000  C
  H128     1.0000 0.10340  0.34330  0.63600  Biso   1.000  H
  C120     1.0000 0.03808  0.32650  0.63236  Biso   1.000  C
  C121     1.0000 0.99290  0.35460  0.60784  Biso   1.000  C
  H129     1.0000 0.96870  0.33430  0.61670  Biso   1.000  H
  C122     1.0000 0.98284  0.41240  0.57022  Biso   1.000  C
  H130     1.0000 0.95160  0.43070  0.55380  Biso   1.000  H
  C123     1.0000 0.16872  0.29920  0.92167  Biso   1.000  C
  H131     1.0000 0.20170  0.30010  0.94390  Biso   1.000  H
  C124     1.0000 0.15196  0.26517  0.86937  Biso   1.000  C
  H132     1.0000 0.17340  0.24380  0.85630  Biso   1.000  H
  C125     1.0000 0.10385  0.26240  0.83618  Biso   1.000  C
  C126     1.0000 0.07464  0.29470  0.85771  Biso   1.000  C
  H133     1.0000 0.04150  0.29420  0.83660  Biso   1.000  H
  C127     1.0000 0.09379  0.32770  0.91007  Biso   1.000  C
  H134     1.0000 0.07300  0.34920  0.92400  Biso   1.000  H
  C128     1.0000 0.05077  0.26468  0.67386  Biso   1.000  C
  H135     1.0000 0.07420  0.23300  0.66840  Biso   1.000  H
  H136     1.0000 0.02240  0.23510  0.66700  Biso   1.000  H
  C129     1.0000 0.07106  0.29313  0.73456  Biso   1.000  C
  H137     1.0000 0.04750  0.32470  0.73990  Biso   1.000  H
  H138     1.0000 0.09930  0.32300  0.74120  Biso   1.000  H
  C130     1.0000 0.08455  0.23101  0.77779  Biso   1.000  C
  H139     1.0000 0.05650  0.20090  0.77160  Biso   1.000  H
  H140     1.0000 0.10850  0.19950  0.77320  Biso   1.000  H
  C131     1.0000 0.12424  0.57560  0.67332  Biso   1.000  C
  H141     1.0000 0.14780  0.59070  0.66120  Biso   1.000  H
  C132     1.0000 0.13847  0.54290  0.72546  Biso   1.000  C
  H142     1.0000 0.17100  0.53610  0.74830  Biso   1.000  H
  C133     1.0000 0.10505  0.51988  0.74450  Biso   1.000  C
  C134     1.0000 0.05836  0.53160  0.70831  Biso   1.000  C
  H143     1.0000 0.03410  0.51640  0.71900  Biso   1.000  H
  C135     1.0000 0.04681  0.56510  0.65680  Biso   1.000  C
  H144     1.0000 0.01450  0.57280  0.63320  Biso   1.000  H
  C136     1.0000 0.22658  0.66210  0.01085  Biso   1.000  C
  H145     1.0000 0.25760  0.68130  0.02490  Biso   1.000  H
  C137     1.0000 0.21476  0.60700  0.97107  Biso   1.000  C
  H146     1.0000 0.23720  0.58990  0.95790  Biso   1.000  H
  C138     1.0000 0.17035  0.57727  0.95077  Biso   1.000  C
  C139     1.0000 0.13898  0.60530  0.97180  Biso   1.000  C
  H147     1.0000 0.10810  0.58590  0.95950  Biso   1.000  H
  C140     1.0000 0.15331  0.66090  0.01037  Biso   1.000  C
  H148     1.0000 0.13130  0.68000  0.02350  Biso   1.000  H
  C141     1.0000 0.11985  0.48764  0.80232  Biso   1.000  C
  H149     1.0000 0.14530  0.45170  0.80910  Biso   1.000  H
  H150     1.0000 0.09280  0.46210  0.80490  Biso   1.000  H
  C142     1.0000 0.13747  0.54792  0.84756  Biso   1.000  C
  H151     1.0000 0.16350  0.57480  0.84360  Biso   1.000  H
  H152     1.0000 0.11150  0.58270  0.84130  Biso   1.000  H
  C143     1.0000 0.15482  0.51720  0.90733  Biso   1.000  C
  H153     1.0000 0.12920  0.48900  0.91110  Biso   1.000  H
  H154     1.0000 0.18150  0.48380  0.91420  Biso   1.000  H
  C144     1.0000 0.24659  0.84900  0.18919  Biso   1.000  C
  H155     1.0000 0.21390  0.85340  0.17990  Biso   1.000  H
  C145     1.0000 0.27775  0.87980  0.23870  Biso   1.000  C
  H156     1.0000 0.26640  0.90490  0.26260  Biso   1.000  H
  C146     1.0000 0.32577  0.87398  0.25348  Biso   1.000  C
  C147     1.0000 0.33915  0.83958  0.21528  Biso   1.000  C
  H157     1.0000 0.37160  0.83620  0.22290  Biso   1.000  H
  C148     1.0000 0.30616  0.81004  0.16620  Biso   1.000  C
  H158     1.0000 0.31650  0.78670  0.14070  Biso   1.000  H
  C149     1.0000 0.45945  0.70854  0.50964  Biso   1.000  C
  H159     1.0000 0.44630  0.67660  0.52810  Biso   1.000  H
  C150     1.0000 0.43026  0.76049  0.47382  Biso   1.000  C
  H160     1.0000 0.39810  0.76310  0.46790  Biso   1.000  H
  C151     1.0000 0.44807  0.80872  0.44659  Biso   1.000  C
  C152     1.0000 0.49536  0.80082  0.45739  Biso   1.000  C
  H161     1.0000 0.50940  0.83260  0.44000  Biso   1.000  H
  C153     1.0000 0.52209  0.74676  0.49348  Biso   1.000  C
  H162     1.0000 0.55430  0.74230  0.49980  Biso   1.000  H
  C154     1.0000 0.36131  0.90179  0.30891  Biso   1.000  C
  H163     1.0000 0.34540  0.93360  0.32630  Biso   1.000  H
  H164     1.0000 0.38520  0.93130  0.30240  Biso   1.000  H
  C155     1.0000 0.38608  0.83892  0.34972  Biso   1.000  C
  H165     1.0000 0.36210  0.80660  0.35340  Biso   1.000  H
  H166     1.0000 0.40470  0.80990  0.33410  Biso   1.000  H
  C156     1.0000 0.41865  0.86803  0.40790  Biso   1.000  C
  H167     1.0000 0.43980  0.90530  0.40340  Biso   1.000  H
  H168     1.0000 0.39940  0.89170  0.42530  Biso   1.000  H
  C157     1.0000 0.16720  0.81582  0.93527  Biso   1.000  C
  H169     1.0000 0.19970  0.82050  0.95920  Biso   1.000  H
  C158     1.0000 0.15472  0.78216  0.88326  Biso   1.000  C
  H170     1.0000 0.17840  0.76380  0.87260  Biso   1.000  H
  C159     1.0000 0.10736  0.77545  0.84675  Biso   1.000  C
  C160     1.0000 0.07500  0.80374  0.86477  Biso   1.000  C
  H171     1.0000 0.04230  0.80180  0.84090  Biso   1.000  H
  C161     1.0000 0.09007  0.83498  0.91773  Biso   1.000  C
  H172     1.0000 0.06690  0.85250  0.92960  Biso   1.000  H
  C162     1.0000 0.05000  0.90193  0.57492  Biso   1.000  C
  H173     1.0000 0.07080  0.91850  0.55900  Biso   1.000  H
  C163     1.0000 0.06481  0.84790  0.61464  Biso   1.000  C
  H174     1.0000 0.09560  0.82830  0.62590  Biso   1.000  H
  C164     1.0000 0.03594  0.82160  0.63853  Biso   1.000  C
  C165     1.0000 0.99115  0.85207  0.62060  Biso   1.000  C
  H175     1.0000 0.96990  0.83600  0.63600  Biso   1.000  H
  C166     1.0000 0.97794  0.90651  0.57976  Biso   1.000  C
  H176     1.0000 0.94710  0.92610  0.56710  Biso   1.000  H
  C167     1.0000 0.05226  0.76396  0.68343  Biso   1.000  C
  H177     1.0000 0.07660  0.73350  0.67880  Biso   1.000  H
  H178     1.0000 0.02540  0.73220  0.67950  Biso   1.000  H
  C168     1.0000 0.07278  0.79907  0.74275  Biso   1.000  C
  H179     1.0000 0.09850  0.83290  0.74580  Biso   1.000  H
  H180     1.0000 0.04790  0.82760  0.74790  Biso   1.000  H
  C169     1.0000 0.09187  0.74179  0.78915  Biso   1.000  C
  H181     1.0000 0.06710  0.70510  0.78380  Biso   1.000  H
  H182     1.0000 0.11890  0.71660  0.78640  Biso   1.000  H
  C170     1.0000 0.96033  0.90201  0.90405  Biso   1.000  C
  H183     1.0000 0.99340  0.89670  0.91600  Biso   1.000  H
  C171     1.0000 0.93091  0.87092  0.85319  Biso   1.000  C
  H184     1.0000 0.94370  0.84490  0.83120  Biso   1.000  H
  C172     1.0000 0.88253  0.87830  0.83474  Biso   1.000  C
  C173     1.0000 0.86651  0.91487  0.86991  Biso   1.000  C
  H185     1.0000 0.83360  0.91970  0.85940  Biso   1.000  H
  C174     1.0000 0.89774  0.94439  0.91998  Biso   1.000  C
  H186     1.0000 0.88560  0.96940  0.94310  Biso   1.000  H
  C175     1.0000 0.74933  0.03670  0.57297  Biso   1.000  C
  H187     1.0000 0.76170  0.06590  0.55210  Biso   1.000  H
  C176     1.0000 0.77882  0.98440  0.60980  Biso   1.000  C
  H188     1.0000 0.81030  0.97890  0.61370  Biso   1.000  H
  C177     1.0000 0.76169  0.94120  0.64011  Biso   1.000  C
  C178     1.0000 0.71619  0.95330  0.63312  Biso   1.000  C
  H189     1.0000 0.70310  0.92560  0.65390  Biso   1.000  H
  C179     1.0000 0.68913  0.00660  0.59526  Biso   1.000  C
  H190     1.0000 0.65750  0.01330  0.59070  Biso   1.000  H
  C180     1.0000 0.79104  0.88250  0.67953  Biso   1.000  C
  H191     1.0000 0.81060  0.85850  0.66260  Biso   1.000  H
  H192     1.0000 0.76990  0.84530  0.68400  Biso   1.000  H
  C181     1.0000 0.82326  0.91230  0.73778  Biso   1.000  C
  H193     1.0000 0.80420  0.93990  0.75370  Biso   1.000  H
  H194     1.0000 0.84660  0.94600  0.73400  Biso   1.000  H
  C182     1.0000 0.84904  0.84982  0.77781  Biso   1.000  C
  H195     1.0000 0.82570  0.81730  0.78270  Biso   1.000  H
  H196     1.0000 0.86690  0.82100  0.76100  Biso   1.000  H
  C183     1.0000 0.11652  0.92479  0.17384  Biso   1.000  C
  H197     1.0000 0.13720  0.90540  0.15870  Biso   1.000  H
  C184     1.0000 0.13606  0.95544  0.22691  Biso   1.000  C
  H198     1.0000 0.16930  0.95640  0.24750  Biso   1.000  H
  C185     1.0000 0.10694  0.98478  0.24993  Biso   1.000  C
  C186     1.0000 0.05899  0.98135  0.21724  Biso   1.000  C
  H199     1.0000 0.03760  0.00130  0.23100  Biso   1.000  H
  C187     1.0000 0.04202  0.94928  0.16490  Biso   1.000  C
  H200     1.0000 0.00890  0.94720  0.14370  Biso   1.000  H
  C188     1.0000 0.23670  0.84330  0.51929  Biso   1.000  C
  H201     1.0000 0.26850  0.82750  0.53700  Biso   1.000  H
  C189     1.0000 0.22563  0.89920  0.48086  Biso   1.000  C
  H202     1.0000 0.24950  0.92070  0.47200  Biso   1.000  H
  C190     1.0000 0.18009  0.92409  0.45531  Biso   1.000  C
  C191     1.0000 0.14665  0.89050  0.46967  Biso   1.000  C
  H203     1.0000 0.11480  0.90610  0.45310  Biso   1.000  H
  C192     1.0000 0.16022  0.83445  0.50816  Biso   1.000  C
  H204     1.0000 0.13700  0.81190  0.51770  Biso   1.000  H
  C193     1.0000 0.12642  0.01582  0.30859  Biso   1.000  C
  H205     1.0000 0.10170  0.04430  0.31410  Biso   1.000  H
  H206     1.0000 0.15290  0.04900  0.31360  Biso   1.000  H
  C194     1.0000 0.14381  0.95451  0.35281  Biso   1.000  C
  H207     1.0000 0.11700  0.92250  0.34870  Biso   1.000  H
  H208     1.0000 0.16750  0.92480  0.34620  Biso   1.000  H
  C195     1.0000 0.16559  0.98533  0.41268  Biso   1.000  C
  H209     1.0000 0.19350  0.01520  0.41760  Biso   1.000  H
  H210     1.0000 0.14240  0.01700  0.41890  Biso   1.000  H
  C196     1.0000 0.31174  0.68740  0.66883  Biso   1.000  C
  H211     1.0000 0.32330  0.71110  0.64470  Biso   1.000  H
  C197     1.0000 0.34349  0.65890  0.71965  Biso   1.000  C
  H212     1.0000 0.37630  0.66370  0.72960  Biso   1.000  H
  C198     1.0000 0.32850  0.62402  0.75569  Biso   1.000  C
  C199     1.0000 0.28033  0.61701  0.73846  Biso   1.000  C
  H213     1.0000 0.26800  0.59150  0.76120  Biso   1.000  H
  C200     1.0000 0.25032  0.64750  0.68784  Biso   1.000  C
  H214     1.0000 0.21740  0.64350  0.67730  Biso   1.000  H
  C201     1.0000 0.53409  0.74940  0.98198  Biso   1.000  C
  H215     1.0000 0.56490  0.75560  0.98370  Biso   1.000  H
  C202     1.0000 0.50506  0.69728  0.94563  Biso   1.000  C
  H216     1.0000 0.51590  0.66920  0.92270  Biso   1.000  H
  C203     1.0000 0.46037  0.68645  0.94292  Biso   1.000  C
  C204     1.0000 0.44625  0.73031  0.97637  Biso   1.000  C
  H217     1.0000 0.41560  0.72510  0.97550  Biso   1.000  H
  C205     1.0000 0.47678  0.78160  0.01096  Biso   1.000  C
  H218     1.0000 0.46620  0.81140  0.03320  Biso   1.000  H
  C206     1.0000 0.36294  0.59702  0.81226  Biso   1.000  C
  H219     1.0000 0.38370  0.56010  0.80670  Biso   1.000  H
  H220     1.0000 0.34540  0.57330  0.83190  Biso   1.000  H
  C207     1.0000 0.39310  0.65831  0.84911  Biso   1.000  C
  H221     1.0000 0.37250  0.69470  0.85580  Biso   1.000  H
  H222     1.0000 0.41030  0.68280  0.82940  Biso   1.000  H
  C208     1.0000 0.42837  0.62840  0.90559  Biso   1.000  C
  H223     1.0000 0.41090  0.60530  0.92560  Biso   1.000  H
  H224     1.0000 0.44780  0.59040  0.89850  Biso   1.000  H
  Cu17     1.0000 0.49998  0.98189  0.99999  Biso   1.000  Cu
  Cu18     1.0000 0.56289  0.86434  0.06568  Biso   1.000  Cu
  Cu19     1.0000 0.71437  0.73734  0.58896  Biso   1.000  Cu
  Cu20     1.0000 0.65317  0.61315  0.52745  Biso   1.000  Cu
  Cu21     1.0000 0.48788  0.50750  0.50127  Biso   1.000  Cu
  Cu22     1.0000 0.54581  0.62667  0.56919  Biso   1.000  Cu
  Cu23     1.0000 0.72088  0.76558  0.08870  Biso   1.000  Cu
  Cu24     1.0000 0.66356  0.88109  0.01417  Biso   1.000  Cu
  Cl9      1.0000 0.57634  0.95187  0.99772  Biso   1.000  Cl
  Cl10     1.0000 0.63662  0.70152  0.58829  Biso   1.000  Cl
  Cl11     1.0000 0.56878  0.54678  0.50643  Biso   1.000  Cl
  Cl12     1.0000 0.64343  0.80006  0.08669  Biso   1.000  Cl
  N33      1.0000 0.45417  0.93060  0.93654  Biso   1.000  N
  N34      1.0000 0.19599  0.03902  0.57655  Biso   1.000  N
  N35      1.0000 0.51534  0.05677  0.05635  Biso   1.000  N
  N36      1.0000 0.64004  0.16909  0.44209  Biso   1.000  N
  N37      1.0000 0.57888  0.91284  0.13870  Biso   1.000  N
  N38      1.0000 0.69662  0.81045  0.53050  Biso   1.000  N
  N39      1.0000 0.75981  0.68666  0.65350  Biso   1.000  N
  N40      1.0000 0.00460  0.79971  0.01996  Biso   1.000  N
  N41      1.0000 0.63581  0.65814  0.45327  Biso   1.000  N
  N42      1.0000 0.50678  0.56740  0.05749  Biso   1.000  N
  N43      1.0000 0.44479  0.56076  0.43748  Biso   1.000  N
  N44      1.0000 0.20507  0.45216  0.06569  Biso   1.000  N
  N45      1.0000 0.57001  0.57919  0.64241  Biso   1.000  N
  N46      1.0000 0.70457  0.68979  0.03273  Biso   1.000  N
  N47      1.0000 0.76494  0.81772  0.15304  Biso   1.000  N
  N48      1.0000 0.02052  0.70839  0.51478  Biso   1.000  N
  C209     1.0000 0.46683  0.89428  0.90027  Biso   1.000  C
  H225     1.0000 0.49950  0.88920  0.90930  Biso   1.000  H
  C210     1.0000 0.43541  0.86383  0.85073  Biso   1.000  C
  H226     1.0000 0.44640  0.83830  0.82680  Biso   1.000  H
  C211     1.0000 0.38755  0.87083  0.83625  Biso   1.000  C
  C212     1.0000 0.37435  0.90620  0.87447  Biso   1.000  C
  H227     1.0000 0.34190  0.91050  0.86690  Biso   1.000  H
  C213     1.0000 0.40766  0.93506  0.92306  Biso   1.000  C
  H228     1.0000 0.39750  0.95930  0.94830  Biso   1.000  H
  C214     1.0000 0.24151  0.03710  0.58618  Biso   1.000  C
  H229     1.0000 0.25300  0.07220  0.56820  Biso   1.000  H
  C215     1.0000 0.27277  0.98650  0.62101  Biso   1.000  C
  H230     1.0000 0.30490  0.98780  0.62680  Biso   1.000  H
  C216     1.0000 0.25719  0.93391  0.64745  Biso   1.000  C
  C217     1.0000 0.20997  0.93605  0.63747  Biso   1.000  C
  H231     1.0000 0.19750  0.90110  0.65450  Biso   1.000  H
  C218     1.0000 0.18074  0.98923  0.60254  Biso   1.000  C
  H232     1.0000 0.14860  0.99020  0.59690  Biso   1.000  H
  C219     1.0000 0.35141  0.84326  0.78019  Biso   1.000  C
  H233     1.0000 0.36760  0.81530  0.76090  Biso   1.000  H
  H234     1.0000 0.32920  0.81020  0.78690  Biso   1.000  H
  C220     1.0000 0.32379  0.90645  0.74211  Biso   1.000  C
  H235     1.0000 0.30570  0.93260  0.76000  Biso   1.000  H
  H236     1.0000 0.34590  0.94120  0.73700  Biso   1.000  H
  C221     1.0000 0.28981  0.87617  0.68438  Biso   1.000  C
  H237     1.0000 0.27080  0.83650  0.69030  Biso   1.000  H
  H238     1.0000 0.30840  0.85530  0.66490  Biso   1.000  H
  C222     1.0000 0.55978  0.08344  0.08084  Biso   1.000  C
  H239     1.0000 0.58350  0.06230  0.07150  Biso   1.000  H
  C223     1.0000 0.57174  0.14038  0.11893  Biso   1.000  C
  H240     1.0000 0.60340  0.15670  0.13600  Biso   1.000  H
  C224     1.0000 0.53808  0.17350  0.13236  Biso   1.000  C
  C225     1.0000 0.49290  0.14540  0.10784  Biso   1.000  C
  H241     1.0000 0.46870  0.16570  0.11670  Biso   1.000  H
  C226     1.0000 0.48284  0.08760  0.07022  Biso   1.000  C
  H242     1.0000 0.45160  0.06930  0.05380  Biso   1.000  H
  C227     1.0000 0.66872  0.20080  0.42167  Biso   1.000  C
  H243     1.0000 0.70170  0.19990  0.44390  Biso   1.000  H
  C228     1.0000 0.65196  0.23483  0.36937  Biso   1.000  C
  H244     1.0000 0.67340  0.25620  0.35630  Biso   1.000  H
  C229     1.0000 0.60385  0.23760  0.33618  Biso   1.000  C
  C230     1.0000 0.57464  0.20530  0.35771  Biso   1.000  C
  H245     1.0000 0.54150  0.20580  0.33660  Biso   1.000  H
  C231     1.0000 0.59379  0.17230  0.41007  Biso   1.000  C
  H246     1.0000 0.57300  0.15080  0.42400  Biso   1.000  H
  C232     1.0000 0.55077  0.23532  0.17386  Biso   1.000  C
  H247     1.0000 0.57420  0.26700  0.16840  Biso   1.000  H
  H248     1.0000 0.52240  0.26490  0.16700  Biso   1.000  H
  C233     1.0000 0.57106  0.20687  0.23456  Biso   1.000  C
  H249     1.0000 0.54750  0.17530  0.23990  Biso   1.000  H
  H250     1.0000 0.59930  0.17700  0.24120  Biso   1.000  H
  C234     1.0000 0.58455  0.26899  0.27779  Biso   1.000  C
  H251     1.0000 0.55650  0.29910  0.27160  Biso   1.000  H
  H252     1.0000 0.60850  0.30050  0.27320  Biso   1.000  H
  C235     1.0000 0.62424  0.92440  0.17332  Biso   1.000  C
  H253     1.0000 0.64780  0.90930  0.16120  Biso   1.000  H
  C236     1.0000 0.63847  0.95710  0.22546  Biso   1.000  C
  H254     1.0000 0.67100  0.96390  0.24830  Biso   1.000  H
  C237     1.0000 0.60505  0.98012  0.24450  Biso   1.000  C
  C238     1.0000 0.55836  0.96840  0.20831  Biso   1.000  C
  H255     1.0000 0.53410  0.98360  0.21900  Biso   1.000  H
  C239     1.0000 0.54681  0.93490  0.15680  Biso   1.000  C
  H256     1.0000 0.51450  0.92720  0.13320  Biso   1.000  H
  C240     1.0000 0.72658  0.83790  0.51085  Biso   1.000  C
  H257     1.0000 0.75760  0.81870  0.52490  Biso   1.000  H
  C241     1.0000 0.71476  0.89300  0.47107  Biso   1.000  C
  H258     1.0000 0.73720  0.91010  0.45790  Biso   1.000  H
  C242     1.0000 0.67035  0.92273  0.45077  Biso   1.000  C
  C243     1.0000 0.63898  0.89470  0.47180  Biso   1.000  C
  H259     1.0000 0.60810  0.91410  0.45950  Biso   1.000  H
  C244     1.0000 0.65331  0.83910  0.51037  Biso   1.000  C
  H260     1.0000 0.63130  0.82000  0.52350  Biso   1.000  H
  C245     1.0000 0.61985  0.01236  0.30232  Biso   1.000  C
  H261     1.0000 0.64530  0.04830  0.30910  Biso   1.000  H
  H262     1.0000 0.59280  0.03790  0.30490  Biso   1.000  H
  C246     1.0000 0.63747  0.95208  0.34756  Biso   1.000  C
  H263     1.0000 0.66350  0.92520  0.34360  Biso   1.000  H
  H264     1.0000 0.61150  0.91730  0.34130  Biso   1.000  H
  C247     1.0000 0.65482  0.98280  0.40733  Biso   1.000  C
  H265     1.0000 0.62920  0.01100  0.41110  Biso   1.000  H
  H266     1.0000 0.68150  0.01620  0.41420  Biso   1.000  H
  C248     1.0000 0.74659  0.65100  0.68919  Biso   1.000  C
  H267     1.0000 0.71390  0.64660  0.67990  Biso   1.000  H
  C249     1.0000 0.77775  0.62020  0.73870  Biso   1.000  C
  H268     1.0000 0.76640  0.59510  0.76260  Biso   1.000  H
  C250     1.0000 0.82577  0.62602  0.75348  Biso   1.000  C
  C251     1.0000 0.83915  0.66042  0.71528  Biso   1.000  C
  H269     1.0000 0.87160  0.66380  0.72290  Biso   1.000  H
  C252     1.0000 0.80616  0.68996  0.66620  Biso   1.000  C
  H270     1.0000 0.81650  0.71330  0.64070  Biso   1.000  H
  C253     1.0000 0.95945  0.79146  0.00964  Biso   1.000  C
  H271     1.0000 0.94630  0.82340  0.02810  Biso   1.000  H
  C254     1.0000 0.93026  0.73951  0.97382  Biso   1.000  C
  H272     1.0000 0.89810  0.73690  0.96790  Biso   1.000  H
  C255     1.0000 0.94807  0.69128  0.94659  Biso   1.000  C
  C256     1.0000 0.99536  0.69918  0.95739  Biso   1.000  C
  H273     1.0000 0.00940  0.66740  0.94000  Biso   1.000  H
  C257     1.0000 0.02209  0.75324  0.99348  Biso   1.000  C
  H274     1.0000 0.05430  0.75770  0.99980  Biso   1.000  H
  C258     1.0000 0.86131  0.59821  0.80891  Biso   1.000  C
  H275     1.0000 0.84540  0.56640  0.82630  Biso   1.000  H
  H276     1.0000 0.88520  0.56870  0.80240  Biso   1.000  H
  C259     1.0000 0.88608  0.66108  0.84972  Biso   1.000  C
  H277     1.0000 0.86210  0.69340  0.85340  Biso   1.000  H
  H278     1.0000 0.90470  0.69010  0.83410  Biso   1.000  H
  C260     1.0000 0.91865  0.63197  0.90790  Biso   1.000  C
  H279     1.0000 0.93980  0.59470  0.90340  Biso   1.000  H
  H280     1.0000 0.89940  0.60830  0.92530  Biso   1.000  H
  C261     1.0000 0.66720  0.68418  0.43527  Biso   1.000  C
  H281     1.0000 0.69970  0.67950  0.45920  Biso   1.000  H
  C262     1.0000 0.65472  0.71784  0.38326  Biso   1.000  C
  H282     1.0000 0.67840  0.73620  0.37260  Biso   1.000  H
  C263     1.0000 0.60736  0.72455  0.34675  Biso   1.000  C
  C264     1.0000 0.57500  0.69626  0.36477  Biso   1.000  C
  H283     1.0000 0.54230  0.69820  0.34090  Biso   1.000  H
  C265     1.0000 0.59007  0.66502  0.41773  Biso   1.000  C
  H284     1.0000 0.56690  0.64750  0.42960  Biso   1.000  H
  C266     1.0000 0.55000  0.59807  0.07492  Biso   1.000  C
  H285     1.0000 0.57080  0.58150  0.05900  Biso   1.000  H
  C267     1.0000 0.56481  0.65210  0.11464  Biso   1.000  C
  H286     1.0000 0.59560  0.67170  0.12590  Biso   1.000  H
  C268     1.0000 0.53594  0.67840  0.13853  Biso   1.000  C
  C269     1.0000 0.49115  0.64793  0.12060  Biso   1.000  C
  H287     1.0000 0.46990  0.66400  0.13600  Biso   1.000  H
  C270     1.0000 0.47794  0.59349  0.07976  Biso   1.000  C
  H288     1.0000 0.44710  0.57390  0.06710  Biso   1.000  H
  C271     1.0000 0.55226  0.73604  0.18343  Biso   1.000  C
  H289     1.0000 0.57660  0.76650  0.17880  Biso   1.000  H
  H290     1.0000 0.52540  0.76780  0.17950  Biso   1.000  H
  C272     1.0000 0.57278  0.70093  0.24275  Biso   1.000  C
  H291     1.0000 0.59850  0.66710  0.24580  Biso   1.000  H
  H292     1.0000 0.54790  0.67240  0.24790  Biso   1.000  H
  C273     1.0000 0.59187  0.75821  0.28915  Biso   1.000  C
  H293     1.0000 0.56710  0.79490  0.28380  Biso   1.000  H
  H294     1.0000 0.61890  0.78340  0.28640  Biso   1.000  H
  C274     1.0000 0.46033  0.59799  0.40405  Biso   1.000  C
  H295     1.0000 0.49340  0.60330  0.41600  Biso   1.000  H
  C275     1.0000 0.43091  0.62908  0.35319  Biso   1.000  C
  H296     1.0000 0.44370  0.65510  0.33120  Biso   1.000  H
  C276     1.0000 0.38253  0.62170  0.33474  Biso   1.000  C
  C277     1.0000 0.36651  0.58513  0.36991  Biso   1.000  C
  H297     1.0000 0.33360  0.58030  0.35940  Biso   1.000  H
  C278     1.0000 0.39774  0.55561  0.41998  Biso   1.000  C
  H298     1.0000 0.38560  0.53060  0.44310  Biso   1.000  H
  C279     1.0000 0.24933  0.46330  0.07297  Biso   1.000  C
  H299     1.0000 0.26170  0.43410  0.05210  Biso   1.000  H
  C280     1.0000 0.27882  0.51560  0.10980  Biso   1.000  C
  H300     1.0000 0.31030  0.52110  0.11370  Biso   1.000  H
  C281     1.0000 0.26169  0.55880  0.14011  Biso   1.000  C
  C282     1.0000 0.21619  0.54670  0.13312  Biso   1.000  C
  H301     1.0000 0.20310  0.57440  0.15390  Biso   1.000  H
  C283     1.0000 0.18913  0.49340  0.09526  Biso   1.000  C
  H302     1.0000 0.15750  0.48670  0.09070  Biso   1.000  H
  C284     1.0000 0.29104  0.61750  0.17953  Biso   1.000  C
  H303     1.0000 0.31060  0.64150  0.16260  Biso   1.000  H
  H304     1.0000 0.26990  0.65470  0.18400  Biso   1.000  H
  C285     1.0000 0.32326  0.58770  0.23778  Biso   1.000  C
  H305     1.0000 0.30420  0.56010  0.25370  Biso   1.000  H
  H306     1.0000 0.34660  0.55400  0.23400  Biso   1.000  H
  C286     1.0000 0.34904  0.65018  0.27781  Biso   1.000  C
  H307     1.0000 0.32570  0.68270  0.28270  Biso   1.000  H
  H308     1.0000 0.36690  0.67900  0.26100  Biso   1.000  H
  C287     1.0000 0.61652  0.57521  0.67384  Biso   1.000  C
  H309     1.0000 0.63720  0.59460  0.65870  Biso   1.000  H
  C288     1.0000 0.63606  0.54456  0.72691  Biso   1.000  C
  H310     1.0000 0.66930  0.54360  0.74750  Biso   1.000  H
  C289     1.0000 0.60694  0.51522  0.74993  Biso   1.000  C
  C290     1.0000 0.55899  0.51865  0.71724  Biso   1.000  C
  H311     1.0000 0.53760  0.49870  0.73100  Biso   1.000  H
  C291     1.0000 0.54202  0.55072  0.66490  Biso   1.000  C
  H312     1.0000 0.50890  0.55280  0.64370  Biso   1.000  H
  C292     1.0000 0.73670  0.65670  0.01929  Biso   1.000  C
  H313     1.0000 0.76850  0.67250  0.03700  Biso   1.000  H
  C293     1.0000 0.72563  0.60080  0.98086  Biso   1.000  C
  H314     1.0000 0.74950  0.57930  0.97200  Biso   1.000  H
  C294     1.0000 0.68009  0.57591  0.95531  Biso   1.000  C
  C295     1.0000 0.64665  0.60950  0.96967  Biso   1.000  C
  H315     1.0000 0.61480  0.59390  0.95310  Biso   1.000  H
  C296     1.0000 0.66022  0.66555  0.00816  Biso   1.000  C
  H316     1.0000 0.63700  0.68810  0.01770  Biso   1.000  H
  C297     1.0000 0.62642  0.48418  0.80859  Biso   1.000  C
  H317     1.0000 0.60170  0.45570  0.81410  Biso   1.000  H
  H318     1.0000 0.65290  0.45100  0.81360  Biso   1.000  H
  C298     1.0000 0.64381  0.54549  0.85281  Biso   1.000  C
  H319     1.0000 0.61700  0.57750  0.84870  Biso   1.000  H
  H320     1.0000 0.66750  0.57520  0.84620  Biso   1.000  H
  C299     1.0000 0.66559  0.51467  0.91268  Biso   1.000  C
  H321     1.0000 0.69350  0.48480  0.91760  Biso   1.000  H
  H322     1.0000 0.64240  0.48300  0.91890  Biso   1.000  H
  C300     1.0000 0.81174  0.81260  0.16883  Biso   1.000  C
  H323     1.0000 0.82330  0.78890  0.14470  Biso   1.000  H
  C301     1.0000 0.84349  0.84110  0.21965  Biso   1.000  C
  H324     1.0000 0.87630  0.83630  0.22960  Biso   1.000  H
  C302     1.0000 0.82850  0.87598  0.25569  Biso   1.000  C
  C303     1.0000 0.78033  0.88299  0.23846  Biso   1.000  C
  H325     1.0000 0.76800  0.90850  0.26120  Biso   1.000  H
  C304     1.0000 0.75032  0.85250  0.18784  Biso   1.000  C
  H326     1.0000 0.71740  0.85650  0.17730  Biso   1.000  H
  C305     1.0000 0.03409  0.75060  0.48198  Biso   1.000  C
  H327     1.0000 0.06490  0.74440  0.48370  Biso   1.000  H
  C306     1.0000 0.00506  0.80272  0.44563  Biso   1.000  C
  H328     1.0000 0.01590  0.83080  0.42270  Biso   1.000  H
  C307     1.0000 0.96037  0.81355  0.44292  Biso   1.000  C
  C308     1.0000 0.94625  0.76969  0.47637  Biso   1.000  C
  H329     1.0000 0.91560  0.77490  0.47550  Biso   1.000  H
  C309     1.0000 0.97678  0.71840  0.51096  Biso   1.000  C
  H330     1.0000 0.96620  0.68860  0.53320  Biso   1.000  H
  C310     1.0000 0.86294  0.90298  0.31226  Biso   1.000  C
  H331     1.0000 0.88370  0.93990  0.30670  Biso   1.000  H
  H332     1.0000 0.84540  0.92670  0.33190  Biso   1.000  H
  C311     1.0000 0.89310  0.84169  0.34911  Biso   1.000  C
  H333     1.0000 0.87250  0.80530  0.35580  Biso   1.000  H
  H334     1.0000 0.91030  0.81720  0.32940  Biso   1.000  H
  C312     1.0000 0.92837  0.87160  0.40559  Biso   1.000  C
  H335     1.0000 0.91090  0.89470  0.42560  Biso   1.000  H
  H336     1.0000 0.94780  0.90960  0.39850  Biso   1.000  H
  Cu25     1.0000 0.99998  0.48189  0.99999  Biso   1.000  Cu
  Cu26     1.0000 0.06289  0.36434  0.06568  Biso   1.000  Cu
  Cu27     1.0000 0.21437  0.23734  0.58896  Biso   1.000  Cu
  Cu28     1.0000 0.15317  0.11315  0.52745  Biso   1.000  Cu
  Cu29     1.0000 0.98788  0.00750  0.50127  Biso   1.000  Cu
  Cu30     1.0000 0.04581  0.12667  0.56919  Biso   1.000  Cu
  Cu31     1.0000 0.22088  0.26558  0.08870  Biso   1.000  Cu
  Cu32     1.0000 0.16356  0.38109  0.01417  Biso   1.000  Cu
  Cl13     1.0000 0.07634  0.45187  0.99772  Biso   1.000  Cl
  Cl14     1.0000 0.13662  0.20152  0.58829  Biso   1.000  Cl
  Cl15     1.0000 0.06878  0.04678  0.50643  Biso   1.000  Cl
  Cl16     1.0000 0.14343  0.30006  0.08669  Biso   1.000  Cl
  N49      1.0000 0.95417  0.43060  0.93654  Biso   1.000  N
  N50      1.0000 0.69599  0.53902  0.57655  Biso   1.000  N
  N51      1.0000 0.01534  0.55677  0.05635  Biso   1.000  N
  N52      1.0000 0.14004  0.66909  0.44209  Biso   1.000  N
  N53      1.0000 0.07888  0.41284  0.13870  Biso   1.000  N
  N54      1.0000 0.19662  0.31045  0.53050  Biso   1.000  N
  N55      1.0000 0.25981  0.18666  0.65350  Biso   1.000  N
  N56      1.0000 0.50460  0.29971  0.01996  Biso   1.000  N
  N57      1.0000 0.13581  0.15814  0.45327  Biso   1.000  N
  N58      1.0000 0.00678  0.06740  0.05749  Biso   1.000  N
  N59      1.0000 0.94479  0.06076  0.43748  Biso   1.000  N
  N60      1.0000 0.70507  0.95216  0.06569  Biso   1.000  N
  N61      1.0000 0.07001  0.07919  0.64241  Biso   1.000  N
  N62      1.0000 0.20457  0.18979  0.03273  Biso   1.000  N
  N63      1.0000 0.26494  0.31772  0.15304  Biso   1.000  N
  N64      1.0000 0.52052  0.20839  0.51478  Biso   1.000  N
  C313     1.0000 0.96683  0.39428  0.90027  Biso   1.000  C
  H337     1.0000 0.99950  0.38920  0.90930  Biso   1.000  H
  C314     1.0000 0.93541  0.36383  0.85073  Biso   1.000  C
  H338     1.0000 0.94640  0.33830  0.82680  Biso   1.000  H
  C315     1.0000 0.88755  0.37083  0.83625  Biso   1.000  C
  C316     1.0000 0.87435  0.40620  0.87447  Biso   1.000  C
  H339     1.0000 0.84190  0.41050  0.86690  Biso   1.000  H
  C317     1.0000 0.90766  0.43506  0.92306  Biso   1.000  C
  H340     1.0000 0.89750  0.45930  0.94830  Biso   1.000  H
  C318     1.0000 0.74151  0.53710  0.58618  Biso   1.000  C
  H341     1.0000 0.75300  0.57220  0.56820  Biso   1.000  H
  C319     1.0000 0.77277  0.48650  0.62101  Biso   1.000  C
  H342     1.0000 0.80490  0.48780  0.62680  Biso   1.000  H
  C320     1.0000 0.75719  0.43391  0.64745  Biso   1.000  C
  C321     1.0000 0.70997  0.43605  0.63747  Biso   1.000  C
  H343     1.0000 0.69750  0.40110  0.65450  Biso   1.000  H
  C322     1.0000 0.68074  0.48923  0.60254  Biso   1.000  C
  H344     1.0000 0.64860  0.49020  0.59690  Biso   1.000  H
  C323     1.0000 0.85141  0.34326  0.78019  Biso   1.000  C
  H345     1.0000 0.86760  0.31530  0.76090  Biso   1.000  H
  H346     1.0000 0.82920  0.31020  0.78690  Biso   1.000  H
  C324     1.0000 0.82379  0.40645  0.74211  Biso   1.000  C
  H347     1.0000 0.80570  0.43260  0.76000  Biso   1.000  H
  H348     1.0000 0.84590  0.44120  0.73700  Biso   1.000  H
  C325     1.0000 0.78981  0.37617  0.68438  Biso   1.000  C
  H349     1.0000 0.77080  0.33650  0.69030  Biso   1.000  H
  H350     1.0000 0.80840  0.35530  0.66490  Biso   1.000  H
  C326     1.0000 0.05978  0.58344  0.08084  Biso   1.000  C
  H351     1.0000 0.08350  0.56230  0.07150  Biso   1.000  H
  C327     1.0000 0.07174  0.64038  0.11893  Biso   1.000  C
  H352     1.0000 0.10340  0.65670  0.13600  Biso   1.000  H
  C328     1.0000 0.03808  0.67350  0.13236  Biso   1.000  C
  C329     1.0000 0.99290  0.64540  0.10784  Biso   1.000  C
  H353     1.0000 0.96870  0.66570  0.11670  Biso   1.000  H
  C330     1.0000 0.98284  0.58760  0.07022  Biso   1.000  C
  H354     1.0000 0.95160  0.56930  0.05380  Biso   1.000  H
  C331     1.0000 0.16872  0.70080  0.42167  Biso   1.000  C
  H355     1.0000 0.20170  0.69990  0.44390  Biso   1.000  H
  C332     1.0000 0.15196  0.73483  0.36937  Biso   1.000  C
  H356     1.0000 0.17340  0.75620  0.35630  Biso   1.000  H
  C333     1.0000 0.10385  0.73760  0.33618  Biso   1.000  C
  C334     1.0000 0.07464  0.70530  0.35771  Biso   1.000  C
  H357     1.0000 0.04150  0.70580  0.33660  Biso   1.000  H
  C335     1.0000 0.09379  0.67230  0.41007  Biso   1.000  C
  H358     1.0000 0.07300  0.65080  0.42400  Biso   1.000  H
  C336     1.0000 0.05077  0.73532  0.17386  Biso   1.000  C
  H359     1.0000 0.07420  0.76700  0.16840  Biso   1.000  H
  H360     1.0000 0.02240  0.76490  0.16700  Biso   1.000  H
  C337     1.0000 0.07106  0.70687  0.23456  Biso   1.000  C
  H361     1.0000 0.04750  0.67530  0.23990  Biso   1.000  H
  H362     1.0000 0.09930  0.67700  0.24120  Biso   1.000  H
  C338     1.0000 0.08455  0.76899  0.27779  Biso   1.000  C
  H363     1.0000 0.05650  0.79910  0.27160  Biso   1.000  H
  H364     1.0000 0.10850  0.80050  0.27320  Biso   1.000  H
  C339     1.0000 0.12424  0.42440  0.17332  Biso   1.000  C
  H365     1.0000 0.14780  0.40930  0.16120  Biso   1.000  H
  C340     1.0000 0.13847  0.45710  0.22546  Biso   1.000  C
  H366     1.0000 0.17100  0.46390  0.24830  Biso   1.000  H
  C341     1.0000 0.10505  0.48012  0.24450  Biso   1.000  C
  C342     1.0000 0.05836  0.46840  0.20831  Biso   1.000  C
  H367     1.0000 0.03410  0.48360  0.21900  Biso   1.000  H
  C343     1.0000 0.04681  0.43490  0.15680  Biso   1.000  C
  H368     1.0000 0.01450  0.42720  0.13320  Biso   1.000  H
  C344     1.0000 0.22658  0.33790  0.51085  Biso   1.000  C
  H369     1.0000 0.25760  0.31870  0.52490  Biso   1.000  H
  C345     1.0000 0.21476  0.39300  0.47107  Biso   1.000  C
  H370     1.0000 0.23720  0.41010  0.45790  Biso   1.000  H
  C346     1.0000 0.17035  0.42273  0.45077  Biso   1.000  C
  C347     1.0000 0.13898  0.39470  0.47180  Biso   1.000  C
  H371     1.0000 0.10810  0.41410  0.45950  Biso   1.000  H
  C348     1.0000 0.15331  0.33910  0.51037  Biso   1.000  C
  H372     1.0000 0.13130  0.32000  0.52350  Biso   1.000  H
  C349     1.0000 0.11985  0.51236  0.30232  Biso   1.000  C
  H373     1.0000 0.14530  0.54830  0.30910  Biso   1.000  H
  H374     1.0000 0.09280  0.53790  0.30490  Biso   1.000  H
  C350     1.0000 0.13747  0.45208  0.34756  Biso   1.000  C
  H375     1.0000 0.16350  0.42520  0.34360  Biso   1.000  H
  H376     1.0000 0.11150  0.41730  0.34130  Biso   1.000  H
  C351     1.0000 0.15482  0.48280  0.40733  Biso   1.000  C
  H377     1.0000 0.12920  0.51100  0.41110  Biso   1.000  H
  H378     1.0000 0.18150  0.51620  0.41420  Biso   1.000  H
  C352     1.0000 0.24659  0.15100  0.68919  Biso   1.000  C
  H379     1.0000 0.21390  0.14660  0.67990  Biso   1.000  H
  C353     1.0000 0.27775  0.12020  0.73870  Biso   1.000  C
  H380     1.0000 0.26640  0.09510  0.76260  Biso   1.000  H
  C354     1.0000 0.32577  0.12602  0.75348  Biso   1.000  C
  C355     1.0000 0.33915  0.16042  0.71528  Biso   1.000  C
  H381     1.0000 0.37160  0.16380  0.72290  Biso   1.000  H
  C356     1.0000 0.30616  0.18996  0.66620  Biso   1.000  C
  H382     1.0000 0.31650  0.21330  0.64070  Biso   1.000  H
  C357     1.0000 0.45945  0.29146  0.00964  Biso   1.000  C
  H383     1.0000 0.44630  0.32340  0.02810  Biso   1.000  H
  C358     1.0000 0.43026  0.23951  0.97382  Biso   1.000  C
  H384     1.0000 0.39810  0.23690  0.96790  Biso   1.000  H
  C359     1.0000 0.44807  0.19128  0.94659  Biso   1.000  C
  C360     1.0000 0.49536  0.19918  0.95739  Biso   1.000  C
  H385     1.0000 0.50940  0.16740  0.94000  Biso   1.000  H
  C361     1.0000 0.52209  0.25324  0.99348  Biso   1.000  C
  H386     1.0000 0.55430  0.25770  0.99980  Biso   1.000  H
  C362     1.0000 0.36131  0.09821  0.80891  Biso   1.000  C
  H387     1.0000 0.34540  0.06640  0.82630  Biso   1.000  H
  H388     1.0000 0.38520  0.06870  0.80240  Biso   1.000  H
  C363     1.0000 0.38608  0.16108  0.84972  Biso   1.000  C
  H389     1.0000 0.36210  0.19340  0.85340  Biso   1.000  H
  H390     1.0000 0.40470  0.19010  0.83410  Biso   1.000  H
  C364     1.0000 0.41865  0.13197  0.90790  Biso   1.000  C
  H391     1.0000 0.43980  0.09470  0.90340  Biso   1.000  H
  H392     1.0000 0.39940  0.10830  0.92530  Biso   1.000  H
  C365     1.0000 0.16720  0.18418  0.43527  Biso   1.000  C
  H393     1.0000 0.19970  0.17950  0.45920  Biso   1.000  H
  C366     1.0000 0.15472  0.21784  0.38326  Biso   1.000  C
  H394     1.0000 0.17840  0.23620  0.37260  Biso   1.000  H
  C367     1.0000 0.10736  0.22455  0.34675  Biso   1.000  C
  C368     1.0000 0.07500  0.19626  0.36477  Biso   1.000  C
  H395     1.0000 0.04230  0.19820  0.34090  Biso   1.000  H
  C369     1.0000 0.09007  0.16502  0.41773  Biso   1.000  C
  H396     1.0000 0.06690  0.14750  0.42960  Biso   1.000  H
  C370     1.0000 0.05000  0.09807  0.07492  Biso   1.000  C
  H397     1.0000 0.07080  0.08150  0.05900  Biso   1.000  H
  C371     1.0000 0.06481  0.15210  0.11464  Biso   1.000  C
  H398     1.0000 0.09560  0.17170  0.12590  Biso   1.000  H
  C372     1.0000 0.03594  0.17840  0.13853  Biso   1.000  C
  C373     1.0000 0.99115  0.14793  0.12060  Biso   1.000  C
  H399     1.0000 0.96990  0.16400  0.13600  Biso   1.000  H
  C374     1.0000 0.97794  0.09349  0.07976  Biso   1.000  C
  H400     1.0000 0.94710  0.07390  0.06710  Biso   1.000  H
  C375     1.0000 0.05226  0.23604  0.18343  Biso   1.000  C
  H401     1.0000 0.07660  0.26650  0.17880  Biso   1.000  H
  H402     1.0000 0.02540  0.26780  0.17950  Biso   1.000  H
  C376     1.0000 0.07278  0.20093  0.24275  Biso   1.000  C
  H403     1.0000 0.09850  0.16710  0.24580  Biso   1.000  H
  H404     1.0000 0.04790  0.17240  0.24790  Biso   1.000  H
  C377     1.0000 0.09187  0.25821  0.28915  Biso   1.000  C
  H405     1.0000 0.06710  0.29490  0.28380  Biso   1.000  H
  H406     1.0000 0.11890  0.28340  0.28640  Biso   1.000  H
  C378     1.0000 0.96033  0.09799  0.40405  Biso   1.000  C
  H407     1.0000 0.99340  0.10330  0.41600  Biso   1.000  H
  C379     1.0000 0.93091  0.12908  0.35319  Biso   1.000  C
  H408     1.0000 0.94370  0.15510  0.33120  Biso   1.000  H
  C380     1.0000 0.88253  0.12170  0.33474  Biso   1.000  C
  C381     1.0000 0.86651  0.08513  0.36991  Biso   1.000  C
  H409     1.0000 0.83360  0.08030  0.35940  Biso   1.000  H
  C382     1.0000 0.89774  0.05561  0.41998  Biso   1.000  C
  H410     1.0000 0.88560  0.03060  0.44310  Biso   1.000  H
  C383     1.0000 0.74933  0.96330  0.07297  Biso   1.000  C
  H411     1.0000 0.76170  0.93410  0.05210  Biso   1.000  H
  C384     1.0000 0.77882  0.01560  0.10980  Biso   1.000  C
  H412     1.0000 0.81030  0.02110  0.11370  Biso   1.000  H
  C385     1.0000 0.76169  0.05880  0.14011  Biso   1.000  C
  C386     1.0000 0.71619  0.04670  0.13312  Biso   1.000  C
  H413     1.0000 0.70310  0.07440  0.15390  Biso   1.000  H
  C387     1.0000 0.68913  0.99340  0.09526  Biso   1.000  C
  H414     1.0000 0.65750  0.98670  0.09070  Biso   1.000  H
  C388     1.0000 0.79104  0.11750  0.17953  Biso   1.000  C
  H415     1.0000 0.81060  0.14150  0.16260  Biso   1.000  H
  H416     1.0000 0.76990  0.15470  0.18400  Biso   1.000  H
  C389     1.0000 0.82326  0.08770  0.23778  Biso   1.000  C
  H417     1.0000 0.80420  0.06010  0.25370  Biso   1.000  H
  H418     1.0000 0.84660  0.05400  0.23400  Biso   1.000  H
  C390     1.0000 0.84904  0.15018  0.27781  Biso   1.000  C
  H419     1.0000 0.82570  0.18270  0.28270  Biso   1.000  H
  H420     1.0000 0.86690  0.17900  0.26100  Biso   1.000  H
  C391     1.0000 0.11652  0.07521  0.67384  Biso   1.000  C
  H421     1.0000 0.13720  0.09460  0.65870  Biso   1.000  H
  C392     1.0000 0.13606  0.04456  0.72691  Biso   1.000  C
  H422     1.0000 0.16930  0.04360  0.74750  Biso   1.000  H
  C393     1.0000 0.10694  0.01522  0.74993  Biso   1.000  C
  C394     1.0000 0.05899  0.01865  0.71724  Biso   1.000  C
  H423     1.0000 0.03760  0.99870  0.73100  Biso   1.000  H
  C395     1.0000 0.04202  0.05072  0.66490  Biso   1.000  C
  H424     1.0000 0.00890  0.05280  0.64370  Biso   1.000  H
  C396     1.0000 0.23670  0.15670  0.01929  Biso   1.000  C
  H425     1.0000 0.26850  0.17250  0.03700  Biso   1.000  H
  C397     1.0000 0.22563  0.10080  0.98086  Biso   1.000  C
  H426     1.0000 0.24950  0.07930  0.97200  Biso   1.000  H
  C398     1.0000 0.18009  0.07591  0.95531  Biso   1.000  C
  C399     1.0000 0.14665  0.10950  0.96967  Biso   1.000  C
  H427     1.0000 0.11480  0.09390  0.95310  Biso   1.000  H
  C400     1.0000 0.16022  0.16555  0.00816  Biso   1.000  C
  H428     1.0000 0.13700  0.18810  0.01770  Biso   1.000  H
  C401     1.0000 0.12642  0.98418  0.80859  Biso   1.000  C
  H429     1.0000 0.10170  0.95570  0.81410  Biso   1.000  H
  H430     1.0000 0.15290  0.95100  0.81360  Biso   1.000  H
  C402     1.0000 0.14381  0.04549  0.85281  Biso   1.000  C
  H431     1.0000 0.11700  0.07750  0.84870  Biso   1.000  H
  H432     1.0000 0.16750  0.07520  0.84620  Biso   1.000  H
  C403     1.0000 0.16559  0.01467  0.91268  Biso   1.000  C
  H433     1.0000 0.19350  0.98480  0.91760  Biso   1.000  H
  H434     1.0000 0.14240  0.98300  0.91890  Biso   1.000  H
  C404     1.0000 0.31174  0.31260  0.16883  Biso   1.000  C
  H435     1.0000 0.32330  0.28890  0.14470  Biso   1.000  H
  C405     1.0000 0.34349  0.34110  0.21965  Biso   1.000  C
  H436     1.0000 0.37630  0.33630  0.22960  Biso   1.000  H
  C406     1.0000 0.32850  0.37598  0.25569  Biso   1.000  C
  C407     1.0000 0.28033  0.38299  0.23846  Biso   1.000  C
  H437     1.0000 0.26800  0.40850  0.26120  Biso   1.000  H
  C408     1.0000 0.25032  0.35250  0.18784  Biso   1.000  C
  H438     1.0000 0.21740  0.35650  0.17730  Biso   1.000  H
  C409     1.0000 0.53409  0.25060  0.48198  Biso   1.000  C
  H439     1.0000 0.56490  0.24440  0.48370  Biso   1.000  H
  C410     1.0000 0.50506  0.30272  0.44563  Biso   1.000  C
  H440     1.0000 0.51590  0.33080  0.42270  Biso   1.000  H
  C411     1.0000 0.46037  0.31355  0.44292  Biso   1.000  C
  C412     1.0000 0.44625  0.26969  0.47637  Biso   1.000  C
  H441     1.0000 0.41560  0.27490  0.47550  Biso   1.000  H
  C413     1.0000 0.47678  0.21840  0.51096  Biso   1.000  C
  H442     1.0000 0.46620  0.18860  0.53320  Biso   1.000  H
  C414     1.0000 0.36294  0.40298  0.31226  Biso   1.000  C
  H443     1.0000 0.38370  0.43990  0.30670  Biso   1.000  H
  H444     1.0000 0.34540  0.42670  0.33190  Biso   1.000  H
  C415     1.0000 0.39310  0.34169  0.34911  Biso   1.000  C
  H445     1.0000 0.37250  0.30530  0.35580  Biso   1.000  H
  H446     1.0000 0.41030  0.31720  0.32940  Biso   1.000  H
  C416     1.0000 0.42837  0.37160  0.40559  Biso   1.000  C
  H447     1.0000 0.41090  0.39470  0.42560  Biso   1.000  H
  H448     1.0000 0.44780  0.40960  0.39850  Biso   1.000  H
