data_image0
_cell_length_a       23.129
_cell_length_b       39.47
_cell_length_c       40.61
_cell_angle_alpha    90
_cell_angle_beta     90
_cell_angle_gamma    90

_symmetry_space_group_name_H-M    "P 1"
_symmetry_int_tables_number       1

loop_
  _symmetry_equiv_pos_as_xyz
  'x, y, z'

loop_
  _atom_site_label
  _atom_site_occupancy
  _atom_site_fract_x
  _atom_site_fract_y
  _atom_site_fract_z
  _atom_site_thermal_displace_type
  _atom_site_B_iso_or_equiv
  _atom_site_type_symbol
  O1       1.0000 0.62403  0.66489  0.34804  Biso   1.000  O
  O2       1.0000 0.70849  0.64771  0.36414  Biso   1.000  O
  O3       1.0000 0.89711  0.83597  0.18099  Biso   1.000  O
  O4       1.0000 0.81132  0.84323  0.16256  Biso   1.000  O
  C1       1.0000 0.67120  0.71319  0.30564  Biso   1.000  C
  H1       1.0000 0.63140  0.71380  0.30910  Biso   1.000  H
  C2       1.0000 0.69640  0.73519  0.28359  Biso   1.000  C
  H2       1.0000 0.67320  0.75070  0.27260  Biso   1.000  H
  C3       1.0000 0.75510  0.73491  0.27726  Biso   1.000  C
  C4       1.0000 0.78810  0.71128  0.29398  Biso   1.000  C
  H3       1.0000 0.82760  0.70970  0.29000  Biso   1.000  H
  C5       1.0000 0.76270  0.69034  0.31635  Biso   1.000  C
  H4       1.0000 0.78610  0.67530  0.32800  Biso   1.000  H
  C6       1.0000 0.70490  0.69021  0.32261  Biso   1.000  C
  C7       1.0000 0.85910  0.79221  0.23157  Biso   1.000  C
  H5       1.0000 0.89730  0.79920  0.23310  Biso   1.000  H
  C8       1.0000 0.83530  0.76993  0.25446  Biso   1.000  C
  H6       1.0000 0.85850  0.76220  0.27160  Biso   1.000  H
  C9       1.0000 0.77900  0.75881  0.25296  Biso   1.000  C
  C10      1.0000 0.74530  0.77049  0.22680  Biso   1.000  C
  H7       1.0000 0.70740  0.76300  0.22460  Biso   1.000  H
  C11      1.0000 0.76770  0.79327  0.20394  Biso   1.000  C
  H8       1.0000 0.74430  0.80140  0.18710  Biso   1.000  H
  C12      1.0000 0.82320  0.80367  0.20610  Biso   1.000  C
  C13      1.0000 0.67860  0.66596  0.34654  Biso   1.000  C
  C14      1.0000 0.84650  0.82872  0.18262  Biso   1.000  C
  O5       1.0000 0.62403  0.16489  0.84804  Biso   1.000  O
  O6       1.0000 0.70849  0.14771  0.86414  Biso   1.000  O
  O7       1.0000 0.89711  0.33597  0.68099  Biso   1.000  O
  O8       1.0000 0.81132  0.34323  0.66256  Biso   1.000  O
  C15      1.0000 0.67120  0.21319  0.80564  Biso   1.000  C
  H9       1.0000 0.63140  0.21380  0.80910  Biso   1.000  H
  C16      1.0000 0.69640  0.23519  0.78359  Biso   1.000  C
  H10      1.0000 0.67320  0.25070  0.77260  Biso   1.000  H
  C17      1.0000 0.75510  0.23491  0.77726  Biso   1.000  C
  C18      1.0000 0.78810  0.21128  0.79398  Biso   1.000  C
  H11      1.0000 0.82760  0.20970  0.79000  Biso   1.000  H
  C19      1.0000 0.76270  0.19034  0.81635  Biso   1.000  C
  H12      1.0000 0.78610  0.17530  0.82800  Biso   1.000  H
  C20      1.0000 0.70490  0.19021  0.82261  Biso   1.000  C
  C21      1.0000 0.85910  0.29221  0.73157  Biso   1.000  C
  H13      1.0000 0.89730  0.29920  0.73310  Biso   1.000  H
  C22      1.0000 0.83530  0.26993  0.75446  Biso   1.000  C
  H14      1.0000 0.85850  0.26220  0.77160  Biso   1.000  H
  C23      1.0000 0.77900  0.25881  0.75296  Biso   1.000  C
  C24      1.0000 0.74530  0.27049  0.72680  Biso   1.000  C
  H15      1.0000 0.70740  0.26300  0.72460  Biso   1.000  H
  C25      1.0000 0.76770  0.29327  0.70394  Biso   1.000  C
  H16      1.0000 0.74430  0.30140  0.68710  Biso   1.000  H
  C26      1.0000 0.82320  0.30367  0.70610  Biso   1.000  C
  C27      1.0000 0.67860  0.16596  0.84654  Biso   1.000  C
  C28      1.0000 0.84650  0.32872  0.68262  Biso   1.000  C
  O9       1.0000 0.12403  0.66489  0.84804  Biso   1.000  O
  O10      1.0000 0.20849  0.64771  0.86414  Biso   1.000  O
  O11      1.0000 0.39711  0.83597  0.68099  Biso   1.000  O
  O12      1.0000 0.31132  0.84323  0.66256  Biso   1.000  O
  C29      1.0000 0.17120  0.71319  0.80564  Biso   1.000  C
  H17      1.0000 0.13140  0.71380  0.80910  Biso   1.000  H
  C30      1.0000 0.19640  0.73519  0.78359  Biso   1.000  C
  H18      1.0000 0.17320  0.75070  0.77260  Biso   1.000  H
  C31      1.0000 0.25510  0.73491  0.77726  Biso   1.000  C
  C32      1.0000 0.28810  0.71128  0.79398  Biso   1.000  C
  H19      1.0000 0.32760  0.70970  0.79000  Biso   1.000  H
  C33      1.0000 0.26270  0.69034  0.81635  Biso   1.000  C
  H20      1.0000 0.28610  0.67530  0.82800  Biso   1.000  H
  C34      1.0000 0.20490  0.69021  0.82261  Biso   1.000  C
  C35      1.0000 0.35910  0.79221  0.73157  Biso   1.000  C
  H21      1.0000 0.39730  0.79920  0.73310  Biso   1.000  H
  C36      1.0000 0.33530  0.76993  0.75446  Biso   1.000  C
  H22      1.0000 0.35850  0.76220  0.77160  Biso   1.000  H
  C37      1.0000 0.27900  0.75881  0.75296  Biso   1.000  C
  C38      1.0000 0.24530  0.77049  0.72680  Biso   1.000  C
  H23      1.0000 0.20740  0.76300  0.72460  Biso   1.000  H
  C39      1.0000 0.26770  0.79327  0.70394  Biso   1.000  C
  H24      1.0000 0.24430  0.80140  0.68710  Biso   1.000  H
  C40      1.0000 0.32320  0.80367  0.70610  Biso   1.000  C
  C41      1.0000 0.17860  0.66596  0.84654  Biso   1.000  C
  C42      1.0000 0.34650  0.82872  0.68262  Biso   1.000  C
  O13      1.0000 0.12403  0.16489  0.34804  Biso   1.000  O
  O14      1.0000 0.20849  0.14771  0.36414  Biso   1.000  O
  O15      1.0000 0.39711  0.33597  0.18099  Biso   1.000  O
  O16      1.0000 0.31132  0.34323  0.16256  Biso   1.000  O
  C43      1.0000 0.17120  0.21319  0.30564  Biso   1.000  C
  H25      1.0000 0.13140  0.21380  0.30910  Biso   1.000  H
  C44      1.0000 0.19640  0.23519  0.28359  Biso   1.000  C
  H26      1.0000 0.17320  0.25070  0.27260  Biso   1.000  H
  C45      1.0000 0.25510  0.23491  0.27726  Biso   1.000  C
  C46      1.0000 0.28810  0.21128  0.29398  Biso   1.000  C
  H27      1.0000 0.32760  0.20970  0.29000  Biso   1.000  H
  C47      1.0000 0.26270  0.19034  0.31635  Biso   1.000  C
  H28      1.0000 0.28610  0.17530  0.32800  Biso   1.000  H
  C48      1.0000 0.20490  0.19021  0.32261  Biso   1.000  C
  C49      1.0000 0.35910  0.29221  0.23157  Biso   1.000  C
  H29      1.0000 0.39730  0.29920  0.23310  Biso   1.000  H
  C50      1.0000 0.33530  0.26993  0.25446  Biso   1.000  C
  H30      1.0000 0.35850  0.26220  0.27160  Biso   1.000  H
  C51      1.0000 0.27900  0.25881  0.25296  Biso   1.000  C
  C52      1.0000 0.24530  0.27049  0.22680  Biso   1.000  C
  H31      1.0000 0.20740  0.26300  0.22460  Biso   1.000  H
  C53      1.0000 0.26770  0.29327  0.20394  Biso   1.000  C
  H32      1.0000 0.24430  0.30140  0.18710  Biso   1.000  H
  C54      1.0000 0.32320  0.30367  0.20610  Biso   1.000  C
  C55      1.0000 0.17860  0.16596  0.34654  Biso   1.000  C
  C56      1.0000 0.34650  0.32872  0.18262  Biso   1.000  C
  O17      1.0000 0.12597  0.08511  0.34804  Biso   1.000  O
  O18      1.0000 0.04151  0.10229  0.36414  Biso   1.000  O
  O19      1.0000 0.85289  0.91403  0.18099  Biso   1.000  O
  O20      1.0000 0.93868  0.90677  0.16256  Biso   1.000  O
  C57      1.0000 0.07880  0.03681  0.30564  Biso   1.000  C
  H33      1.0000 0.11860  0.03620  0.30910  Biso   1.000  H
  C58      1.0000 0.05360  0.01481  0.28359  Biso   1.000  C
  H34      1.0000 0.07680  0.99930  0.27260  Biso   1.000  H
  C59      1.0000 0.99490  0.01509  0.27726  Biso   1.000  C
  C60      1.0000 0.96190  0.03872  0.29398  Biso   1.000  C
  H35      1.0000 0.92240  0.04030  0.29000  Biso   1.000  H
  C61      1.0000 0.98730  0.05966  0.31635  Biso   1.000  C
  H36      1.0000 0.96390  0.07470  0.32800  Biso   1.000  H
  C62      1.0000 0.04510  0.05979  0.32261  Biso   1.000  C
  C63      1.0000 0.89090  0.95779  0.23157  Biso   1.000  C
  H37      1.0000 0.85270  0.95080  0.23310  Biso   1.000  H
  C64      1.0000 0.91470  0.98007  0.25446  Biso   1.000  C
  H38      1.0000 0.89150  0.98780  0.27160  Biso   1.000  H
  C65      1.0000 0.97100  0.99119  0.25296  Biso   1.000  C
  C66      1.0000 0.00470  0.97951  0.22680  Biso   1.000  C
  H39      1.0000 0.04260  0.98700  0.22460  Biso   1.000  H
  C67      1.0000 0.98230  0.95673  0.20394  Biso   1.000  C
  H40      1.0000 0.00570  0.94860  0.18710  Biso   1.000  H
  C68      1.0000 0.92680  0.94633  0.20610  Biso   1.000  C
  C69      1.0000 0.07140  0.08404  0.34654  Biso   1.000  C
  C70      1.0000 0.90350  0.92128  0.18262  Biso   1.000  C
  O21      1.0000 0.12597  0.58511  0.84804  Biso   1.000  O
  O22      1.0000 0.04151  0.60229  0.86414  Biso   1.000  O
  O23      1.0000 0.85289  0.41403  0.68099  Biso   1.000  O
  O24      1.0000 0.93868  0.40677  0.66256  Biso   1.000  O
  C71      1.0000 0.07880  0.53681  0.80564  Biso   1.000  C
  H41      1.0000 0.11860  0.53620  0.80910  Biso   1.000  H
  C72      1.0000 0.05360  0.51481  0.78359  Biso   1.000  C
  H42      1.0000 0.07680  0.49930  0.77260  Biso   1.000  H
  C73      1.0000 0.99490  0.51509  0.77726  Biso   1.000  C
  C74      1.0000 0.96190  0.53872  0.79398  Biso   1.000  C
  H43      1.0000 0.92240  0.54030  0.79000  Biso   1.000  H
  C75      1.0000 0.98730  0.55966  0.81635  Biso   1.000  C
  H44      1.0000 0.96390  0.57470  0.82800  Biso   1.000  H
  C76      1.0000 0.04510  0.55979  0.82261  Biso   1.000  C
  C77      1.0000 0.89090  0.45779  0.73157  Biso   1.000  C
  H45      1.0000 0.85270  0.45080  0.73310  Biso   1.000  H
  C78      1.0000 0.91470  0.48007  0.75446  Biso   1.000  C
  H46      1.0000 0.89150  0.48780  0.77160  Biso   1.000  H
  C79      1.0000 0.97100  0.49119  0.75296  Biso   1.000  C
  C80      1.0000 0.00470  0.47951  0.72680  Biso   1.000  C
  H47      1.0000 0.04260  0.48700  0.72460  Biso   1.000  H
  C81      1.0000 0.98230  0.45673  0.70394  Biso   1.000  C
  H48      1.0000 0.00570  0.44860  0.68710  Biso   1.000  H
  C82      1.0000 0.92680  0.44633  0.70610  Biso   1.000  C
  C83      1.0000 0.07140  0.58404  0.84654  Biso   1.000  C
  C84      1.0000 0.90350  0.42128  0.68262  Biso   1.000  C
  O25      1.0000 0.62597  0.08511  0.84804  Biso   1.000  O
  O26      1.0000 0.54151  0.10229  0.86414  Biso   1.000  O
  O27      1.0000 0.35289  0.91403  0.68099  Biso   1.000  O
  O28      1.0000 0.43868  0.90677  0.66256  Biso   1.000  O
  C85      1.0000 0.57880  0.03681  0.80564  Biso   1.000  C
  H49      1.0000 0.61860  0.03620  0.80910  Biso   1.000  H
  C86      1.0000 0.55360  0.01481  0.78359  Biso   1.000  C
  H50      1.0000 0.57680  0.99930  0.77260  Biso   1.000  H
  C87      1.0000 0.49490  0.01509  0.77726  Biso   1.000  C
  C88      1.0000 0.46190  0.03872  0.79398  Biso   1.000  C
  H51      1.0000 0.42240  0.04030  0.79000  Biso   1.000  H
  C89      1.0000 0.48730  0.05966  0.81635  Biso   1.000  C
  H52      1.0000 0.46390  0.07470  0.82800  Biso   1.000  H
  C90      1.0000 0.54510  0.05979  0.82261  Biso   1.000  C
  C91      1.0000 0.39090  0.95779  0.73157  Biso   1.000  C
  H53      1.0000 0.35270  0.95080  0.73310  Biso   1.000  H
  C92      1.0000 0.41470  0.98007  0.75446  Biso   1.000  C
  H54      1.0000 0.39150  0.98780  0.77160  Biso   1.000  H
  C93      1.0000 0.47100  0.99119  0.75296  Biso   1.000  C
  C94      1.0000 0.50470  0.97951  0.72680  Biso   1.000  C
  H55      1.0000 0.54260  0.98700  0.72460  Biso   1.000  H
  C95      1.0000 0.48230  0.95673  0.70394  Biso   1.000  C
  H56      1.0000 0.50570  0.94860  0.68710  Biso   1.000  H
  C96      1.0000 0.42680  0.94633  0.70610  Biso   1.000  C
  C97      1.0000 0.57140  0.08404  0.84654  Biso   1.000  C
  C98      1.0000 0.40350  0.92128  0.68262  Biso   1.000  C
  O29      1.0000 0.62597  0.58511  0.34804  Biso   1.000  O
  O30      1.0000 0.54151  0.60229  0.36414  Biso   1.000  O
  O31      1.0000 0.35289  0.41403  0.18099  Biso   1.000  O
  O32      1.0000 0.43868  0.40677  0.16256  Biso   1.000  O
  C99      1.0000 0.57880  0.53681  0.30564  Biso   1.000  C
  H57      1.0000 0.61860  0.53620  0.30910  Biso   1.000  H
  C100     1.0000 0.55360  0.51481  0.28359  Biso   1.000  C
  H58      1.0000 0.57680  0.49930  0.27260  Biso   1.000  H
  C101     1.0000 0.49490  0.51509  0.27726  Biso   1.000  C
  C102     1.0000 0.46190  0.53872  0.29398  Biso   1.000  C
  H59      1.0000 0.42240  0.54030  0.29000  Biso   1.000  H
  C103     1.0000 0.48730  0.55966  0.31635  Biso   1.000  C
  H60      1.0000 0.46390  0.57470  0.32800  Biso   1.000  H
  C104     1.0000 0.54510  0.55979  0.32261  Biso   1.000  C
  C105     1.0000 0.39090  0.45779  0.23157  Biso   1.000  C
  H61      1.0000 0.35270  0.45080  0.23310  Biso   1.000  H
  C106     1.0000 0.41470  0.48007  0.25446  Biso   1.000  C
  H62      1.0000 0.39150  0.48780  0.27160  Biso   1.000  H
  C107     1.0000 0.47100  0.49119  0.25296  Biso   1.000  C
  C108     1.0000 0.50470  0.47951  0.22680  Biso   1.000  C
  H63      1.0000 0.54260  0.48700  0.22460  Biso   1.000  H
  C109     1.0000 0.48230  0.45673  0.20394  Biso   1.000  C
  H64      1.0000 0.50570  0.44860  0.18710  Biso   1.000  H
  C110     1.0000 0.42680  0.44633  0.20610  Biso   1.000  C
  C111     1.0000 0.57140  0.58404  0.34654  Biso   1.000  C
  C112     1.0000 0.40350  0.42128  0.18262  Biso   1.000  C
  O33      1.0000 0.87403  0.33511  0.59804  Biso   1.000  O
  O34      1.0000 0.95849  0.35229  0.61414  Biso   1.000  O
  O35      1.0000 0.14711  0.16403  0.43099  Biso   1.000  O
  O36      1.0000 0.06132  0.15677  0.41256  Biso   1.000  O
  C113     1.0000 0.92120  0.28681  0.55564  Biso   1.000  C
  H65      1.0000 0.88140  0.28620  0.55910  Biso   1.000  H
  C114     1.0000 0.94640  0.26481  0.53359  Biso   1.000  C
  H66      1.0000 0.92320  0.24930  0.52260  Biso   1.000  H
  C115     1.0000 0.00510  0.26509  0.52726  Biso   1.000  C
  C116     1.0000 0.03810  0.28872  0.54398  Biso   1.000  C
  H67      1.0000 0.07760  0.29030  0.54000  Biso   1.000  H
  C117     1.0000 0.01270  0.30966  0.56635  Biso   1.000  C
  H68      1.0000 0.03610  0.32470  0.57800  Biso   1.000  H
  C118     1.0000 0.95490  0.30979  0.57261  Biso   1.000  C
  C119     1.0000 0.10910  0.20779  0.48157  Biso   1.000  C
  H69      1.0000 0.14730  0.20080  0.48310  Biso   1.000  H
  C120     1.0000 0.08530  0.23007  0.50446  Biso   1.000  C
  H70      1.0000 0.10850  0.23780  0.52160  Biso   1.000  H
  C121     1.0000 0.02900  0.24119  0.50296  Biso   1.000  C
  C122     1.0000 0.99530  0.22951  0.47680  Biso   1.000  C
  H71      1.0000 0.95740  0.23700  0.47460  Biso   1.000  H
  C123     1.0000 0.01770  0.20673  0.45394  Biso   1.000  C
  H72      1.0000 0.99430  0.19860  0.43710  Biso   1.000  H
  C124     1.0000 0.07320  0.19633  0.45610  Biso   1.000  C
  C125     1.0000 0.92860  0.33404  0.59654  Biso   1.000  C
  C126     1.0000 0.09650  0.17128  0.43262  Biso   1.000  C
  O37      1.0000 0.87403  0.83511  0.09804  Biso   1.000  O
  O38      1.0000 0.95849  0.85229  0.11414  Biso   1.000  O
  O39      1.0000 0.14711  0.66403  0.93099  Biso   1.000  O
  O40      1.0000 0.06132  0.65677  0.91256  Biso   1.000  O
  C127     1.0000 0.92120  0.78681  0.05564  Biso   1.000  C
  H73      1.0000 0.88140  0.78620  0.05910  Biso   1.000  H
  C128     1.0000 0.94640  0.76481  0.03359  Biso   1.000  C
  H74      1.0000 0.92320  0.74930  0.02260  Biso   1.000  H
  C129     1.0000 0.00510  0.76509  0.02726  Biso   1.000  C
  C130     1.0000 0.03810  0.78872  0.04398  Biso   1.000  C
  H75      1.0000 0.07760  0.79030  0.04000  Biso   1.000  H
  C131     1.0000 0.01270  0.80966  0.06635  Biso   1.000  C
  H76      1.0000 0.03610  0.82470  0.07800  Biso   1.000  H
  C132     1.0000 0.95490  0.80979  0.07261  Biso   1.000  C
  C133     1.0000 0.10910  0.70779  0.98157  Biso   1.000  C
  H77      1.0000 0.14730  0.70080  0.98310  Biso   1.000  H
  C134     1.0000 0.08530  0.73007  0.00446  Biso   1.000  C
  H78      1.0000 0.10850  0.73780  0.02160  Biso   1.000  H
  C135     1.0000 0.02900  0.74119  0.00296  Biso   1.000  C
  C136     1.0000 0.99530  0.72951  0.97680  Biso   1.000  C
  H79      1.0000 0.95740  0.73700  0.97460  Biso   1.000  H
  C137     1.0000 0.01770  0.70673  0.95394  Biso   1.000  C
  H80      1.0000 0.99430  0.69860  0.93710  Biso   1.000  H
  C138     1.0000 0.07320  0.69633  0.95610  Biso   1.000  C
  C139     1.0000 0.92860  0.83404  0.09654  Biso   1.000  C
  C140     1.0000 0.09650  0.67128  0.93262  Biso   1.000  C
  O41      1.0000 0.37403  0.33511  0.09804  Biso   1.000  O
  O42      1.0000 0.45849  0.35229  0.11414  Biso   1.000  O
  O43      1.0000 0.64711  0.16403  0.93099  Biso   1.000  O
  O44      1.0000 0.56132  0.15677  0.91256  Biso   1.000  O
  C141     1.0000 0.42120  0.28681  0.05564  Biso   1.000  C
  H81      1.0000 0.38140  0.28620  0.05910  Biso   1.000  H
  C142     1.0000 0.44640  0.26481  0.03359  Biso   1.000  C
  H82      1.0000 0.42320  0.24930  0.02260  Biso   1.000  H
  C143     1.0000 0.50510  0.26509  0.02726  Biso   1.000  C
  C144     1.0000 0.53810  0.28872  0.04398  Biso   1.000  C
  H83      1.0000 0.57760  0.29030  0.04000  Biso   1.000  H
  C145     1.0000 0.51270  0.30966  0.06635  Biso   1.000  C
  H84      1.0000 0.53610  0.32470  0.07800  Biso   1.000  H
  C146     1.0000 0.45490  0.30979  0.07261  Biso   1.000  C
  C147     1.0000 0.60910  0.20779  0.98157  Biso   1.000  C
  H85      1.0000 0.64730  0.20080  0.98310  Biso   1.000  H
  C148     1.0000 0.58530  0.23007  0.00446  Biso   1.000  C
  H86      1.0000 0.60850  0.23780  0.02160  Biso   1.000  H
  C149     1.0000 0.52900  0.24119  0.00296  Biso   1.000  C
  C150     1.0000 0.49530  0.22951  0.97680  Biso   1.000  C
  H87      1.0000 0.45740  0.23700  0.97460  Biso   1.000  H
  C151     1.0000 0.51770  0.20673  0.95394  Biso   1.000  C
  H88      1.0000 0.49430  0.19860  0.93710  Biso   1.000  H
  C152     1.0000 0.57320  0.19633  0.95610  Biso   1.000  C
  C153     1.0000 0.42860  0.33404  0.09654  Biso   1.000  C
  C154     1.0000 0.59650  0.17128  0.93262  Biso   1.000  C
  O45      1.0000 0.37403  0.83511  0.59804  Biso   1.000  O
  O46      1.0000 0.45849  0.85229  0.61414  Biso   1.000  O
  O47      1.0000 0.64711  0.66403  0.43099  Biso   1.000  O
  O48      1.0000 0.56132  0.65677  0.41256  Biso   1.000  O
  C155     1.0000 0.42120  0.78681  0.55564  Biso   1.000  C
  H89      1.0000 0.38140  0.78620  0.55910  Biso   1.000  H
  C156     1.0000 0.44640  0.76481  0.53359  Biso   1.000  C
  H90      1.0000 0.42320  0.74930  0.52260  Biso   1.000  H
  C157     1.0000 0.50510  0.76509  0.52726  Biso   1.000  C
  C158     1.0000 0.53810  0.78872  0.54398  Biso   1.000  C
  H91      1.0000 0.57760  0.79030  0.54000  Biso   1.000  H
  C159     1.0000 0.51270  0.80966  0.56635  Biso   1.000  C
  H92      1.0000 0.53610  0.82470  0.57800  Biso   1.000  H
  C160     1.0000 0.45490  0.80979  0.57261  Biso   1.000  C
  C161     1.0000 0.60910  0.70779  0.48157  Biso   1.000  C
  H93      1.0000 0.64730  0.70080  0.48310  Biso   1.000  H
  C162     1.0000 0.58530  0.73007  0.50446  Biso   1.000  C
  H94      1.0000 0.60850  0.73780  0.52160  Biso   1.000  H
  C163     1.0000 0.52900  0.74119  0.50296  Biso   1.000  C
  C164     1.0000 0.49530  0.72951  0.47680  Biso   1.000  C
  H95      1.0000 0.45740  0.73700  0.47460  Biso   1.000  H
  C165     1.0000 0.51770  0.70673  0.45394  Biso   1.000  C
  H96      1.0000 0.49430  0.69860  0.43710  Biso   1.000  H
  C166     1.0000 0.57320  0.69633  0.45610  Biso   1.000  C
  C167     1.0000 0.42860  0.83404  0.59654  Biso   1.000  C
  C168     1.0000 0.59650  0.67128  0.43262  Biso   1.000  C
  O49      1.0000 0.37597  0.91489  0.59804  Biso   1.000  O
  O50      1.0000 0.29151  0.89771  0.61414  Biso   1.000  O
  O51      1.0000 0.10289  0.08597  0.43099  Biso   1.000  O
  O52      1.0000 0.18868  0.09323  0.41256  Biso   1.000  O
  C169     1.0000 0.32880  0.96319  0.55564  Biso   1.000  C
  H97      1.0000 0.36860  0.96380  0.55910  Biso   1.000  H
  C170     1.0000 0.30360  0.98519  0.53359  Biso   1.000  C
  H98      1.0000 0.32680  0.00070  0.52260  Biso   1.000  H
  C171     1.0000 0.24490  0.98491  0.52726  Biso   1.000  C
  C172     1.0000 0.21190  0.96128  0.54398  Biso   1.000  C
  H99      1.0000 0.17240  0.95970  0.54000  Biso   1.000  H
  C173     1.0000 0.23730  0.94034  0.56635  Biso   1.000  C
  H100     1.0000 0.21390  0.92530  0.57800  Biso   1.000  H
  C174     1.0000 0.29510  0.94021  0.57261  Biso   1.000  C
  C175     1.0000 0.14090  0.04221  0.48157  Biso   1.000  C
  H101     1.0000 0.10270  0.04920  0.48310  Biso   1.000  H
  C176     1.0000 0.16470  0.01993  0.50446  Biso   1.000  C
  H102     1.0000 0.14150  0.01220  0.52160  Biso   1.000  H
  C177     1.0000 0.22100  0.00881  0.50296  Biso   1.000  C
  C178     1.0000 0.25470  0.02049  0.47680  Biso   1.000  C
  H103     1.0000 0.29260  0.01300  0.47460  Biso   1.000  H
  C179     1.0000 0.23230  0.04327  0.45394  Biso   1.000  C
  H104     1.0000 0.25570  0.05140  0.43710  Biso   1.000  H
  C180     1.0000 0.17680  0.05367  0.45610  Biso   1.000  C
  C181     1.0000 0.32140  0.91596  0.59654  Biso   1.000  C
  C182     1.0000 0.15350  0.07872  0.43262  Biso   1.000  C
  O53      1.0000 0.37597  0.41489  0.09804  Biso   1.000  O
  O54      1.0000 0.29151  0.39771  0.11414  Biso   1.000  O
  O55      1.0000 0.10289  0.58597  0.93099  Biso   1.000  O
  O56      1.0000 0.18868  0.59323  0.91256  Biso   1.000  O
  C183     1.0000 0.32880  0.46319  0.05564  Biso   1.000  C
  H105     1.0000 0.36860  0.46380  0.05910  Biso   1.000  H
  C184     1.0000 0.30360  0.48519  0.03359  Biso   1.000  C
  H106     1.0000 0.32680  0.50070  0.02260  Biso   1.000  H
  C185     1.0000 0.24490  0.48491  0.02726  Biso   1.000  C
  C186     1.0000 0.21190  0.46128  0.04398  Biso   1.000  C
  H107     1.0000 0.17240  0.45970  0.04000  Biso   1.000  H
  C187     1.0000 0.23730  0.44034  0.06635  Biso   1.000  C
  H108     1.0000 0.21390  0.42530  0.07800  Biso   1.000  H
  C188     1.0000 0.29510  0.44021  0.07261  Biso   1.000  C
  C189     1.0000 0.14090  0.54221  0.98157  Biso   1.000  C
  H109     1.0000 0.10270  0.54920  0.98310  Biso   1.000  H
  C190     1.0000 0.16470  0.51993  0.00446  Biso   1.000  C
  H110     1.0000 0.14150  0.51220  0.02160  Biso   1.000  H
  C191     1.0000 0.22100  0.50881  0.00296  Biso   1.000  C
  C192     1.0000 0.25470  0.52049  0.97680  Biso   1.000  C
  H111     1.0000 0.29260  0.51300  0.97460  Biso   1.000  H
  C193     1.0000 0.23230  0.54327  0.95394  Biso   1.000  C
  H112     1.0000 0.25570  0.55140  0.93710  Biso   1.000  H
  C194     1.0000 0.17680  0.55367  0.95610  Biso   1.000  C
  C195     1.0000 0.32140  0.41596  0.09654  Biso   1.000  C
  C196     1.0000 0.15350  0.57872  0.93262  Biso   1.000  C
  O57      1.0000 0.87597  0.91489  0.09804  Biso   1.000  O
  O58      1.0000 0.79151  0.89771  0.11414  Biso   1.000  O
  O59      1.0000 0.60289  0.08597  0.93099  Biso   1.000  O
  O60      1.0000 0.68868  0.09323  0.91256  Biso   1.000  O
  C197     1.0000 0.82880  0.96319  0.05564  Biso   1.000  C
  H113     1.0000 0.86860  0.96380  0.05910  Biso   1.000  H
  C198     1.0000 0.80360  0.98519  0.03359  Biso   1.000  C
  H114     1.0000 0.82680  0.00070  0.02260  Biso   1.000  H
  C199     1.0000 0.74490  0.98491  0.02726  Biso   1.000  C
  C200     1.0000 0.71190  0.96128  0.04398  Biso   1.000  C
  H115     1.0000 0.67240  0.95970  0.04000  Biso   1.000  H
  C201     1.0000 0.73730  0.94034  0.06635  Biso   1.000  C
  H116     1.0000 0.71390  0.92530  0.07800  Biso   1.000  H
  C202     1.0000 0.79510  0.94021  0.07261  Biso   1.000  C
  C203     1.0000 0.64090  0.04221  0.98157  Biso   1.000  C
  H117     1.0000 0.60270  0.04920  0.98310  Biso   1.000  H
  C204     1.0000 0.66470  0.01993  0.00446  Biso   1.000  C
  H118     1.0000 0.64150  0.01220  0.02160  Biso   1.000  H
  C205     1.0000 0.72100  0.00881  0.00296  Biso   1.000  C
  C206     1.0000 0.75470  0.02049  0.97680  Biso   1.000  C
  H119     1.0000 0.79260  0.01300  0.97460  Biso   1.000  H
  C207     1.0000 0.73230  0.04327  0.95394  Biso   1.000  C
  H120     1.0000 0.75570  0.05140  0.93710  Biso   1.000  H
  C208     1.0000 0.67680  0.05367  0.95610  Biso   1.000  C
  C209     1.0000 0.82140  0.91596  0.09654  Biso   1.000  C
  C210     1.0000 0.65350  0.07872  0.93262  Biso   1.000  C
  O61      1.0000 0.87597  0.41489  0.59804  Biso   1.000  O
  O62      1.0000 0.79151  0.39771  0.61414  Biso   1.000  O
  O63      1.0000 0.60289  0.58597  0.43099  Biso   1.000  O
  O64      1.0000 0.68868  0.59323  0.41256  Biso   1.000  O
  C211     1.0000 0.82880  0.46319  0.55564  Biso   1.000  C
  H121     1.0000 0.86860  0.46380  0.55910  Biso   1.000  H
  C212     1.0000 0.80360  0.48519  0.53359  Biso   1.000  C
  H122     1.0000 0.82680  0.50070  0.52260  Biso   1.000  H
  C213     1.0000 0.74490  0.48491  0.52726  Biso   1.000  C
  C214     1.0000 0.71190  0.46128  0.54398  Biso   1.000  C
  H123     1.0000 0.67240  0.45970  0.54000  Biso   1.000  H
  C215     1.0000 0.73730  0.44034  0.56635  Biso   1.000  C
  H124     1.0000 0.71390  0.42530  0.57800  Biso   1.000  H
  C216     1.0000 0.79510  0.44021  0.57261  Biso   1.000  C
  C217     1.0000 0.64090  0.54221  0.48157  Biso   1.000  C
  H125     1.0000 0.60270  0.54920  0.48310  Biso   1.000  H
  C218     1.0000 0.66470  0.51993  0.50446  Biso   1.000  C
  H126     1.0000 0.64150  0.51220  0.52160  Biso   1.000  H
  C219     1.0000 0.72100  0.50881  0.50296  Biso   1.000  C
  C220     1.0000 0.75470  0.52049  0.47680  Biso   1.000  C
  H127     1.0000 0.79260  0.51300  0.47460  Biso   1.000  H
  C221     1.0000 0.73230  0.54327  0.45394  Biso   1.000  C
  H128     1.0000 0.75570  0.55140  0.43710  Biso   1.000  H
  C222     1.0000 0.67680  0.55367  0.45610  Biso   1.000  C
  C223     1.0000 0.82140  0.41596  0.59654  Biso   1.000  C
  C224     1.0000 0.65350  0.57872  0.43262  Biso   1.000  C
  In1      1.0000 0.62500  0.62500  0.38727  Biso   1.000  In
  In2      1.0000 0.62500  0.12500  0.88727  Biso   1.000  In
  In3      1.0000 0.12500  0.12500  0.38727  Biso   1.000  In
  In4      1.0000 0.12500  0.62500  0.88727  Biso   1.000  In
  In5      1.0000 0.87500  0.37500  0.63727  Biso   1.000  In
  In6      1.0000 0.87500  0.87500  0.13727  Biso   1.000  In
  In7      1.0000 0.37500  0.37500  0.13727  Biso   1.000  In
  In8      1.0000 0.37500  0.87500  0.63727  Biso   1.000  In
  O65      1.0000 0.94754  0.27871  0.39685  Biso   1.000  O
  O66      1.0000 0.86686  0.28670  0.41831  Biso   1.000  O
  O67      1.0000 0.13825  0.45873  0.58373  Biso   1.000  O
  O68      1.0000 0.05225  0.47103  0.60078  Biso   1.000  O
  C225     1.0000 0.00170  0.32227  0.44189  Biso   1.000  C
  H129     1.0000 0.02540  0.31240  0.42610  Biso   1.000  H
  C226     1.0000 0.02430  0.34400  0.46505  Biso   1.000  C
  H130     1.0000 0.06420  0.34710  0.46490  Biso   1.000  H
  C227     1.0000 0.99350  0.36133  0.48809  Biso   1.000  C
  C228     1.0000 0.93750  0.35117  0.48942  Biso   1.000  C
  H131     1.0000 0.91400  0.36020  0.50580  Biso   1.000  H
  C229     1.0000 0.91370  0.32807  0.46772  Biso   1.000  C
  H132     1.0000 0.87560  0.32110  0.47080  Biso   1.000  H
  C230     1.0000 0.94400  0.31548  0.44236  Biso   1.000  C
  C231     1.0000 0.09390  0.41897  0.53203  Biso   1.000  C
  H133     1.0000 0.13230  0.42580  0.53010  Biso   1.000  H
  C232     1.0000 0.07100  0.39655  0.50912  Biso   1.000  C
  H134     1.0000 0.09390  0.38900  0.49180  Biso   1.000  H
  C233     1.0000 0.01520  0.38545  0.51183  Biso   1.000  C
  C234     1.0000 0.98290  0.39745  0.53715  Biso   1.000  C
  H135     1.0000 0.94510  0.38970  0.53950  Biso   1.000  H
  C235     1.0000 0.00440  0.42116  0.56013  Biso   1.000  C
  H136     1.0000 0.98060  0.42970  0.57660  Biso   1.000  H
  C236     1.0000 0.06040  0.43134  0.55774  Biso   1.000  C
  C237     1.0000 0.91790  0.29217  0.41779  Biso   1.000  C
  C238     1.0000 0.08440  0.45553  0.58232  Biso   1.000  C
  O69      1.0000 0.94754  0.77871  0.89685  Biso   1.000  O
  O70      1.0000 0.86686  0.78670  0.91831  Biso   1.000  O
  O71      1.0000 0.13825  0.95873  0.08373  Biso   1.000  O
  O72      1.0000 0.05225  0.97103  0.10078  Biso   1.000  O
  C239     1.0000 0.00170  0.82227  0.94189  Biso   1.000  C
  H137     1.0000 0.02540  0.81240  0.92610  Biso   1.000  H
  C240     1.0000 0.02430  0.84400  0.96505  Biso   1.000  C
  H138     1.0000 0.06420  0.84710  0.96490  Biso   1.000  H
  C241     1.0000 0.99350  0.86133  0.98809  Biso   1.000  C
  C242     1.0000 0.93750  0.85117  0.98942  Biso   1.000  C
  H139     1.0000 0.91400  0.86020  0.00580  Biso   1.000  H
  C243     1.0000 0.91370  0.82807  0.96772  Biso   1.000  C
  H140     1.0000 0.87560  0.82110  0.97080  Biso   1.000  H
  C244     1.0000 0.94400  0.81548  0.94236  Biso   1.000  C
  C245     1.0000 0.09390  0.91897  0.03203  Biso   1.000  C
  H141     1.0000 0.13230  0.92580  0.03010  Biso   1.000  H
  C246     1.0000 0.07100  0.89655  0.00912  Biso   1.000  C
  H142     1.0000 0.09390  0.88900  0.99180  Biso   1.000  H
  C247     1.0000 0.01520  0.88545  0.01183  Biso   1.000  C
  C248     1.0000 0.98290  0.89745  0.03715  Biso   1.000  C
  H143     1.0000 0.94510  0.88970  0.03950  Biso   1.000  H
  C249     1.0000 0.00440  0.92116  0.06013  Biso   1.000  C
  H144     1.0000 0.98060  0.92970  0.07660  Biso   1.000  H
  C250     1.0000 0.06040  0.93134  0.05774  Biso   1.000  C
  C251     1.0000 0.91790  0.79217  0.91779  Biso   1.000  C
  C252     1.0000 0.08440  0.95553  0.08232  Biso   1.000  C
  O73      1.0000 0.44754  0.27871  0.89685  Biso   1.000  O
  O74      1.0000 0.36686  0.28670  0.91831  Biso   1.000  O
  O75      1.0000 0.63825  0.45873  0.08373  Biso   1.000  O
  O76      1.0000 0.55225  0.47103  0.10078  Biso   1.000  O
  C253     1.0000 0.50170  0.32227  0.94189  Biso   1.000  C
  H145     1.0000 0.52540  0.31240  0.92610  Biso   1.000  H
  C254     1.0000 0.52430  0.34400  0.96505  Biso   1.000  C
  H146     1.0000 0.56420  0.34710  0.96490  Biso   1.000  H
  C255     1.0000 0.49350  0.36133  0.98809  Biso   1.000  C
  C256     1.0000 0.43750  0.35117  0.98942  Biso   1.000  C
  H147     1.0000 0.41400  0.36020  0.00580  Biso   1.000  H
  C257     1.0000 0.41370  0.32807  0.96772  Biso   1.000  C
  H148     1.0000 0.37560  0.32110  0.97080  Biso   1.000  H
  C258     1.0000 0.44400  0.31548  0.94236  Biso   1.000  C
  C259     1.0000 0.59390  0.41897  0.03203  Biso   1.000  C
  H149     1.0000 0.63230  0.42580  0.03010  Biso   1.000  H
  C260     1.0000 0.57100  0.39655  0.00912  Biso   1.000  C
  H150     1.0000 0.59390  0.38900  0.99180  Biso   1.000  H
  C261     1.0000 0.51520  0.38545  0.01183  Biso   1.000  C
  C262     1.0000 0.48290  0.39745  0.03715  Biso   1.000  C
  H151     1.0000 0.44510  0.38970  0.03950  Biso   1.000  H
  C263     1.0000 0.50440  0.42116  0.06013  Biso   1.000  C
  H152     1.0000 0.48060  0.42970  0.07660  Biso   1.000  H
  C264     1.0000 0.56040  0.43134  0.05774  Biso   1.000  C
  C265     1.0000 0.41790  0.29217  0.91779  Biso   1.000  C
  C266     1.0000 0.58440  0.45553  0.08232  Biso   1.000  C
  O77      1.0000 0.44754  0.77871  0.39685  Biso   1.000  O
  O78      1.0000 0.36686  0.78670  0.41831  Biso   1.000  O
  O79      1.0000 0.63825  0.95873  0.58373  Biso   1.000  O
  O80      1.0000 0.55225  0.97103  0.60078  Biso   1.000  O
  C267     1.0000 0.50170  0.82227  0.44189  Biso   1.000  C
  H153     1.0000 0.52540  0.81240  0.42610  Biso   1.000  H
  C268     1.0000 0.52430  0.84400  0.46505  Biso   1.000  C
  H154     1.0000 0.56420  0.84710  0.46490  Biso   1.000  H
  C269     1.0000 0.49350  0.86133  0.48809  Biso   1.000  C
  C270     1.0000 0.43750  0.85117  0.48942  Biso   1.000  C
  H155     1.0000 0.41400  0.86020  0.50580  Biso   1.000  H
  C271     1.0000 0.41370  0.82807  0.46772  Biso   1.000  C
  H156     1.0000 0.37560  0.82110  0.47080  Biso   1.000  H
  C272     1.0000 0.44400  0.81548  0.44236  Biso   1.000  C
  C273     1.0000 0.59390  0.91897  0.53203  Biso   1.000  C
  H157     1.0000 0.63230  0.92580  0.53010  Biso   1.000  H
  C274     1.0000 0.57100  0.89655  0.50912  Biso   1.000  C
  H158     1.0000 0.59390  0.88900  0.49180  Biso   1.000  H
  C275     1.0000 0.51520  0.88545  0.51183  Biso   1.000  C
  C276     1.0000 0.48290  0.89745  0.53715  Biso   1.000  C
  H159     1.0000 0.44510  0.88970  0.53950  Biso   1.000  H
  C277     1.0000 0.50440  0.92116  0.56013  Biso   1.000  C
  H160     1.0000 0.48060  0.92970  0.57660  Biso   1.000  H
  C278     1.0000 0.56040  0.93134  0.55774  Biso   1.000  C
  C279     1.0000 0.41790  0.79217  0.41779  Biso   1.000  C
  C280     1.0000 0.58440  0.95553  0.58232  Biso   1.000  C
  O81      1.0000 0.80246  0.27871  0.35315  Biso   1.000  O
  O82      1.0000 0.88314  0.28670  0.33169  Biso   1.000  O
  O83      1.0000 0.61175  0.45873  0.16627  Biso   1.000  O
  O84      1.0000 0.69775  0.47103  0.14922  Biso   1.000  O
  C281     1.0000 0.74830  0.32227  0.30811  Biso   1.000  C
  H161     1.0000 0.72460  0.31240  0.32390  Biso   1.000  H
  C282     1.0000 0.72570  0.34400  0.28495  Biso   1.000  C
  H162     1.0000 0.68580  0.34710  0.28510  Biso   1.000  H
  C283     1.0000 0.75650  0.36133  0.26191  Biso   1.000  C
  C284     1.0000 0.81250  0.35117  0.26058  Biso   1.000  C
  H163     1.0000 0.83600  0.36020  0.24420  Biso   1.000  H
  C285     1.0000 0.83630  0.32807  0.28228  Biso   1.000  C
  H164     1.0000 0.87440  0.32110  0.27920  Biso   1.000  H
  C286     1.0000 0.80600  0.31548  0.30764  Biso   1.000  C
  C287     1.0000 0.65610  0.41897  0.21797  Biso   1.000  C
  H165     1.0000 0.61770  0.42580  0.21990  Biso   1.000  H
  C288     1.0000 0.67900  0.39655  0.24088  Biso   1.000  C
  H166     1.0000 0.65610  0.38900  0.25820  Biso   1.000  H
  C289     1.0000 0.73480  0.38545  0.23817  Biso   1.000  C
  C290     1.0000 0.76710  0.39745  0.21285  Biso   1.000  C
  H167     1.0000 0.80490  0.38970  0.21050  Biso   1.000  H
  C291     1.0000 0.74560  0.42116  0.18987  Biso   1.000  C
  H168     1.0000 0.76940  0.42970  0.17340  Biso   1.000  H
  C292     1.0000 0.68960  0.43134  0.19226  Biso   1.000  C
  C293     1.0000 0.83210  0.29217  0.33221  Biso   1.000  C
  C294     1.0000 0.66560  0.45553  0.16768  Biso   1.000  C
  O85      1.0000 0.80246  0.77871  0.85315  Biso   1.000  O
  O86      1.0000 0.88314  0.78670  0.83169  Biso   1.000  O
  O87      1.0000 0.61175  0.95873  0.66627  Biso   1.000  O
  O88      1.0000 0.69775  0.97103  0.64922  Biso   1.000  O
  C295     1.0000 0.74830  0.82227  0.80811  Biso   1.000  C
  H169     1.0000 0.72460  0.81240  0.82390  Biso   1.000  H
  C296     1.0000 0.72570  0.84400  0.78495  Biso   1.000  C
  H170     1.0000 0.68580  0.84710  0.78510  Biso   1.000  H
  C297     1.0000 0.75650  0.86133  0.76191  Biso   1.000  C
  C298     1.0000 0.81250  0.85117  0.76058  Biso   1.000  C
  H171     1.0000 0.83600  0.86020  0.74420  Biso   1.000  H
  C299     1.0000 0.83630  0.82807  0.78228  Biso   1.000  C
  H172     1.0000 0.87440  0.82110  0.77920  Biso   1.000  H
  C300     1.0000 0.80600  0.81548  0.80764  Biso   1.000  C
  C301     1.0000 0.65610  0.91897  0.71797  Biso   1.000  C
  H173     1.0000 0.61770  0.92580  0.71990  Biso   1.000  H
  C302     1.0000 0.67900  0.89655  0.74088  Biso   1.000  C
  H174     1.0000 0.65610  0.88900  0.75820  Biso   1.000  H
  C303     1.0000 0.73480  0.88545  0.73817  Biso   1.000  C
  C304     1.0000 0.76710  0.89745  0.71285  Biso   1.000  C
  H175     1.0000 0.80490  0.88970  0.71050  Biso   1.000  H
  C305     1.0000 0.74560  0.92116  0.68987  Biso   1.000  C
  H176     1.0000 0.76940  0.92970  0.67340  Biso   1.000  H
  C306     1.0000 0.68960  0.93134  0.69226  Biso   1.000  C
  C307     1.0000 0.83210  0.79217  0.83221  Biso   1.000  C
  C308     1.0000 0.66560  0.95553  0.66768  Biso   1.000  C
  O89      1.0000 0.30246  0.27871  0.85315  Biso   1.000  O
  O90      1.0000 0.38314  0.28670  0.83169  Biso   1.000  O
  O91      1.0000 0.11175  0.45873  0.66627  Biso   1.000  O
  O92      1.0000 0.19775  0.47103  0.64922  Biso   1.000  O
  C309     1.0000 0.24830  0.32227  0.80811  Biso   1.000  C
  H177     1.0000 0.22460  0.31240  0.82390  Biso   1.000  H
  C310     1.0000 0.22570  0.34400  0.78495  Biso   1.000  C
  H178     1.0000 0.18580  0.34710  0.78510  Biso   1.000  H
  C311     1.0000 0.25650  0.36133  0.76191  Biso   1.000  C
  C312     1.0000 0.31250  0.35117  0.76058  Biso   1.000  C
  H179     1.0000 0.33600  0.36020  0.74420  Biso   1.000  H
  C313     1.0000 0.33630  0.32807  0.78228  Biso   1.000  C
  H180     1.0000 0.37440  0.32110  0.77920  Biso   1.000  H
  C314     1.0000 0.30600  0.31548  0.80764  Biso   1.000  C
  C315     1.0000 0.15610  0.41897  0.71797  Biso   1.000  C
  H181     1.0000 0.11770  0.42580  0.71990  Biso   1.000  H
  C316     1.0000 0.17900  0.39655  0.74088  Biso   1.000  C
  H182     1.0000 0.15610  0.38900  0.75820  Biso   1.000  H
  C317     1.0000 0.23480  0.38545  0.73817  Biso   1.000  C
  C318     1.0000 0.26710  0.39745  0.71285  Biso   1.000  C
  H183     1.0000 0.30490  0.38970  0.71050  Biso   1.000  H
  C319     1.0000 0.24560  0.42116  0.68987  Biso   1.000  C
  H184     1.0000 0.26940  0.42970  0.67340  Biso   1.000  H
  C320     1.0000 0.18960  0.43134  0.69226  Biso   1.000  C
  C321     1.0000 0.33210  0.29217  0.83221  Biso   1.000  C
  C322     1.0000 0.16560  0.45553  0.66768  Biso   1.000  C
  O93      1.0000 0.30246  0.77871  0.35315  Biso   1.000  O
  O94      1.0000 0.38314  0.78670  0.33169  Biso   1.000  O
  O95      1.0000 0.11175  0.95873  0.16627  Biso   1.000  O
  O96      1.0000 0.19775  0.97103  0.14922  Biso   1.000  O
  C323     1.0000 0.24830  0.82227  0.30811  Biso   1.000  C
  H185     1.0000 0.22460  0.81240  0.32390  Biso   1.000  H
  C324     1.0000 0.22570  0.84400  0.28495  Biso   1.000  C
  H186     1.0000 0.18580  0.84710  0.28510  Biso   1.000  H
  C325     1.0000 0.25650  0.86133  0.26191  Biso   1.000  C
  C326     1.0000 0.31250  0.85117  0.26058  Biso   1.000  C
  H187     1.0000 0.33600  0.86020  0.24420  Biso   1.000  H
  C327     1.0000 0.33630  0.82807  0.28228  Biso   1.000  C
  H188     1.0000 0.37440  0.82110  0.27920  Biso   1.000  H
  C328     1.0000 0.30600  0.81548  0.30764  Biso   1.000  C
  C329     1.0000 0.15610  0.91897  0.21797  Biso   1.000  C
  H189     1.0000 0.11770  0.92580  0.21990  Biso   1.000  H
  C330     1.0000 0.17900  0.89655  0.24088  Biso   1.000  C
  H190     1.0000 0.15610  0.88900  0.25820  Biso   1.000  H
  C331     1.0000 0.23480  0.88545  0.23817  Biso   1.000  C
  C332     1.0000 0.26710  0.89745  0.21285  Biso   1.000  C
  H191     1.0000 0.30490  0.88970  0.21050  Biso   1.000  H
  C333     1.0000 0.24560  0.92116  0.18987  Biso   1.000  C
  H192     1.0000 0.26940  0.92970  0.17340  Biso   1.000  H
  C334     1.0000 0.18960  0.93134  0.19226  Biso   1.000  C
  C335     1.0000 0.33210  0.79217  0.33221  Biso   1.000  C
  C336     1.0000 0.16560  0.95553  0.16768  Biso   1.000  C
  O97      1.0000 0.19754  0.52871  0.60315  Biso   1.000  O
  O98      1.0000 0.11686  0.53670  0.58169  Biso   1.000  O
  O99      1.0000 0.38825  0.70873  0.41627  Biso   1.000  O
  O100     1.0000 0.30225  0.72103  0.39922  Biso   1.000  O
  C337     1.0000 0.25170  0.57227  0.55811  Biso   1.000  C
  H193     1.0000 0.27540  0.56240  0.57390  Biso   1.000  H
  C338     1.0000 0.27430  0.59400  0.53495  Biso   1.000  C
  H194     1.0000 0.31420  0.59710  0.53510  Biso   1.000  H
  C339     1.0000 0.24350  0.61133  0.51191  Biso   1.000  C
  C340     1.0000 0.18750  0.60117  0.51058  Biso   1.000  C
  H195     1.0000 0.16400  0.61020  0.49420  Biso   1.000  H
  C341     1.0000 0.16370  0.57807  0.53228  Biso   1.000  C
  H196     1.0000 0.12560  0.57110  0.52920  Biso   1.000  H
  C342     1.0000 0.19400  0.56548  0.55764  Biso   1.000  C
  C343     1.0000 0.34390  0.66897  0.46797  Biso   1.000  C
  H197     1.0000 0.38230  0.67580  0.46990  Biso   1.000  H
  C344     1.0000 0.32100  0.64655  0.49088  Biso   1.000  C
  H198     1.0000 0.34390  0.63900  0.50820  Biso   1.000  H
  C345     1.0000 0.26520  0.63545  0.48817  Biso   1.000  C
  C346     1.0000 0.23290  0.64745  0.46285  Biso   1.000  C
  H199     1.0000 0.19510  0.63970  0.46050  Biso   1.000  H
  C347     1.0000 0.25440  0.67116  0.43987  Biso   1.000  C
  H200     1.0000 0.23060  0.67970  0.42340  Biso   1.000  H
  C348     1.0000 0.31040  0.68134  0.44226  Biso   1.000  C
  C349     1.0000 0.16790  0.54217  0.58221  Biso   1.000  C
  C350     1.0000 0.33440  0.70553  0.41768  Biso   1.000  C
  O101     1.0000 0.19754  0.02871  0.10315  Biso   1.000  O
  O102     1.0000 0.11686  0.03670  0.08169  Biso   1.000  O
  O103     1.0000 0.38825  0.20873  0.91627  Biso   1.000  O
  O104     1.0000 0.30225  0.22103  0.89922  Biso   1.000  O
  C351     1.0000 0.25170  0.07227  0.05811  Biso   1.000  C
  H201     1.0000 0.27540  0.06240  0.07390  Biso   1.000  H
  C352     1.0000 0.27430  0.09400  0.03495  Biso   1.000  C
  H202     1.0000 0.31420  0.09710  0.03510  Biso   1.000  H
  C353     1.0000 0.24350  0.11133  0.01191  Biso   1.000  C
  C354     1.0000 0.18750  0.10117  0.01058  Biso   1.000  C
  H203     1.0000 0.16400  0.11020  0.99420  Biso   1.000  H
  C355     1.0000 0.16370  0.07807  0.03228  Biso   1.000  C
  H204     1.0000 0.12560  0.07110  0.02920  Biso   1.000  H
  C356     1.0000 0.19400  0.06548  0.05764  Biso   1.000  C
  C357     1.0000 0.34390  0.16897  0.96797  Biso   1.000  C
  H205     1.0000 0.38230  0.17580  0.96990  Biso   1.000  H
  C358     1.0000 0.32100  0.14655  0.99088  Biso   1.000  C
  H206     1.0000 0.34390  0.13900  0.00820  Biso   1.000  H
  C359     1.0000 0.26520  0.13545  0.98817  Biso   1.000  C
  C360     1.0000 0.23290  0.14745  0.96285  Biso   1.000  C
  H207     1.0000 0.19510  0.13970  0.96050  Biso   1.000  H
  C361     1.0000 0.25440  0.17116  0.93987  Biso   1.000  C
  H208     1.0000 0.23060  0.17970  0.92340  Biso   1.000  H
  C362     1.0000 0.31040  0.18134  0.94226  Biso   1.000  C
  C363     1.0000 0.16790  0.04217  0.08221  Biso   1.000  C
  C364     1.0000 0.33440  0.20553  0.91768  Biso   1.000  C
  O105     1.0000 0.69754  0.52871  0.10315  Biso   1.000  O
  O106     1.0000 0.61686  0.53670  0.08169  Biso   1.000  O
  O107     1.0000 0.88825  0.70873  0.91627  Biso   1.000  O
  O108     1.0000 0.80225  0.72103  0.89922  Biso   1.000  O
  C365     1.0000 0.75170  0.57227  0.05811  Biso   1.000  C
  H209     1.0000 0.77540  0.56240  0.07390  Biso   1.000  H
  C366     1.0000 0.77430  0.59400  0.03495  Biso   1.000  C
  H210     1.0000 0.81420  0.59710  0.03510  Biso   1.000  H
  C367     1.0000 0.74350  0.61133  0.01191  Biso   1.000  C
  C368     1.0000 0.68750  0.60117  0.01058  Biso   1.000  C
  H211     1.0000 0.66400  0.61020  0.99420  Biso   1.000  H
  C369     1.0000 0.66370  0.57807  0.03228  Biso   1.000  C
  H212     1.0000 0.62560  0.57110  0.02920  Biso   1.000  H
  C370     1.0000 0.69400  0.56548  0.05764  Biso   1.000  C
  C371     1.0000 0.84390  0.66897  0.96797  Biso   1.000  C
  H213     1.0000 0.88230  0.67580  0.96990  Biso   1.000  H
  C372     1.0000 0.82100  0.64655  0.99088  Biso   1.000  C
  H214     1.0000 0.84390  0.63900  0.00820  Biso   1.000  H
  C373     1.0000 0.76520  0.63545  0.98817  Biso   1.000  C
  C374     1.0000 0.73290  0.64745  0.96285  Biso   1.000  C
  H215     1.0000 0.69510  0.63970  0.96050  Biso   1.000  H
  C375     1.0000 0.75440  0.67116  0.93987  Biso   1.000  C
  H216     1.0000 0.73060  0.67970  0.92340  Biso   1.000  H
  C376     1.0000 0.81040  0.68134  0.94226  Biso   1.000  C
  C377     1.0000 0.66790  0.54217  0.08221  Biso   1.000  C
  C378     1.0000 0.83440  0.70553  0.91768  Biso   1.000  C
  O109     1.0000 0.69754  0.02871  0.60315  Biso   1.000  O
  O110     1.0000 0.61686  0.03670  0.58169  Biso   1.000  O
  O111     1.0000 0.88825  0.20873  0.41627  Biso   1.000  O
  O112     1.0000 0.80225  0.22103  0.39922  Biso   1.000  O
  C379     1.0000 0.75170  0.07227  0.55811  Biso   1.000  C
  H217     1.0000 0.77540  0.06240  0.57390  Biso   1.000  H
  C380     1.0000 0.77430  0.09400  0.53495  Biso   1.000  C
  H218     1.0000 0.81420  0.09710  0.53510  Biso   1.000  H
  C381     1.0000 0.74350  0.11133  0.51191  Biso   1.000  C
  C382     1.0000 0.68750  0.10117  0.51058  Biso   1.000  C
  H219     1.0000 0.66400  0.11020  0.49420  Biso   1.000  H
  C383     1.0000 0.66370  0.07807  0.53228  Biso   1.000  C
  H220     1.0000 0.62560  0.07110  0.52920  Biso   1.000  H
  C384     1.0000 0.69400  0.06548  0.55764  Biso   1.000  C
  C385     1.0000 0.84390  0.16897  0.46797  Biso   1.000  C
  H221     1.0000 0.88230  0.17580  0.46990  Biso   1.000  H
  C386     1.0000 0.82100  0.14655  0.49088  Biso   1.000  C
  H222     1.0000 0.84390  0.13900  0.50820  Biso   1.000  H
  C387     1.0000 0.76520  0.13545  0.48817  Biso   1.000  C
  C388     1.0000 0.73290  0.14745  0.46285  Biso   1.000  C
  H223     1.0000 0.69510  0.13970  0.46050  Biso   1.000  H
  C389     1.0000 0.75440  0.17116  0.43987  Biso   1.000  C
  H224     1.0000 0.73060  0.17970  0.42340  Biso   1.000  H
  C390     1.0000 0.81040  0.18134  0.44226  Biso   1.000  C
  C391     1.0000 0.66790  0.04217  0.58221  Biso   1.000  C
  C392     1.0000 0.83440  0.20553  0.41768  Biso   1.000  C
  O113     1.0000 0.05246  0.52871  0.64685  Biso   1.000  O
  O114     1.0000 0.13314  0.53670  0.66831  Biso   1.000  O
  O115     1.0000 0.86175  0.70873  0.83373  Biso   1.000  O
  O116     1.0000 0.94775  0.72103  0.85078  Biso   1.000  O
  C393     1.0000 0.99830  0.57227  0.69189  Biso   1.000  C
  H225     1.0000 0.97460  0.56240  0.67610  Biso   1.000  H
  C394     1.0000 0.97570  0.59400  0.71505  Biso   1.000  C
  H226     1.0000 0.93580  0.59710  0.71490  Biso   1.000  H
  C395     1.0000 0.00650  0.61133  0.73809  Biso   1.000  C
  C396     1.0000 0.06250  0.60117  0.73942  Biso   1.000  C
  H227     1.0000 0.08600  0.61020  0.75580  Biso   1.000  H
  C397     1.0000 0.08630  0.57807  0.71772  Biso   1.000  C
  H228     1.0000 0.12440  0.57110  0.72080  Biso   1.000  H
  C398     1.0000 0.05600  0.56548  0.69236  Biso   1.000  C
  C399     1.0000 0.90610  0.66897  0.78203  Biso   1.000  C
  H229     1.0000 0.86770  0.67580  0.78010  Biso   1.000  H
  C400     1.0000 0.92900  0.64655  0.75912  Biso   1.000  C
  H230     1.0000 0.90610  0.63900  0.74180  Biso   1.000  H
  C401     1.0000 0.98480  0.63545  0.76183  Biso   1.000  C
  C402     1.0000 0.01710  0.64745  0.78715  Biso   1.000  C
  H231     1.0000 0.05490  0.63970  0.78950  Biso   1.000  H
  C403     1.0000 0.99560  0.67116  0.81013  Biso   1.000  C
  H232     1.0000 0.01940  0.67970  0.82660  Biso   1.000  H
  C404     1.0000 0.93960  0.68134  0.80774  Biso   1.000  C
  C405     1.0000 0.08210  0.54217  0.66779  Biso   1.000  C
  C406     1.0000 0.91560  0.70553  0.83232  Biso   1.000  C
  O117     1.0000 0.05246  0.02871  0.14685  Biso   1.000  O
  O118     1.0000 0.13314  0.03670  0.16831  Biso   1.000  O
  O119     1.0000 0.86175  0.20873  0.33373  Biso   1.000  O
  O120     1.0000 0.94775  0.22103  0.35078  Biso   1.000  O
  C407     1.0000 0.99830  0.07227  0.19189  Biso   1.000  C
  H233     1.0000 0.97460  0.06240  0.17610  Biso   1.000  H
  C408     1.0000 0.97570  0.09400  0.21505  Biso   1.000  C
  H234     1.0000 0.93580  0.09710  0.21490  Biso   1.000  H
  C409     1.0000 0.00650  0.11133  0.23809  Biso   1.000  C
  C410     1.0000 0.06250  0.10117  0.23942  Biso   1.000  C
  H235     1.0000 0.08600  0.11020  0.25580  Biso   1.000  H
  C411     1.0000 0.08630  0.07807  0.21772  Biso   1.000  C
  H236     1.0000 0.12440  0.07110  0.22080  Biso   1.000  H
  C412     1.0000 0.05600  0.06548  0.19236  Biso   1.000  C
  C413     1.0000 0.90610  0.16897  0.28203  Biso   1.000  C
  H237     1.0000 0.86770  0.17580  0.28010  Biso   1.000  H
  C414     1.0000 0.92900  0.14655  0.25912  Biso   1.000  C
  H238     1.0000 0.90610  0.13900  0.24180  Biso   1.000  H
  C415     1.0000 0.98480  0.13545  0.26183  Biso   1.000  C
  C416     1.0000 0.01710  0.14745  0.28715  Biso   1.000  C
  H239     1.0000 0.05490  0.13970  0.28950  Biso   1.000  H
  C417     1.0000 0.99560  0.17116  0.31013  Biso   1.000  C
  H240     1.0000 0.01940  0.17970  0.32660  Biso   1.000  H
  C418     1.0000 0.93960  0.18134  0.30774  Biso   1.000  C
  C419     1.0000 0.08210  0.04217  0.16779  Biso   1.000  C
  C420     1.0000 0.91560  0.20553  0.33232  Biso   1.000  C
  O121     1.0000 0.55246  0.52871  0.14685  Biso   1.000  O
  O122     1.0000 0.63314  0.53670  0.16831  Biso   1.000  O
  O123     1.0000 0.36175  0.70873  0.33373  Biso   1.000  O
  O124     1.0000 0.44775  0.72103  0.35078  Biso   1.000  O
  C421     1.0000 0.49830  0.57227  0.19189  Biso   1.000  C
  H241     1.0000 0.47460  0.56240  0.17610  Biso   1.000  H
  C422     1.0000 0.47570  0.59400  0.21505  Biso   1.000  C
  H242     1.0000 0.43580  0.59710  0.21490  Biso   1.000  H
  C423     1.0000 0.50650  0.61133  0.23809  Biso   1.000  C
  C424     1.0000 0.56250  0.60117  0.23942  Biso   1.000  C
  H243     1.0000 0.58600  0.61020  0.25580  Biso   1.000  H
  C425     1.0000 0.58630  0.57807  0.21772  Biso   1.000  C
  H244     1.0000 0.62440  0.57110  0.22080  Biso   1.000  H
  C426     1.0000 0.55600  0.56548  0.19236  Biso   1.000  C
  C427     1.0000 0.40610  0.66897  0.28203  Biso   1.000  C
  H245     1.0000 0.36770  0.67580  0.28010  Biso   1.000  H
  C428     1.0000 0.42900  0.64655  0.25912  Biso   1.000  C
  H246     1.0000 0.40610  0.63900  0.24180  Biso   1.000  H
  C429     1.0000 0.48480  0.63545  0.26183  Biso   1.000  C
  C430     1.0000 0.51710  0.64745  0.28715  Biso   1.000  C
  H247     1.0000 0.55490  0.63970  0.28950  Biso   1.000  H
  C431     1.0000 0.49560  0.67116  0.31013  Biso   1.000  C
  H248     1.0000 0.51940  0.67970  0.32660  Biso   1.000  H
  C432     1.0000 0.43960  0.68134  0.30774  Biso   1.000  C
  C433     1.0000 0.58210  0.54217  0.16779  Biso   1.000  C
  C434     1.0000 0.41560  0.70553  0.33232  Biso   1.000  C
  O125     1.0000 0.55246  0.02871  0.64685  Biso   1.000  O
  O126     1.0000 0.63314  0.03670  0.66831  Biso   1.000  O
  O127     1.0000 0.36175  0.20873  0.83373  Biso   1.000  O
  O128     1.0000 0.44775  0.22103  0.85078  Biso   1.000  O
  C435     1.0000 0.49830  0.07227  0.69189  Biso   1.000  C
  H249     1.0000 0.47460  0.06240  0.67610  Biso   1.000  H
  C436     1.0000 0.47570  0.09400  0.71505  Biso   1.000  C
  H250     1.0000 0.43580  0.09710  0.71490  Biso   1.000  H
  C437     1.0000 0.50650  0.11133  0.73809  Biso   1.000  C
  C438     1.0000 0.56250  0.10117  0.73942  Biso   1.000  C
  H251     1.0000 0.58600  0.11020  0.75580  Biso   1.000  H
  C439     1.0000 0.58630  0.07807  0.71772  Biso   1.000  C
  H252     1.0000 0.62440  0.07110  0.72080  Biso   1.000  H
  C440     1.0000 0.55600  0.06548  0.69236  Biso   1.000  C
  C441     1.0000 0.40610  0.16897  0.78203  Biso   1.000  C
  H253     1.0000 0.36770  0.17580  0.78010  Biso   1.000  H
  C442     1.0000 0.42900  0.14655  0.75912  Biso   1.000  C
  H254     1.0000 0.40610  0.13900  0.74180  Biso   1.000  H
  C443     1.0000 0.48480  0.13545  0.76183  Biso   1.000  C
  C444     1.0000 0.51710  0.14745  0.78715  Biso   1.000  C
  H255     1.0000 0.55490  0.13970  0.78950  Biso   1.000  H
  C445     1.0000 0.49560  0.17116  0.81013  Biso   1.000  C
  H256     1.0000 0.51940  0.17970  0.82660  Biso   1.000  H
  C446     1.0000 0.43960  0.18134  0.80774  Biso   1.000  C
  C447     1.0000 0.58210  0.04217  0.66779  Biso   1.000  C
  C448     1.0000 0.41560  0.20553  0.83232  Biso   1.000  C
  In9      1.0000 0.87500  0.24866  0.37500  Biso   1.000  In
  In10     1.0000 0.87500  0.74866  0.87500  Biso   1.000  In
  In11     1.0000 0.37500  0.24866  0.87500  Biso   1.000  In
  In12     1.0000 0.37500  0.74866  0.37500  Biso   1.000  In
  In13     1.0000 0.12500  0.49866  0.62500  Biso   1.000  In
  In14     1.0000 0.12500  0.99866  0.12500  Biso   1.000  In
  In15     1.0000 0.62500  0.49866  0.12500  Biso   1.000  In
  In16     1.0000 0.62500  0.99866  0.62500  Biso   1.000  In
  O129     1.0000 0.80246  0.47129  0.39685  Biso   1.000  O
  O130     1.0000 0.88314  0.46330  0.41831  Biso   1.000  O
  O131     1.0000 0.61175  0.29127  0.58373  Biso   1.000  O
  O132     1.0000 0.69775  0.27897  0.60078  Biso   1.000  O
  C449     1.0000 0.74830  0.42773  0.44189  Biso   1.000  C
  H257     1.0000 0.72460  0.43760  0.42610  Biso   1.000  H
  C450     1.0000 0.72570  0.40600  0.46505  Biso   1.000  C
  H258     1.0000 0.68580  0.40290  0.46490  Biso   1.000  H
  C451     1.0000 0.75650  0.38867  0.48809  Biso   1.000  C
  C452     1.0000 0.81250  0.39883  0.48942  Biso   1.000  C
  H259     1.0000 0.83600  0.38980  0.50580  Biso   1.000  H
  C453     1.0000 0.83630  0.42193  0.46772  Biso   1.000  C
  H260     1.0000 0.87440  0.42890  0.47080  Biso   1.000  H
  C454     1.0000 0.80600  0.43452  0.44236  Biso   1.000  C
  C455     1.0000 0.65610  0.33103  0.53203  Biso   1.000  C
  H261     1.0000 0.61770  0.32420  0.53010  Biso   1.000  H
  C456     1.0000 0.67900  0.35345  0.50912  Biso   1.000  C
  H262     1.0000 0.65610  0.36100  0.49180  Biso   1.000  H
  C457     1.0000 0.73480  0.36455  0.51183  Biso   1.000  C
  C458     1.0000 0.76710  0.35255  0.53715  Biso   1.000  C
  H263     1.0000 0.80490  0.36030  0.53950  Biso   1.000  H
  C459     1.0000 0.74560  0.32884  0.56013  Biso   1.000  C
  H264     1.0000 0.76940  0.32030  0.57660  Biso   1.000  H
  C460     1.0000 0.68960  0.31866  0.55774  Biso   1.000  C
  C461     1.0000 0.83210  0.45783  0.41779  Biso   1.000  C
  C462     1.0000 0.66560  0.29447  0.58232  Biso   1.000  C
  O133     1.0000 0.80246  0.97129  0.89685  Biso   1.000  O
  O134     1.0000 0.88314  0.96330  0.91831  Biso   1.000  O
  O135     1.0000 0.61175  0.79127  0.08373  Biso   1.000  O
  O136     1.0000 0.69775  0.77897  0.10078  Biso   1.000  O
  C463     1.0000 0.74830  0.92773  0.94189  Biso   1.000  C
  H265     1.0000 0.72460  0.93760  0.92610  Biso   1.000  H
  C464     1.0000 0.72570  0.90600  0.96505  Biso   1.000  C
  H266     1.0000 0.68580  0.90290  0.96490  Biso   1.000  H
  C465     1.0000 0.75650  0.88867  0.98809  Biso   1.000  C
  C466     1.0000 0.81250  0.89883  0.98942  Biso   1.000  C
  H267     1.0000 0.83600  0.88980  0.00580  Biso   1.000  H
  C467     1.0000 0.83630  0.92193  0.96772  Biso   1.000  C
  H268     1.0000 0.87440  0.92890  0.97080  Biso   1.000  H
  C468     1.0000 0.80600  0.93452  0.94236  Biso   1.000  C
  C469     1.0000 0.65610  0.83103  0.03203  Biso   1.000  C
  H269     1.0000 0.61770  0.82420  0.03010  Biso   1.000  H
  C470     1.0000 0.67900  0.85345  0.00912  Biso   1.000  C
  H270     1.0000 0.65610  0.86100  0.99180  Biso   1.000  H
  C471     1.0000 0.73480  0.86455  0.01183  Biso   1.000  C
  C472     1.0000 0.76710  0.85255  0.03715  Biso   1.000  C
  H271     1.0000 0.80490  0.86030  0.03950  Biso   1.000  H
  C473     1.0000 0.74560  0.82884  0.06013  Biso   1.000  C
  H272     1.0000 0.76940  0.82030  0.07660  Biso   1.000  H
  C474     1.0000 0.68960  0.81866  0.05774  Biso   1.000  C
  C475     1.0000 0.83210  0.95783  0.91779  Biso   1.000  C
  C476     1.0000 0.66560  0.79447  0.08232  Biso   1.000  C
  O137     1.0000 0.30246  0.47129  0.89685  Biso   1.000  O
  O138     1.0000 0.38314  0.46330  0.91831  Biso   1.000  O
  O139     1.0000 0.11175  0.29127  0.08373  Biso   1.000  O
  O140     1.0000 0.19775  0.27897  0.10078  Biso   1.000  O
  C477     1.0000 0.24830  0.42773  0.94189  Biso   1.000  C
  H273     1.0000 0.22460  0.43760  0.92610  Biso   1.000  H
  C478     1.0000 0.22570  0.40600  0.96505  Biso   1.000  C
  H274     1.0000 0.18580  0.40290  0.96490  Biso   1.000  H
  C479     1.0000 0.25650  0.38867  0.98809  Biso   1.000  C
  C480     1.0000 0.31250  0.39883  0.98942  Biso   1.000  C
  H275     1.0000 0.33600  0.38980  0.00580  Biso   1.000  H
  C481     1.0000 0.33630  0.42193  0.96772  Biso   1.000  C
  H276     1.0000 0.37440  0.42890  0.97080  Biso   1.000  H
  C482     1.0000 0.30600  0.43452  0.94236  Biso   1.000  C
  C483     1.0000 0.15610  0.33103  0.03203  Biso   1.000  C
  H277     1.0000 0.11770  0.32420  0.03010  Biso   1.000  H
  C484     1.0000 0.17900  0.35345  0.00912  Biso   1.000  C
  H278     1.0000 0.15610  0.36100  0.99180  Biso   1.000  H
  C485     1.0000 0.23480  0.36455  0.01183  Biso   1.000  C
  C486     1.0000 0.26710  0.35255  0.03715  Biso   1.000  C
  H279     1.0000 0.30490  0.36030  0.03950  Biso   1.000  H
  C487     1.0000 0.24560  0.32884  0.06013  Biso   1.000  C
  H280     1.0000 0.26940  0.32030  0.07660  Biso   1.000  H
  C488     1.0000 0.18960  0.31866  0.05774  Biso   1.000  C
  C489     1.0000 0.33210  0.45783  0.91779  Biso   1.000  C
  C490     1.0000 0.16560  0.29447  0.08232  Biso   1.000  C
  O141     1.0000 0.30246  0.97129  0.39685  Biso   1.000  O
  O142     1.0000 0.38314  0.96330  0.41831  Biso   1.000  O
  O143     1.0000 0.11175  0.79127  0.58373  Biso   1.000  O
  O144     1.0000 0.19775  0.77897  0.60078  Biso   1.000  O
  C491     1.0000 0.24830  0.92773  0.44189  Biso   1.000  C
  H281     1.0000 0.22460  0.93760  0.42610  Biso   1.000  H
  C492     1.0000 0.22570  0.90600  0.46505  Biso   1.000  C
  H282     1.0000 0.18580  0.90290  0.46490  Biso   1.000  H
  C493     1.0000 0.25650  0.88867  0.48809  Biso   1.000  C
  C494     1.0000 0.31250  0.89883  0.48942  Biso   1.000  C
  H283     1.0000 0.33600  0.88980  0.50580  Biso   1.000  H
  C495     1.0000 0.33630  0.92193  0.46772  Biso   1.000  C
  H284     1.0000 0.37440  0.92890  0.47080  Biso   1.000  H
  C496     1.0000 0.30600  0.93452  0.44236  Biso   1.000  C
  C497     1.0000 0.15610  0.83103  0.53203  Biso   1.000  C
  H285     1.0000 0.11770  0.82420  0.53010  Biso   1.000  H
  C498     1.0000 0.17900  0.85345  0.50912  Biso   1.000  C
  H286     1.0000 0.15610  0.86100  0.49180  Biso   1.000  H
  C499     1.0000 0.23480  0.86455  0.51183  Biso   1.000  C
  C500     1.0000 0.26710  0.85255  0.53715  Biso   1.000  C
  H287     1.0000 0.30490  0.86030  0.53950  Biso   1.000  H
  C501     1.0000 0.24560  0.82884  0.56013  Biso   1.000  C
  H288     1.0000 0.26940  0.82030  0.57660  Biso   1.000  H
  C502     1.0000 0.18960  0.81866  0.55774  Biso   1.000  C
  C503     1.0000 0.33210  0.95783  0.41779  Biso   1.000  C
  C504     1.0000 0.16560  0.79447  0.58232  Biso   1.000  C
  O145     1.0000 0.94754  0.47129  0.35315  Biso   1.000  O
  O146     1.0000 0.86686  0.46330  0.33169  Biso   1.000  O
  O147     1.0000 0.13825  0.29127  0.16627  Biso   1.000  O
  O148     1.0000 0.05225  0.27897  0.14922  Biso   1.000  O
  C505     1.0000 0.00170  0.42773  0.30811  Biso   1.000  C
  H289     1.0000 0.02540  0.43760  0.32390  Biso   1.000  H
  C506     1.0000 0.02430  0.40600  0.28495  Biso   1.000  C
  H290     1.0000 0.06420  0.40290  0.28510  Biso   1.000  H
  C507     1.0000 0.99350  0.38867  0.26191  Biso   1.000  C
  C508     1.0000 0.93750  0.39883  0.26058  Biso   1.000  C
  H291     1.0000 0.91400  0.38980  0.24420  Biso   1.000  H
  C509     1.0000 0.91370  0.42193  0.28228  Biso   1.000  C
  H292     1.0000 0.87560  0.42890  0.27920  Biso   1.000  H
  C510     1.0000 0.94400  0.43452  0.30764  Biso   1.000  C
  C511     1.0000 0.09390  0.33103  0.21797  Biso   1.000  C
  H293     1.0000 0.13230  0.32420  0.21990  Biso   1.000  H
  C512     1.0000 0.07100  0.35345  0.24088  Biso   1.000  C
  H294     1.0000 0.09390  0.36100  0.25820  Biso   1.000  H
  C513     1.0000 0.01520  0.36455  0.23817  Biso   1.000  C
  C514     1.0000 0.98290  0.35255  0.21285  Biso   1.000  C
  H295     1.0000 0.94510  0.36030  0.21050  Biso   1.000  H
  C515     1.0000 0.00440  0.32884  0.18987  Biso   1.000  C
  H296     1.0000 0.98060  0.32030  0.17340  Biso   1.000  H
  C516     1.0000 0.06040  0.31866  0.19226  Biso   1.000  C
  C517     1.0000 0.91790  0.45783  0.33221  Biso   1.000  C
  C518     1.0000 0.08440  0.29447  0.16768  Biso   1.000  C
  O149     1.0000 0.94754  0.97129  0.85315  Biso   1.000  O
  O150     1.0000 0.86686  0.96330  0.83169  Biso   1.000  O
  O151     1.0000 0.13825  0.79127  0.66627  Biso   1.000  O
  O152     1.0000 0.05225  0.77897  0.64922  Biso   1.000  O
  C519     1.0000 0.00170  0.92773  0.80811  Biso   1.000  C
  H297     1.0000 0.02540  0.93760  0.82390  Biso   1.000  H
  C520     1.0000 0.02430  0.90600  0.78495  Biso   1.000  C
  H298     1.0000 0.06420  0.90290  0.78510  Biso   1.000  H
  C521     1.0000 0.99350  0.88867  0.76191  Biso   1.000  C
  C522     1.0000 0.93750  0.89883  0.76058  Biso   1.000  C
  H299     1.0000 0.91400  0.88980  0.74420  Biso   1.000  H
  C523     1.0000 0.91370  0.92193  0.78228  Biso   1.000  C
  H300     1.0000 0.87560  0.92890  0.77920  Biso   1.000  H
  C524     1.0000 0.94400  0.93452  0.80764  Biso   1.000  C
  C525     1.0000 0.09390  0.83103  0.71797  Biso   1.000  C
  H301     1.0000 0.13230  0.82420  0.71990  Biso   1.000  H
  C526     1.0000 0.07100  0.85345  0.74088  Biso   1.000  C
  H302     1.0000 0.09390  0.86100  0.75820  Biso   1.000  H
  C527     1.0000 0.01520  0.86455  0.73817  Biso   1.000  C
  C528     1.0000 0.98290  0.85255  0.71285  Biso   1.000  C
  H303     1.0000 0.94510  0.86030  0.71050  Biso   1.000  H
  C529     1.0000 0.00440  0.82884  0.68987  Biso   1.000  C
  H304     1.0000 0.98060  0.82030  0.67340  Biso   1.000  H
  C530     1.0000 0.06040  0.81866  0.69226  Biso   1.000  C
  C531     1.0000 0.91790  0.95783  0.83221  Biso   1.000  C
  C532     1.0000 0.08440  0.79447  0.66768  Biso   1.000  C
  O153     1.0000 0.44754  0.47129  0.85315  Biso   1.000  O
  O154     1.0000 0.36686  0.46330  0.83169  Biso   1.000  O
  O155     1.0000 0.63825  0.29127  0.66627  Biso   1.000  O
  O156     1.0000 0.55225  0.27897  0.64922  Biso   1.000  O
  C533     1.0000 0.50170  0.42773  0.80811  Biso   1.000  C
  H305     1.0000 0.52540  0.43760  0.82390  Biso   1.000  H
  C534     1.0000 0.52430  0.40600  0.78495  Biso   1.000  C
  H306     1.0000 0.56420  0.40290  0.78510  Biso   1.000  H
  C535     1.0000 0.49350  0.38867  0.76191  Biso   1.000  C
  C536     1.0000 0.43750  0.39883  0.76058  Biso   1.000  C
  H307     1.0000 0.41400  0.38980  0.74420  Biso   1.000  H
  C537     1.0000 0.41370  0.42193  0.78228  Biso   1.000  C
  H308     1.0000 0.37560  0.42890  0.77920  Biso   1.000  H
  C538     1.0000 0.44400  0.43452  0.80764  Biso   1.000  C
  C539     1.0000 0.59390  0.33103  0.71797  Biso   1.000  C
  H309     1.0000 0.63230  0.32420  0.71990  Biso   1.000  H
  C540     1.0000 0.57100  0.35345  0.74088  Biso   1.000  C
  H310     1.0000 0.59390  0.36100  0.75820  Biso   1.000  H
  C541     1.0000 0.51520  0.36455  0.73817  Biso   1.000  C
  C542     1.0000 0.48290  0.35255  0.71285  Biso   1.000  C
  H311     1.0000 0.44510  0.36030  0.71050  Biso   1.000  H
  C543     1.0000 0.50440  0.32884  0.68987  Biso   1.000  C
  H312     1.0000 0.48060  0.32030  0.67340  Biso   1.000  H
  C544     1.0000 0.56040  0.31866  0.69226  Biso   1.000  C
  C545     1.0000 0.41790  0.45783  0.83221  Biso   1.000  C
  C546     1.0000 0.58440  0.29447  0.66768  Biso   1.000  C
  O157     1.0000 0.44754  0.97129  0.35315  Biso   1.000  O
  O158     1.0000 0.36686  0.96330  0.33169  Biso   1.000  O
  O159     1.0000 0.63825  0.79127  0.16627  Biso   1.000  O
  O160     1.0000 0.55225  0.77897  0.14922  Biso   1.000  O
  C547     1.0000 0.50170  0.92773  0.30811  Biso   1.000  C
  H313     1.0000 0.52540  0.93760  0.32390  Biso   1.000  H
  C548     1.0000 0.52430  0.90600  0.28495  Biso   1.000  C
  H314     1.0000 0.56420  0.90290  0.28510  Biso   1.000  H
  C549     1.0000 0.49350  0.88867  0.26191  Biso   1.000  C
  C550     1.0000 0.43750  0.89883  0.26058  Biso   1.000  C
  H315     1.0000 0.41400  0.88980  0.24420  Biso   1.000  H
  C551     1.0000 0.41370  0.92193  0.28228  Biso   1.000  C
  H316     1.0000 0.37560  0.92890  0.27920  Biso   1.000  H
  C552     1.0000 0.44400  0.93452  0.30764  Biso   1.000  C
  C553     1.0000 0.59390  0.83103  0.21797  Biso   1.000  C
  H317     1.0000 0.63230  0.82420  0.21990  Biso   1.000  H
  C554     1.0000 0.57100  0.85345  0.24088  Biso   1.000  C
  H318     1.0000 0.59390  0.86100  0.25820  Biso   1.000  H
  C555     1.0000 0.51520  0.86455  0.23817  Biso   1.000  C
  C556     1.0000 0.48290  0.85255  0.21285  Biso   1.000  C
  H319     1.0000 0.44510  0.86030  0.21050  Biso   1.000  H
  C557     1.0000 0.50440  0.82884  0.18987  Biso   1.000  C
  H320     1.0000 0.48060  0.82030  0.17340  Biso   1.000  H
  C558     1.0000 0.56040  0.81866  0.19226  Biso   1.000  C
  C559     1.0000 0.41790  0.95783  0.33221  Biso   1.000  C
  C560     1.0000 0.58440  0.79447  0.16768  Biso   1.000  C
  O161     1.0000 0.05246  0.72129  0.60315  Biso   1.000  O
  O162     1.0000 0.13314  0.71330  0.58169  Biso   1.000  O
  O163     1.0000 0.86175  0.54127  0.41627  Biso   1.000  O
  O164     1.0000 0.94775  0.52897  0.39922  Biso   1.000  O
  C561     1.0000 0.99830  0.67773  0.55811  Biso   1.000  C
  H321     1.0000 0.97460  0.68760  0.57390  Biso   1.000  H
  C562     1.0000 0.97570  0.65600  0.53495  Biso   1.000  C
  H322     1.0000 0.93580  0.65290  0.53510  Biso   1.000  H
  C563     1.0000 0.00650  0.63867  0.51191  Biso   1.000  C
  C564     1.0000 0.06250  0.64883  0.51058  Biso   1.000  C
  H323     1.0000 0.08600  0.63980  0.49420  Biso   1.000  H
  C565     1.0000 0.08630  0.67193  0.53228  Biso   1.000  C
  H324     1.0000 0.12440  0.67890  0.52920  Biso   1.000  H
  C566     1.0000 0.05600  0.68452  0.55764  Biso   1.000  C
  C567     1.0000 0.90610  0.58103  0.46797  Biso   1.000  C
  H325     1.0000 0.86770  0.57420  0.46990  Biso   1.000  H
  C568     1.0000 0.92900  0.60345  0.49088  Biso   1.000  C
  H326     1.0000 0.90610  0.61100  0.50820  Biso   1.000  H
  C569     1.0000 0.98480  0.61455  0.48817  Biso   1.000  C
  C570     1.0000 0.01710  0.60255  0.46285  Biso   1.000  C
  H327     1.0000 0.05490  0.61030  0.46050  Biso   1.000  H
  C571     1.0000 0.99560  0.57884  0.43987  Biso   1.000  C
  H328     1.0000 0.01940  0.57030  0.42340  Biso   1.000  H
  C572     1.0000 0.93960  0.56866  0.44226  Biso   1.000  C
  C573     1.0000 0.08210  0.70783  0.58221  Biso   1.000  C
  C574     1.0000 0.91560  0.54447  0.41768  Biso   1.000  C
  O165     1.0000 0.05246  0.22129  0.10315  Biso   1.000  O
  O166     1.0000 0.13314  0.21330  0.08169  Biso   1.000  O
  O167     1.0000 0.86175  0.04127  0.91627  Biso   1.000  O
  O168     1.0000 0.94775  0.02897  0.89922  Biso   1.000  O
  C575     1.0000 0.99830  0.17773  0.05811  Biso   1.000  C
  H329     1.0000 0.97460  0.18760  0.07390  Biso   1.000  H
  C576     1.0000 0.97570  0.15600  0.03495  Biso   1.000  C
  H330     1.0000 0.93580  0.15290  0.03510  Biso   1.000  H
  C577     1.0000 0.00650  0.13867  0.01191  Biso   1.000  C
  C578     1.0000 0.06250  0.14883  0.01058  Biso   1.000  C
  H331     1.0000 0.08600  0.13980  0.99420  Biso   1.000  H
  C579     1.0000 0.08630  0.17193  0.03228  Biso   1.000  C
  H332     1.0000 0.12440  0.17890  0.02920  Biso   1.000  H
  C580     1.0000 0.05600  0.18452  0.05764  Biso   1.000  C
  C581     1.0000 0.90610  0.08103  0.96797  Biso   1.000  C
  H333     1.0000 0.86770  0.07420  0.96990  Biso   1.000  H
  C582     1.0000 0.92900  0.10345  0.99088  Biso   1.000  C
  H334     1.0000 0.90610  0.11100  0.00820  Biso   1.000  H
  C583     1.0000 0.98480  0.11455  0.98817  Biso   1.000  C
  C584     1.0000 0.01710  0.10255  0.96285  Biso   1.000  C
  H335     1.0000 0.05490  0.11030  0.96050  Biso   1.000  H
  C585     1.0000 0.99560  0.07884  0.93987  Biso   1.000  C
  H336     1.0000 0.01940  0.07030  0.92340  Biso   1.000  H
  C586     1.0000 0.93960  0.06866  0.94226  Biso   1.000  C
  C587     1.0000 0.08210  0.20783  0.08221  Biso   1.000  C
  C588     1.0000 0.91560  0.04447  0.91768  Biso   1.000  C
  O169     1.0000 0.55246  0.72129  0.10315  Biso   1.000  O
  O170     1.0000 0.63314  0.71330  0.08169  Biso   1.000  O
  O171     1.0000 0.36175  0.54127  0.91627  Biso   1.000  O
  O172     1.0000 0.44775  0.52897  0.89922  Biso   1.000  O
  C589     1.0000 0.49830  0.67773  0.05811  Biso   1.000  C
  H337     1.0000 0.47460  0.68760  0.07390  Biso   1.000  H
  C590     1.0000 0.47570  0.65600  0.03495  Biso   1.000  C
  H338     1.0000 0.43580  0.65290  0.03510  Biso   1.000  H
  C591     1.0000 0.50650  0.63867  0.01191  Biso   1.000  C
  C592     1.0000 0.56250  0.64883  0.01058  Biso   1.000  C
  H339     1.0000 0.58600  0.63980  0.99420  Biso   1.000  H
  C593     1.0000 0.58630  0.67193  0.03228  Biso   1.000  C
  H340     1.0000 0.62440  0.67890  0.02920  Biso   1.000  H
  C594     1.0000 0.55600  0.68452  0.05764  Biso   1.000  C
  C595     1.0000 0.40610  0.58103  0.96797  Biso   1.000  C
  H341     1.0000 0.36770  0.57420  0.96990  Biso   1.000  H
  C596     1.0000 0.42900  0.60345  0.99088  Biso   1.000  C
  H342     1.0000 0.40610  0.61100  0.00820  Biso   1.000  H
  C597     1.0000 0.48480  0.61455  0.98817  Biso   1.000  C
  C598     1.0000 0.51710  0.60255  0.96285  Biso   1.000  C
  H343     1.0000 0.55490  0.61030  0.96050  Biso   1.000  H
  C599     1.0000 0.49560  0.57884  0.93987  Biso   1.000  C
  H344     1.0000 0.51940  0.57030  0.92340  Biso   1.000  H
  C600     1.0000 0.43960  0.56866  0.94226  Biso   1.000  C
  C601     1.0000 0.58210  0.70783  0.08221  Biso   1.000  C
  C602     1.0000 0.41560  0.54447  0.91768  Biso   1.000  C
  O173     1.0000 0.55246  0.22129  0.60315  Biso   1.000  O
  O174     1.0000 0.63314  0.21330  0.58169  Biso   1.000  O
  O175     1.0000 0.36175  0.04127  0.41627  Biso   1.000  O
  O176     1.0000 0.44775  0.02897  0.39922  Biso   1.000  O
  C603     1.0000 0.49830  0.17773  0.55811  Biso   1.000  C
  H345     1.0000 0.47460  0.18760  0.57390  Biso   1.000  H
  C604     1.0000 0.47570  0.15600  0.53495  Biso   1.000  C
  H346     1.0000 0.43580  0.15290  0.53510  Biso   1.000  H
  C605     1.0000 0.50650  0.13867  0.51191  Biso   1.000  C
  C606     1.0000 0.56250  0.14883  0.51058  Biso   1.000  C
  H347     1.0000 0.58600  0.13980  0.49420  Biso   1.000  H
  C607     1.0000 0.58630  0.17193  0.53228  Biso   1.000  C
  H348     1.0000 0.62440  0.17890  0.52920  Biso   1.000  H
  C608     1.0000 0.55600  0.18452  0.55764  Biso   1.000  C
  C609     1.0000 0.40610  0.08103  0.46797  Biso   1.000  C
  H349     1.0000 0.36770  0.07420  0.46990  Biso   1.000  H
  C610     1.0000 0.42900  0.10345  0.49088  Biso   1.000  C
  H350     1.0000 0.40610  0.11100  0.50820  Biso   1.000  H
  C611     1.0000 0.48480  0.11455  0.48817  Biso   1.000  C
  C612     1.0000 0.51710  0.10255  0.46285  Biso   1.000  C
  H351     1.0000 0.55490  0.11030  0.46050  Biso   1.000  H
  C613     1.0000 0.49560  0.07884  0.43987  Biso   1.000  C
  H352     1.0000 0.51940  0.07030  0.42340  Biso   1.000  H
  C614     1.0000 0.43960  0.06866  0.44226  Biso   1.000  C
  C615     1.0000 0.58210  0.20783  0.58221  Biso   1.000  C
  C616     1.0000 0.41560  0.04447  0.41768  Biso   1.000  C
  O177     1.0000 0.19754  0.72129  0.64685  Biso   1.000  O
  O178     1.0000 0.11686  0.71330  0.66831  Biso   1.000  O
  O179     1.0000 0.38825  0.54127  0.83373  Biso   1.000  O
  O180     1.0000 0.30225  0.52897  0.85078  Biso   1.000  O
  C617     1.0000 0.25170  0.67773  0.69189  Biso   1.000  C
  H353     1.0000 0.27540  0.68760  0.67610  Biso   1.000  H
  C618     1.0000 0.27430  0.65600  0.71505  Biso   1.000  C
  H354     1.0000 0.31420  0.65290  0.71490  Biso   1.000  H
  C619     1.0000 0.24350  0.63867  0.73809  Biso   1.000  C
  C620     1.0000 0.18750  0.64883  0.73942  Biso   1.000  C
  H355     1.0000 0.16400  0.63980  0.75580  Biso   1.000  H
  C621     1.0000 0.16370  0.67193  0.71772  Biso   1.000  C
  H356     1.0000 0.12560  0.67890  0.72080  Biso   1.000  H
  C622     1.0000 0.19400  0.68452  0.69236  Biso   1.000  C
  C623     1.0000 0.34390  0.58103  0.78203  Biso   1.000  C
  H357     1.0000 0.38230  0.57420  0.78010  Biso   1.000  H
  C624     1.0000 0.32100  0.60345  0.75912  Biso   1.000  C
  H358     1.0000 0.34390  0.61100  0.74180  Biso   1.000  H
  C625     1.0000 0.26520  0.61455  0.76183  Biso   1.000  C
  C626     1.0000 0.23290  0.60255  0.78715  Biso   1.000  C
  H359     1.0000 0.19510  0.61030  0.78950  Biso   1.000  H
  C627     1.0000 0.25440  0.57884  0.81013  Biso   1.000  C
  H360     1.0000 0.23060  0.57030  0.82660  Biso   1.000  H
  C628     1.0000 0.31040  0.56866  0.80774  Biso   1.000  C
  C629     1.0000 0.16790  0.70783  0.66779  Biso   1.000  C
  C630     1.0000 0.33440  0.54447  0.83232  Biso   1.000  C
  O181     1.0000 0.19754  0.22129  0.14685  Biso   1.000  O
  O182     1.0000 0.11686  0.21330  0.16831  Biso   1.000  O
  O183     1.0000 0.38825  0.04127  0.33373  Biso   1.000  O
  O184     1.0000 0.30225  0.02897  0.35078  Biso   1.000  O
  C631     1.0000 0.25170  0.17773  0.19189  Biso   1.000  C
  H361     1.0000 0.27540  0.18760  0.17610  Biso   1.000  H
  C632     1.0000 0.27430  0.15600  0.21505  Biso   1.000  C
  H362     1.0000 0.31420  0.15290  0.21490  Biso   1.000  H
  C633     1.0000 0.24350  0.13867  0.23809  Biso   1.000  C
  C634     1.0000 0.18750  0.14883  0.23942  Biso   1.000  C
  H363     1.0000 0.16400  0.13980  0.25580  Biso   1.000  H
  C635     1.0000 0.16370  0.17193  0.21772  Biso   1.000  C
  H364     1.0000 0.12560  0.17890  0.22080  Biso   1.000  H
  C636     1.0000 0.19400  0.18452  0.19236  Biso   1.000  C
  C637     1.0000 0.34390  0.08103  0.28203  Biso   1.000  C
  H365     1.0000 0.38230  0.07420  0.28010  Biso   1.000  H
  C638     1.0000 0.32100  0.10345  0.25912  Biso   1.000  C
  H366     1.0000 0.34390  0.11100  0.24180  Biso   1.000  H
  C639     1.0000 0.26520  0.11455  0.26183  Biso   1.000  C
  C640     1.0000 0.23290  0.10255  0.28715  Biso   1.000  C
  H367     1.0000 0.19510  0.11030  0.28950  Biso   1.000  H
  C641     1.0000 0.25440  0.07884  0.31013  Biso   1.000  C
  H368     1.0000 0.23060  0.07030  0.32660  Biso   1.000  H
  C642     1.0000 0.31040  0.06866  0.30774  Biso   1.000  C
  C643     1.0000 0.16790  0.20783  0.16779  Biso   1.000  C
  C644     1.0000 0.33440  0.04447  0.33232  Biso   1.000  C
  O185     1.0000 0.69754  0.72129  0.14685  Biso   1.000  O
  O186     1.0000 0.61686  0.71330  0.16831  Biso   1.000  O
  O187     1.0000 0.88825  0.54127  0.33373  Biso   1.000  O
  O188     1.0000 0.80225  0.52897  0.35078  Biso   1.000  O
  C645     1.0000 0.75170  0.67773  0.19189  Biso   1.000  C
  H369     1.0000 0.77540  0.68760  0.17610  Biso   1.000  H
  C646     1.0000 0.77430  0.65600  0.21505  Biso   1.000  C
  H370     1.0000 0.81420  0.65290  0.21490  Biso   1.000  H
  C647     1.0000 0.74350  0.63867  0.23809  Biso   1.000  C
  C648     1.0000 0.68750  0.64883  0.23942  Biso   1.000  C
  H371     1.0000 0.66400  0.63980  0.25580  Biso   1.000  H
  C649     1.0000 0.66370  0.67193  0.21772  Biso   1.000  C
  H372     1.0000 0.62560  0.67890  0.22080  Biso   1.000  H
  C650     1.0000 0.69400  0.68452  0.19236  Biso   1.000  C
  C651     1.0000 0.84390  0.58103  0.28203  Biso   1.000  C
  H373     1.0000 0.88230  0.57420  0.28010  Biso   1.000  H
  C652     1.0000 0.82100  0.60345  0.25912  Biso   1.000  C
  H374     1.0000 0.84390  0.61100  0.24180  Biso   1.000  H
  C653     1.0000 0.76520  0.61455  0.26183  Biso   1.000  C
  C654     1.0000 0.73290  0.60255  0.28715  Biso   1.000  C
  H375     1.0000 0.69510  0.61030  0.28950  Biso   1.000  H
  C655     1.0000 0.75440  0.57884  0.31013  Biso   1.000  C
  H376     1.0000 0.73060  0.57030  0.32660  Biso   1.000  H
  C656     1.0000 0.81040  0.56866  0.30774  Biso   1.000  C
  C657     1.0000 0.66790  0.70783  0.16779  Biso   1.000  C
  C658     1.0000 0.83440  0.54447  0.33232  Biso   1.000  C
  O189     1.0000 0.69754  0.22129  0.64685  Biso   1.000  O
  O190     1.0000 0.61686  0.21330  0.66831  Biso   1.000  O
  O191     1.0000 0.88825  0.04127  0.83373  Biso   1.000  O
  O192     1.0000 0.80225  0.02897  0.85078  Biso   1.000  O
  C659     1.0000 0.75170  0.17773  0.69189  Biso   1.000  C
  H377     1.0000 0.77540  0.18760  0.67610  Biso   1.000  H
  C660     1.0000 0.77430  0.15600  0.71505  Biso   1.000  C
  H378     1.0000 0.81420  0.15290  0.71490  Biso   1.000  H
  C661     1.0000 0.74350  0.13867  0.73809  Biso   1.000  C
  C662     1.0000 0.68750  0.14883  0.73942  Biso   1.000  C
  H379     1.0000 0.66400  0.13980  0.75580  Biso   1.000  H
  C663     1.0000 0.66370  0.17193  0.71772  Biso   1.000  C
  H380     1.0000 0.62560  0.17890  0.72080  Biso   1.000  H
  C664     1.0000 0.69400  0.18452  0.69236  Biso   1.000  C
  C665     1.0000 0.84390  0.08103  0.78203  Biso   1.000  C
  H381     1.0000 0.88230  0.07420  0.78010  Biso   1.000  H
  C666     1.0000 0.82100  0.10345  0.75912  Biso   1.000  C
  H382     1.0000 0.84390  0.11100  0.74180  Biso   1.000  H
  C667     1.0000 0.76520  0.11455  0.76183  Biso   1.000  C
  C668     1.0000 0.73290  0.10255  0.78715  Biso   1.000  C
  H383     1.0000 0.69510  0.11030  0.78950  Biso   1.000  H
  C669     1.0000 0.75440  0.07884  0.81013  Biso   1.000  C
  H384     1.0000 0.73060  0.07030  0.82660  Biso   1.000  H
  C670     1.0000 0.81040  0.06866  0.80774  Biso   1.000  C
  C671     1.0000 0.66790  0.20783  0.66779  Biso   1.000  C
  C672     1.0000 0.83440  0.04447  0.83232  Biso   1.000  C
  In17     1.0000 0.87500  0.50134  0.37500  Biso   1.000  In
  In18     1.0000 0.87500  0.00134  0.87500  Biso   1.000  In
  In19     1.0000 0.37500  0.50134  0.87500  Biso   1.000  In
  In20     1.0000 0.37500  0.00134  0.37500  Biso   1.000  In
  In21     1.0000 0.12500  0.75134  0.62500  Biso   1.000  In
  In22     1.0000 0.12500  0.25134  0.12500  Biso   1.000  In
  In23     1.0000 0.62500  0.75134  0.12500  Biso   1.000  In
  In24     1.0000 0.62500  0.25134  0.62500  Biso   1.000  In
  O193     1.0000 0.12597  0.66489  0.40196  Biso   1.000  O
  O194     1.0000 0.04151  0.64771  0.38586  Biso   1.000  O
  O195     1.0000 0.85289  0.83597  0.56901  Biso   1.000  O
  O196     1.0000 0.93868  0.84323  0.58744  Biso   1.000  O
  C673     1.0000 0.07880  0.71319  0.44436  Biso   1.000  C
  H385     1.0000 0.11860  0.71380  0.44090  Biso   1.000  H
  C674     1.0000 0.05360  0.73519  0.46641  Biso   1.000  C
  H386     1.0000 0.07680  0.75070  0.47740  Biso   1.000  H
  C675     1.0000 0.99490  0.73491  0.47274  Biso   1.000  C
  C676     1.0000 0.96190  0.71128  0.45602  Biso   1.000  C
  H387     1.0000 0.92240  0.70970  0.46000  Biso   1.000  H
  C677     1.0000 0.98730  0.69034  0.43365  Biso   1.000  C
  H388     1.0000 0.96390  0.67530  0.42200  Biso   1.000  H
  C678     1.0000 0.04510  0.69021  0.42739  Biso   1.000  C
  C679     1.0000 0.89090  0.79221  0.51843  Biso   1.000  C
  H389     1.0000 0.85270  0.79920  0.51690  Biso   1.000  H
  C680     1.0000 0.91470  0.76993  0.49554  Biso   1.000  C
  H390     1.0000 0.89150  0.76220  0.47840  Biso   1.000  H
  C681     1.0000 0.97100  0.75881  0.49704  Biso   1.000  C
  C682     1.0000 0.00470  0.77049  0.52320  Biso   1.000  C
  H391     1.0000 0.04260  0.76300  0.52540  Biso   1.000  H
  C683     1.0000 0.98230  0.79327  0.54606  Biso   1.000  C
  H392     1.0000 0.00570  0.80140  0.56290  Biso   1.000  H
  C684     1.0000 0.92680  0.80367  0.54390  Biso   1.000  C
  C685     1.0000 0.07140  0.66596  0.40346  Biso   1.000  C
  C686     1.0000 0.90350  0.82872  0.56738  Biso   1.000  C
  O197     1.0000 0.12597  0.16489  0.90196  Biso   1.000  O
  O198     1.0000 0.04151  0.14771  0.88586  Biso   1.000  O
  O199     1.0000 0.85289  0.33597  0.06901  Biso   1.000  O
  O200     1.0000 0.93868  0.34323  0.08744  Biso   1.000  O
  C687     1.0000 0.07880  0.21319  0.94436  Biso   1.000  C
  H393     1.0000 0.11860  0.21380  0.94090  Biso   1.000  H
  C688     1.0000 0.05360  0.23519  0.96641  Biso   1.000  C
  H394     1.0000 0.07680  0.25070  0.97740  Biso   1.000  H
  C689     1.0000 0.99490  0.23491  0.97274  Biso   1.000  C
  C690     1.0000 0.96190  0.21128  0.95602  Biso   1.000  C
  H395     1.0000 0.92240  0.20970  0.96000  Biso   1.000  H
  C691     1.0000 0.98730  0.19034  0.93365  Biso   1.000  C
  H396     1.0000 0.96390  0.17530  0.92200  Biso   1.000  H
  C692     1.0000 0.04510  0.19021  0.92739  Biso   1.000  C
  C693     1.0000 0.89090  0.29221  0.01843  Biso   1.000  C
  H397     1.0000 0.85270  0.29920  0.01690  Biso   1.000  H
  C694     1.0000 0.91470  0.26993  0.99554  Biso   1.000  C
  H398     1.0000 0.89150  0.26220  0.97840  Biso   1.000  H
  C695     1.0000 0.97100  0.25881  0.99704  Biso   1.000  C
  C696     1.0000 0.00470  0.27049  0.02320  Biso   1.000  C
  H399     1.0000 0.04260  0.26300  0.02540  Biso   1.000  H
  C697     1.0000 0.98230  0.29327  0.04606  Biso   1.000  C
  H400     1.0000 0.00570  0.30140  0.06290  Biso   1.000  H
  C698     1.0000 0.92680  0.30367  0.04390  Biso   1.000  C
  C699     1.0000 0.07140  0.16596  0.90346  Biso   1.000  C
  C700     1.0000 0.90350  0.32872  0.06738  Biso   1.000  C
  O201     1.0000 0.62597  0.66489  0.90196  Biso   1.000  O
  O202     1.0000 0.54151  0.64771  0.88586  Biso   1.000  O
  O203     1.0000 0.35289  0.83597  0.06901  Biso   1.000  O
  O204     1.0000 0.43868  0.84323  0.08744  Biso   1.000  O
  C701     1.0000 0.57880  0.71319  0.94436  Biso   1.000  C
  H401     1.0000 0.61860  0.71380  0.94090  Biso   1.000  H
  C702     1.0000 0.55360  0.73519  0.96641  Biso   1.000  C
  H402     1.0000 0.57680  0.75070  0.97740  Biso   1.000  H
  C703     1.0000 0.49490  0.73491  0.97274  Biso   1.000  C
  C704     1.0000 0.46190  0.71128  0.95602  Biso   1.000  C
  H403     1.0000 0.42240  0.70970  0.96000  Biso   1.000  H
  C705     1.0000 0.48730  0.69034  0.93365  Biso   1.000  C
  H404     1.0000 0.46390  0.67530  0.92200  Biso   1.000  H
  C706     1.0000 0.54510  0.69021  0.92739  Biso   1.000  C
  C707     1.0000 0.39090  0.79221  0.01843  Biso   1.000  C
  H405     1.0000 0.35270  0.79920  0.01690  Biso   1.000  H
  C708     1.0000 0.41470  0.76993  0.99554  Biso   1.000  C
  H406     1.0000 0.39150  0.76220  0.97840  Biso   1.000  H
  C709     1.0000 0.47100  0.75881  0.99704  Biso   1.000  C
  C710     1.0000 0.50470  0.77049  0.02320  Biso   1.000  C
  H407     1.0000 0.54260  0.76300  0.02540  Biso   1.000  H
  C711     1.0000 0.48230  0.79327  0.04606  Biso   1.000  C
  H408     1.0000 0.50570  0.80140  0.06290  Biso   1.000  H
  C712     1.0000 0.42680  0.80367  0.04390  Biso   1.000  C
  C713     1.0000 0.57140  0.66596  0.90346  Biso   1.000  C
  C714     1.0000 0.40350  0.82872  0.06738  Biso   1.000  C
  O205     1.0000 0.62597  0.16489  0.40196  Biso   1.000  O
  O206     1.0000 0.54151  0.14771  0.38586  Biso   1.000  O
  O207     1.0000 0.35289  0.33597  0.56901  Biso   1.000  O
  O208     1.0000 0.43868  0.34323  0.58744  Biso   1.000  O
  C715     1.0000 0.57880  0.21319  0.44436  Biso   1.000  C
  H409     1.0000 0.61860  0.21380  0.44090  Biso   1.000  H
  C716     1.0000 0.55360  0.23519  0.46641  Biso   1.000  C
  H410     1.0000 0.57680  0.25070  0.47740  Biso   1.000  H
  C717     1.0000 0.49490  0.23491  0.47274  Biso   1.000  C
  C718     1.0000 0.46190  0.21128  0.45602  Biso   1.000  C
  H411     1.0000 0.42240  0.20970  0.46000  Biso   1.000  H
  C719     1.0000 0.48730  0.19034  0.43365  Biso   1.000  C
  H412     1.0000 0.46390  0.17530  0.42200  Biso   1.000  H
  C720     1.0000 0.54510  0.19021  0.42739  Biso   1.000  C
  C721     1.0000 0.39090  0.29221  0.51843  Biso   1.000  C
  H413     1.0000 0.35270  0.29920  0.51690  Biso   1.000  H
  C722     1.0000 0.41470  0.26993  0.49554  Biso   1.000  C
  H414     1.0000 0.39150  0.26220  0.47840  Biso   1.000  H
  C723     1.0000 0.47100  0.25881  0.49704  Biso   1.000  C
  C724     1.0000 0.50470  0.27049  0.52320  Biso   1.000  C
  H415     1.0000 0.54260  0.26300  0.52540  Biso   1.000  H
  C725     1.0000 0.48230  0.29327  0.54606  Biso   1.000  C
  H416     1.0000 0.50570  0.30140  0.56290  Biso   1.000  H
  C726     1.0000 0.42680  0.30367  0.54390  Biso   1.000  C
  C727     1.0000 0.57140  0.16596  0.40346  Biso   1.000  C
  C728     1.0000 0.40350  0.32872  0.56738  Biso   1.000  C
  O209     1.0000 0.62403  0.08511  0.40196  Biso   1.000  O
  O210     1.0000 0.70849  0.10229  0.38586  Biso   1.000  O
  O211     1.0000 0.89711  0.91403  0.56901  Biso   1.000  O
  O212     1.0000 0.81132  0.90677  0.58744  Biso   1.000  O
  C729     1.0000 0.67120  0.03681  0.44436  Biso   1.000  C
  H417     1.0000 0.63140  0.03620  0.44090  Biso   1.000  H
  C730     1.0000 0.69640  0.01481  0.46641  Biso   1.000  C
  H418     1.0000 0.67320  0.99930  0.47740  Biso   1.000  H
  C731     1.0000 0.75510  0.01509  0.47274  Biso   1.000  C
  C732     1.0000 0.78810  0.03872  0.45602  Biso   1.000  C
  H419     1.0000 0.82760  0.04030  0.46000  Biso   1.000  H
  C733     1.0000 0.76270  0.05966  0.43365  Biso   1.000  C
  H420     1.0000 0.78610  0.07470  0.42200  Biso   1.000  H
  C734     1.0000 0.70490  0.05979  0.42739  Biso   1.000  C
  C735     1.0000 0.85910  0.95779  0.51843  Biso   1.000  C
  H421     1.0000 0.89730  0.95080  0.51690  Biso   1.000  H
  C736     1.0000 0.83530  0.98007  0.49554  Biso   1.000  C
  H422     1.0000 0.85850  0.98780  0.47840  Biso   1.000  H
  C737     1.0000 0.77900  0.99119  0.49704  Biso   1.000  C
  C738     1.0000 0.74530  0.97951  0.52320  Biso   1.000  C
  H423     1.0000 0.70740  0.98700  0.52540  Biso   1.000  H
  C739     1.0000 0.76770  0.95673  0.54606  Biso   1.000  C
  H424     1.0000 0.74430  0.94860  0.56290  Biso   1.000  H
  C740     1.0000 0.82320  0.94633  0.54390  Biso   1.000  C
  C741     1.0000 0.67860  0.08404  0.40346  Biso   1.000  C
  C742     1.0000 0.84650  0.92128  0.56738  Biso   1.000  C
  O213     1.0000 0.62403  0.58511  0.90196  Biso   1.000  O
  O214     1.0000 0.70849  0.60229  0.88586  Biso   1.000  O
  O215     1.0000 0.89711  0.41403  0.06901  Biso   1.000  O
  O216     1.0000 0.81132  0.40677  0.08744  Biso   1.000  O
  C743     1.0000 0.67120  0.53681  0.94436  Biso   1.000  C
  H425     1.0000 0.63140  0.53620  0.94090  Biso   1.000  H
  C744     1.0000 0.69640  0.51481  0.96641  Biso   1.000  C
  H426     1.0000 0.67320  0.49930  0.97740  Biso   1.000  H
  C745     1.0000 0.75510  0.51509  0.97274  Biso   1.000  C
  C746     1.0000 0.78810  0.53872  0.95602  Biso   1.000  C
  H427     1.0000 0.82760  0.54030  0.96000  Biso   1.000  H
  C747     1.0000 0.76270  0.55966  0.93365  Biso   1.000  C
  H428     1.0000 0.78610  0.57470  0.92200  Biso   1.000  H
  C748     1.0000 0.70490  0.55979  0.92739  Biso   1.000  C
  C749     1.0000 0.85910  0.45779  0.01843  Biso   1.000  C
  H429     1.0000 0.89730  0.45080  0.01690  Biso   1.000  H
  C750     1.0000 0.83530  0.48007  0.99554  Biso   1.000  C
  H430     1.0000 0.85850  0.48780  0.97840  Biso   1.000  H
  C751     1.0000 0.77900  0.49119  0.99704  Biso   1.000  C
  C752     1.0000 0.74530  0.47951  0.02320  Biso   1.000  C
  H431     1.0000 0.70740  0.48700  0.02540  Biso   1.000  H
  C753     1.0000 0.76770  0.45673  0.04606  Biso   1.000  C
  H432     1.0000 0.74430  0.44860  0.06290  Biso   1.000  H
  C754     1.0000 0.82320  0.44633  0.04390  Biso   1.000  C
  C755     1.0000 0.67860  0.58404  0.90346  Biso   1.000  C
  C756     1.0000 0.84650  0.42128  0.06738  Biso   1.000  C
  O217     1.0000 0.12403  0.08511  0.90196  Biso   1.000  O
  O218     1.0000 0.20849  0.10229  0.88586  Biso   1.000  O
  O219     1.0000 0.39711  0.91403  0.06901  Biso   1.000  O
  O220     1.0000 0.31132  0.90677  0.08744  Biso   1.000  O
  C757     1.0000 0.17120  0.03681  0.94436  Biso   1.000  C
  H433     1.0000 0.13140  0.03620  0.94090  Biso   1.000  H
  C758     1.0000 0.19640  0.01481  0.96641  Biso   1.000  C
  H434     1.0000 0.17320  0.99930  0.97740  Biso   1.000  H
  C759     1.0000 0.25510  0.01509  0.97274  Biso   1.000  C
  C760     1.0000 0.28810  0.03872  0.95602  Biso   1.000  C
  H435     1.0000 0.32760  0.04030  0.96000  Biso   1.000  H
  C761     1.0000 0.26270  0.05966  0.93365  Biso   1.000  C
  H436     1.0000 0.28610  0.07470  0.92200  Biso   1.000  H
  C762     1.0000 0.20490  0.05979  0.92739  Biso   1.000  C
  C763     1.0000 0.35910  0.95779  0.01843  Biso   1.000  C
  H437     1.0000 0.39730  0.95080  0.01690  Biso   1.000  H
  C764     1.0000 0.33530  0.98007  0.99554  Biso   1.000  C
  H438     1.0000 0.35850  0.98780  0.97840  Biso   1.000  H
  C765     1.0000 0.27900  0.99119  0.99704  Biso   1.000  C
  C766     1.0000 0.24530  0.97951  0.02320  Biso   1.000  C
  H439     1.0000 0.20740  0.98700  0.02540  Biso   1.000  H
  C767     1.0000 0.26770  0.95673  0.04606  Biso   1.000  C
  H440     1.0000 0.24430  0.94860  0.06290  Biso   1.000  H
  C768     1.0000 0.32320  0.94633  0.04390  Biso   1.000  C
  C769     1.0000 0.17860  0.08404  0.90346  Biso   1.000  C
  C770     1.0000 0.34650  0.92128  0.06738  Biso   1.000  C
  O221     1.0000 0.12403  0.58511  0.40196  Biso   1.000  O
  O222     1.0000 0.20849  0.60229  0.38586  Biso   1.000  O
  O223     1.0000 0.39711  0.41403  0.56901  Biso   1.000  O
  O224     1.0000 0.31132  0.40677  0.58744  Biso   1.000  O
  C771     1.0000 0.17120  0.53681  0.44436  Biso   1.000  C
  H441     1.0000 0.13140  0.53620  0.44090  Biso   1.000  H
  C772     1.0000 0.19640  0.51481  0.46641  Biso   1.000  C
  H442     1.0000 0.17320  0.49930  0.47740  Biso   1.000  H
  C773     1.0000 0.25510  0.51509  0.47274  Biso   1.000  C
  C774     1.0000 0.28810  0.53872  0.45602  Biso   1.000  C
  H443     1.0000 0.32760  0.54030  0.46000  Biso   1.000  H
  C775     1.0000 0.26270  0.55966  0.43365  Biso   1.000  C
  H444     1.0000 0.28610  0.57470  0.42200  Biso   1.000  H
  C776     1.0000 0.20490  0.55979  0.42739  Biso   1.000  C
  C777     1.0000 0.35910  0.45779  0.51843  Biso   1.000  C
  H445     1.0000 0.39730  0.45080  0.51690  Biso   1.000  H
  C778     1.0000 0.33530  0.48007  0.49554  Biso   1.000  C
  H446     1.0000 0.35850  0.48780  0.47840  Biso   1.000  H
  C779     1.0000 0.27900  0.49119  0.49704  Biso   1.000  C
  C780     1.0000 0.24530  0.47951  0.52320  Biso   1.000  C
  H447     1.0000 0.20740  0.48700  0.52540  Biso   1.000  H
  C781     1.0000 0.26770  0.45673  0.54606  Biso   1.000  C
  H448     1.0000 0.24430  0.44860  0.56290  Biso   1.000  H
  C782     1.0000 0.32320  0.44633  0.54390  Biso   1.000  C
  C783     1.0000 0.17860  0.58404  0.40346  Biso   1.000  C
  C784     1.0000 0.34650  0.42128  0.56738  Biso   1.000  C
  O225     1.0000 0.37597  0.33511  0.65196  Biso   1.000  O
  O226     1.0000 0.29151  0.35229  0.63586  Biso   1.000  O
  O227     1.0000 0.10289  0.16403  0.81901  Biso   1.000  O
  O228     1.0000 0.18868  0.15677  0.83744  Biso   1.000  O
  C785     1.0000 0.32880  0.28681  0.69436  Biso   1.000  C
  H449     1.0000 0.36860  0.28620  0.69090  Biso   1.000  H
  C786     1.0000 0.30360  0.26481  0.71641  Biso   1.000  C
  H450     1.0000 0.32680  0.24930  0.72740  Biso   1.000  H
  C787     1.0000 0.24490  0.26509  0.72274  Biso   1.000  C
  C788     1.0000 0.21190  0.28872  0.70602  Biso   1.000  C
  H451     1.0000 0.17240  0.29030  0.71000  Biso   1.000  H
  C789     1.0000 0.23730  0.30966  0.68365  Biso   1.000  C
  H452     1.0000 0.21390  0.32470  0.67200  Biso   1.000  H
  C790     1.0000 0.29510  0.30979  0.67739  Biso   1.000  C
  C791     1.0000 0.14090  0.20779  0.76843  Biso   1.000  C
  H453     1.0000 0.10270  0.20080  0.76690  Biso   1.000  H
  C792     1.0000 0.16470  0.23007  0.74554  Biso   1.000  C
  H454     1.0000 0.14150  0.23780  0.72840  Biso   1.000  H
  C793     1.0000 0.22100  0.24119  0.74704  Biso   1.000  C
  C794     1.0000 0.25470  0.22951  0.77320  Biso   1.000  C
  H455     1.0000 0.29260  0.23700  0.77540  Biso   1.000  H
  C795     1.0000 0.23230  0.20673  0.79606  Biso   1.000  C
  H456     1.0000 0.25570  0.19860  0.81290  Biso   1.000  H
  C796     1.0000 0.17680  0.19633  0.79390  Biso   1.000  C
  C797     1.0000 0.32140  0.33404  0.65346  Biso   1.000  C
  C798     1.0000 0.15350  0.17128  0.81738  Biso   1.000  C
  O229     1.0000 0.37597  0.83511  0.15196  Biso   1.000  O
  O230     1.0000 0.29151  0.85229  0.13586  Biso   1.000  O
  O231     1.0000 0.10289  0.66403  0.31901  Biso   1.000  O
  O232     1.0000 0.18868  0.65677  0.33744  Biso   1.000  O
  C799     1.0000 0.32880  0.78681  0.19436  Biso   1.000  C
  H457     1.0000 0.36860  0.78620  0.19090  Biso   1.000  H
  C800     1.0000 0.30360  0.76481  0.21641  Biso   1.000  C
  H458     1.0000 0.32680  0.74930  0.22740  Biso   1.000  H
  C801     1.0000 0.24490  0.76509  0.22274  Biso   1.000  C
  C802     1.0000 0.21190  0.78872  0.20602  Biso   1.000  C
  H459     1.0000 0.17240  0.79030  0.21000  Biso   1.000  H
  C803     1.0000 0.23730  0.80966  0.18365  Biso   1.000  C
  H460     1.0000 0.21390  0.82470  0.17200  Biso   1.000  H
  C804     1.0000 0.29510  0.80979  0.17739  Biso   1.000  C
  C805     1.0000 0.14090  0.70779  0.26843  Biso   1.000  C
  H461     1.0000 0.10270  0.70080  0.26690  Biso   1.000  H
  C806     1.0000 0.16470  0.73007  0.24554  Biso   1.000  C
  H462     1.0000 0.14150  0.73780  0.22840  Biso   1.000  H
  C807     1.0000 0.22100  0.74119  0.24704  Biso   1.000  C
  C808     1.0000 0.25470  0.72951  0.27320  Biso   1.000  C
  H463     1.0000 0.29260  0.73700  0.27540  Biso   1.000  H
  C809     1.0000 0.23230  0.70673  0.29606  Biso   1.000  C
  H464     1.0000 0.25570  0.69860  0.31290  Biso   1.000  H
  C810     1.0000 0.17680  0.69633  0.29390  Biso   1.000  C
  C811     1.0000 0.32140  0.83404  0.15346  Biso   1.000  C
  C812     1.0000 0.15350  0.67128  0.31738  Biso   1.000  C
  O233     1.0000 0.87597  0.33511  0.15196  Biso   1.000  O
  O234     1.0000 0.79151  0.35229  0.13586  Biso   1.000  O
  O235     1.0000 0.60289  0.16403  0.31901  Biso   1.000  O
  O236     1.0000 0.68868  0.15677  0.33744  Biso   1.000  O
  C813     1.0000 0.82880  0.28681  0.19436  Biso   1.000  C
  H465     1.0000 0.86860  0.28620  0.19090  Biso   1.000  H
  C814     1.0000 0.80360  0.26481  0.21641  Biso   1.000  C
  H466     1.0000 0.82680  0.24930  0.22740  Biso   1.000  H
  C815     1.0000 0.74490  0.26509  0.22274  Biso   1.000  C
  C816     1.0000 0.71190  0.28872  0.20602  Biso   1.000  C
  H467     1.0000 0.67240  0.29030  0.21000  Biso   1.000  H
  C817     1.0000 0.73730  0.30966  0.18365  Biso   1.000  C
  H468     1.0000 0.71390  0.32470  0.17200  Biso   1.000  H
  C818     1.0000 0.79510  0.30979  0.17739  Biso   1.000  C
  C819     1.0000 0.64090  0.20779  0.26843  Biso   1.000  C
  H469     1.0000 0.60270  0.20080  0.26690  Biso   1.000  H
  C820     1.0000 0.66470  0.23007  0.24554  Biso   1.000  C
  H470     1.0000 0.64150  0.23780  0.22840  Biso   1.000  H
  C821     1.0000 0.72100  0.24119  0.24704  Biso   1.000  C
  C822     1.0000 0.75470  0.22951  0.27320  Biso   1.000  C
  H471     1.0000 0.79260  0.23700  0.27540  Biso   1.000  H
  C823     1.0000 0.73230  0.20673  0.29606  Biso   1.000  C
  H472     1.0000 0.75570  0.19860  0.31290  Biso   1.000  H
  C824     1.0000 0.67680  0.19633  0.29390  Biso   1.000  C
  C825     1.0000 0.82140  0.33404  0.15346  Biso   1.000  C
  C826     1.0000 0.65350  0.17128  0.31738  Biso   1.000  C
  O237     1.0000 0.87597  0.83511  0.65196  Biso   1.000  O
  O238     1.0000 0.79151  0.85229  0.63586  Biso   1.000  O
  O239     1.0000 0.60289  0.66403  0.81901  Biso   1.000  O
  O240     1.0000 0.68868  0.65677  0.83744  Biso   1.000  O
  C827     1.0000 0.82880  0.78681  0.69436  Biso   1.000  C
  H473     1.0000 0.86860  0.78620  0.69090  Biso   1.000  H
  C828     1.0000 0.80360  0.76481  0.71641  Biso   1.000  C
  H474     1.0000 0.82680  0.74930  0.72740  Biso   1.000  H
  C829     1.0000 0.74490  0.76509  0.72274  Biso   1.000  C
  C830     1.0000 0.71190  0.78872  0.70602  Biso   1.000  C
  H475     1.0000 0.67240  0.79030  0.71000  Biso   1.000  H
  C831     1.0000 0.73730  0.80966  0.68365  Biso   1.000  C
  H476     1.0000 0.71390  0.82470  0.67200  Biso   1.000  H
  C832     1.0000 0.79510  0.80979  0.67739  Biso   1.000  C
  C833     1.0000 0.64090  0.70779  0.76843  Biso   1.000  C
  H477     1.0000 0.60270  0.70080  0.76690  Biso   1.000  H
  C834     1.0000 0.66470  0.73007  0.74554  Biso   1.000  C
  H478     1.0000 0.64150  0.73780  0.72840  Biso   1.000  H
  C835     1.0000 0.72100  0.74119  0.74704  Biso   1.000  C
  C836     1.0000 0.75470  0.72951  0.77320  Biso   1.000  C
  H479     1.0000 0.79260  0.73700  0.77540  Biso   1.000  H
  C837     1.0000 0.73230  0.70673  0.79606  Biso   1.000  C
  H480     1.0000 0.75570  0.69860  0.81290  Biso   1.000  H
  C838     1.0000 0.67680  0.69633  0.79390  Biso   1.000  C
  C839     1.0000 0.82140  0.83404  0.65346  Biso   1.000  C
  C840     1.0000 0.65350  0.67128  0.81738  Biso   1.000  C
  O241     1.0000 0.87403  0.91489  0.65196  Biso   1.000  O
  O242     1.0000 0.95849  0.89771  0.63586  Biso   1.000  O
  O243     1.0000 0.14711  0.08597  0.81901  Biso   1.000  O
  O244     1.0000 0.06132  0.09323  0.83744  Biso   1.000  O
  C841     1.0000 0.92120  0.96319  0.69436  Biso   1.000  C
  H481     1.0000 0.88140  0.96380  0.69090  Biso   1.000  H
  C842     1.0000 0.94640  0.98519  0.71641  Biso   1.000  C
  H482     1.0000 0.92320  0.00070  0.72740  Biso   1.000  H
  C843     1.0000 0.00510  0.98491  0.72274  Biso   1.000  C
  C844     1.0000 0.03810  0.96128  0.70602  Biso   1.000  C
  H483     1.0000 0.07760  0.95970  0.71000  Biso   1.000  H
  C845     1.0000 0.01270  0.94034  0.68365  Biso   1.000  C
  H484     1.0000 0.03610  0.92530  0.67200  Biso   1.000  H
  C846     1.0000 0.95490  0.94021  0.67739  Biso   1.000  C
  C847     1.0000 0.10910  0.04221  0.76843  Biso   1.000  C
  H485     1.0000 0.14730  0.04920  0.76690  Biso   1.000  H
  C848     1.0000 0.08530  0.01993  0.74554  Biso   1.000  C
  H486     1.0000 0.10850  0.01220  0.72840  Biso   1.000  H
  C849     1.0000 0.02900  0.00881  0.74704  Biso   1.000  C
  C850     1.0000 0.99530  0.02049  0.77320  Biso   1.000  C
  H487     1.0000 0.95740  0.01300  0.77540  Biso   1.000  H
  C851     1.0000 0.01770  0.04327  0.79606  Biso   1.000  C
  H488     1.0000 0.99430  0.05140  0.81290  Biso   1.000  H
  C852     1.0000 0.07320  0.05367  0.79390  Biso   1.000  C
  C853     1.0000 0.92860  0.91596  0.65346  Biso   1.000  C
  C854     1.0000 0.09650  0.07872  0.81738  Biso   1.000  C
  O245     1.0000 0.87403  0.41489  0.15196  Biso   1.000  O
  O246     1.0000 0.95849  0.39771  0.13586  Biso   1.000  O
  O247     1.0000 0.14711  0.58597  0.31901  Biso   1.000  O
  O248     1.0000 0.06132  0.59323  0.33744  Biso   1.000  O
  C855     1.0000 0.92120  0.46319  0.19436  Biso   1.000  C
  H489     1.0000 0.88140  0.46380  0.19090  Biso   1.000  H
  C856     1.0000 0.94640  0.48519  0.21641  Biso   1.000  C
  H490     1.0000 0.92320  0.50070  0.22740  Biso   1.000  H
  C857     1.0000 0.00510  0.48491  0.22274  Biso   1.000  C
  C858     1.0000 0.03810  0.46128  0.20602  Biso   1.000  C
  H491     1.0000 0.07760  0.45970  0.21000  Biso   1.000  H
  C859     1.0000 0.01270  0.44034  0.18365  Biso   1.000  C
  H492     1.0000 0.03610  0.42530  0.17200  Biso   1.000  H
  C860     1.0000 0.95490  0.44021  0.17739  Biso   1.000  C
  C861     1.0000 0.10910  0.54221  0.26843  Biso   1.000  C
  H493     1.0000 0.14730  0.54920  0.26690  Biso   1.000  H
  C862     1.0000 0.08530  0.51993  0.24554  Biso   1.000  C
  H494     1.0000 0.10850  0.51220  0.22840  Biso   1.000  H
  C863     1.0000 0.02900  0.50881  0.24704  Biso   1.000  C
  C864     1.0000 0.99530  0.52049  0.27320  Biso   1.000  C
  H495     1.0000 0.95740  0.51300  0.27540  Biso   1.000  H
  C865     1.0000 0.01770  0.54327  0.29606  Biso   1.000  C
  H496     1.0000 0.99430  0.55140  0.31290  Biso   1.000  H
  C866     1.0000 0.07320  0.55367  0.29390  Biso   1.000  C
  C867     1.0000 0.92860  0.41596  0.15346  Biso   1.000  C
  C868     1.0000 0.09650  0.57872  0.31738  Biso   1.000  C
  O249     1.0000 0.37403  0.91489  0.15196  Biso   1.000  O
  O250     1.0000 0.45849  0.89771  0.13586  Biso   1.000  O
  O251     1.0000 0.64711  0.08597  0.31901  Biso   1.000  O
  O252     1.0000 0.56132  0.09323  0.33744  Biso   1.000  O
  C869     1.0000 0.42120  0.96319  0.19436  Biso   1.000  C
  H497     1.0000 0.38140  0.96380  0.19090  Biso   1.000  H
  C870     1.0000 0.44640  0.98519  0.21641  Biso   1.000  C
  H498     1.0000 0.42320  0.00070  0.22740  Biso   1.000  H
  C871     1.0000 0.50510  0.98491  0.22274  Biso   1.000  C
  C872     1.0000 0.53810  0.96128  0.20602  Biso   1.000  C
  H499     1.0000 0.57760  0.95970  0.21000  Biso   1.000  H
  C873     1.0000 0.51270  0.94034  0.18365  Biso   1.000  C
  H500     1.0000 0.53610  0.92530  0.17200  Biso   1.000  H
  C874     1.0000 0.45490  0.94021  0.17739  Biso   1.000  C
  C875     1.0000 0.60910  0.04221  0.26843  Biso   1.000  C
  H501     1.0000 0.64730  0.04920  0.26690  Biso   1.000  H
  C876     1.0000 0.58530  0.01993  0.24554  Biso   1.000  C
  H502     1.0000 0.60850  0.01220  0.22840  Biso   1.000  H
  C877     1.0000 0.52900  0.00881  0.24704  Biso   1.000  C
  C878     1.0000 0.49530  0.02049  0.27320  Biso   1.000  C
  H503     1.0000 0.45740  0.01300  0.27540  Biso   1.000  H
  C879     1.0000 0.51770  0.04327  0.29606  Biso   1.000  C
  H504     1.0000 0.49430  0.05140  0.31290  Biso   1.000  H
  C880     1.0000 0.57320  0.05367  0.29390  Biso   1.000  C
  C881     1.0000 0.42860  0.91596  0.15346  Biso   1.000  C
  C882     1.0000 0.59650  0.07872  0.31738  Biso   1.000  C
  O253     1.0000 0.37403  0.41489  0.65196  Biso   1.000  O
  O254     1.0000 0.45849  0.39771  0.63586  Biso   1.000  O
  O255     1.0000 0.64711  0.58597  0.81901  Biso   1.000  O
  O256     1.0000 0.56132  0.59323  0.83744  Biso   1.000  O
  C883     1.0000 0.42120  0.46319  0.69436  Biso   1.000  C
  H505     1.0000 0.38140  0.46380  0.69090  Biso   1.000  H
  C884     1.0000 0.44640  0.48519  0.71641  Biso   1.000  C
  H506     1.0000 0.42320  0.50070  0.72740  Biso   1.000  H
  C885     1.0000 0.50510  0.48491  0.72274  Biso   1.000  C
  C886     1.0000 0.53810  0.46128  0.70602  Biso   1.000  C
  H507     1.0000 0.57760  0.45970  0.71000  Biso   1.000  H
  C887     1.0000 0.51270  0.44034  0.68365  Biso   1.000  C
  H508     1.0000 0.53610  0.42530  0.67200  Biso   1.000  H
  C888     1.0000 0.45490  0.44021  0.67739  Biso   1.000  C
  C889     1.0000 0.60910  0.54221  0.76843  Biso   1.000  C
  H509     1.0000 0.64730  0.54920  0.76690  Biso   1.000  H
  C890     1.0000 0.58530  0.51993  0.74554  Biso   1.000  C
  H510     1.0000 0.60850  0.51220  0.72840  Biso   1.000  H
  C891     1.0000 0.52900  0.50881  0.74704  Biso   1.000  C
  C892     1.0000 0.49530  0.52049  0.77320  Biso   1.000  C
  H511     1.0000 0.45740  0.51300  0.77540  Biso   1.000  H
  C893     1.0000 0.51770  0.54327  0.79606  Biso   1.000  C
  H512     1.0000 0.49430  0.55140  0.81290  Biso   1.000  H
  C894     1.0000 0.57320  0.55367  0.79390  Biso   1.000  C
  C895     1.0000 0.42860  0.41596  0.65346  Biso   1.000  C
  C896     1.0000 0.59650  0.57872  0.81738  Biso   1.000  C
  In25     1.0000 0.12500  0.62500  0.36273  Biso   1.000  In
  In26     1.0000 0.12500  0.12500  0.86273  Biso   1.000  In
  In27     1.0000 0.62500  0.12500  0.36273  Biso   1.000  In
  In28     1.0000 0.62500  0.62500  0.86273  Biso   1.000  In
  In29     1.0000 0.37500  0.37500  0.61273  Biso   1.000  In
  In30     1.0000 0.37500  0.87500  0.11273  Biso   1.000  In
  In31     1.0000 0.87500  0.87500  0.61273  Biso   1.000  In
  In32     1.0000 0.87500  0.37500  0.11273  Biso   1.000  In
