data_FARHOX_ion_b
_audit_creation_date              2014-07-02
_audit_creation_method            'Materials Studio'
_symmetry_space_group_name_H-M    'P1'
_symmetry_Int_Tables_number       1
_symmetry_cell_setting            triclinic
loop_
_symmetry_equiv_pos_as_xyz
  x,y,z
_cell_length_a                    11.3401
_cell_length_b                    25.0935
_cell_length_c                    22.8740
_cell_angle_alpha                 90.0000
_cell_angle_beta                  96.8950
_cell_angle_gamma                 90.0000
loop_
_atom_site_label
_atom_site_type_symbol
_atom_site_fract_x
_atom_site_fract_y
_atom_site_fract_z
_atom_site_U_iso_or_equiv
_atom_site_adp_type
_atom_site_occupancy
Pb1    Pb    0.48840   0.08819   0.29503   0.00000  Uiso   1.00
Pb2    Pb    0.16105   0.14145   0.26667   0.00000  Uiso   1.00
Cs3    Cs    0.26847   0.03819   0.11361   0.00000  Uiso   1.00
Cs4    Cs    0.84871   0.12056   0.34958   0.00000  Uiso   1.00
S5     S     0.39400   0.34343   0.02171   0.00000  Uiso   1.00
S6     S     0.54430   0.42135   0.43447   0.00000  Uiso   1.00
S7     S     0.04780   0.41571   0.49544   0.00000  Uiso   1.00
O8     O     0.53860   0.15570   0.22650   0.00000  Uiso   1.00
O9     O     0.35280   0.12930   0.19780   0.00000  Uiso   1.00
O10    O     0.42410   0.56530   0.18750   0.00000  Uiso   1.00
O11    O     0.22740   0.54780   0.18240   0.00000  Uiso   1.00
O12    O     0.51100   0.34920   0.00070   0.00000  Uiso   1.00
O13    O     0.28500   0.33670   0.98250   0.00000  Uiso   1.00
O14    O     0.39810   0.17750   0.33000   0.00000  Uiso   1.00
O15    O     0.59280   0.16490   0.35350   0.00000  Uiso   1.00
O16    O     0.81330   0.55130   0.23000   0.00000  Uiso   1.00
O17    O     0.96940   0.52640   0.29350   0.00000  Uiso   1.00
O18    O     0.42850   0.44490   0.42440   0.00000  Uiso   1.00
O19    O     0.60850   0.42190   0.49240   0.00000  Uiso   1.00
O20    O     0.06890   0.18720   0.34470   0.00000  Uiso   1.00
O21    O     0.12190   0.24470   0.27920   0.00000  Uiso   1.00
O22    O     0.45410   0.35630   0.72220   0.00000  Uiso   1.00
O23    O     0.57280   0.39370   0.66410   0.00000  Uiso   1.00
O25    O     0.07040   0.46340   0.46420   0.00000  Uiso   1.00
C30    C     0.43740   0.16060   0.19320   0.00000  Uiso   1.00
C31    C     0.42370   0.20580   0.15040   0.00000  Uiso   1.00
C32    C     0.52560   0.23820   0.14590   0.00000  Uiso   1.00
H33    H     0.59720   0.23180   0.16910   0.00000  Uiso   1.00
C34    C     0.51360   0.28020   0.10490   0.00000  Uiso   1.00
H35    H     0.57790   0.30200   0.09980   0.00000  Uiso   1.00
C36    C     0.40390   0.28850   0.07240   0.00000  Uiso   1.00
C37    C     0.30680   0.25900   0.07570   0.00000  Uiso   1.00
H38    H     0.23490   0.26640   0.05310   0.00000  Uiso   1.00
C39    C     0.32080   0.21500   0.11660   0.00000  Uiso   1.00
H40    H     0.25670   0.19250   0.11960   0.00000  Uiso   1.00
C41    C     0.37500   0.39980   0.06790   0.00000  Uiso   1.00
C42    C     0.47600   0.42320   0.09290   0.00000  Uiso   1.00
H43    H     0.55020   0.41010   0.08670   0.00000  Uiso   1.00
C44    C     0.46460   0.46950   0.12950   0.00000  Uiso   1.00
H45    H     0.53110   0.48680   0.14850   0.00000  Uiso   1.00
C46    C     0.34910   0.48740   0.13520   0.00000  Uiso   1.00
C47    C     0.25500   0.46310   0.10540   0.00000  Uiso   1.00
H48    H     0.17950   0.47640   0.10870   0.00000  Uiso   1.00
C49    C     0.26600   0.41700   0.06830   0.00000  Uiso   1.00
H50    H     0.20160   0.40090   0.04650   0.00000  Uiso   1.00
C51    C     0.33270   0.53640   0.17310   0.00000  Uiso   1.00
C52    C     0.50160   0.19260   0.35050   0.00000  Uiso   1.00
C53    C     0.51160   0.24940   0.37400   0.00000  Uiso   1.00
C54    C     0.42100   0.28470   0.35610   0.00000  Uiso   1.00
H55    H     0.35370   0.27320   0.33210   0.00000  Uiso   1.00
C56    C     0.43170   0.33900   0.37490   0.00000  Uiso   1.00
H57    H     0.37320   0.36380   0.36210   0.00000  Uiso   1.00
C58    C     0.52940   0.35370   0.41180   0.00000  Uiso   1.00
C59    C     0.61880   0.31790   0.43110   0.00000  Uiso   1.00
H60    H     0.68380   0.32860   0.45720   0.00000  Uiso   1.00
C61    C     0.60930   0.26510   0.41050   0.00000  Uiso   1.00
H62    H     0.66970   0.24080   0.42170   0.00000  Uiso   1.00
C63    C     0.63480   0.45040   0.38620   0.00000  Uiso   1.00
C64    C     0.57880   0.47180   0.33210   0.00000  Uiso   1.00
C65    C     0.65790   0.49660   0.29590   0.00000  Uiso   1.00
H66    H     0.62730   0.51160   0.26010   0.00000  Uiso   1.00
C67    C     0.77940   0.49850   0.31320   0.00000  Uiso   1.00
C68    C     0.82680   0.47710   0.36590   0.00000  Uiso   1.00
H69    H     0.90820   0.47970   0.37730   0.00000  Uiso   1.00
C70    C     0.75590   0.45180   0.40240   0.00000  Uiso   1.00
H71    H     0.78920   0.43590   0.43730   0.00000  Uiso   1.00
C72    C     0.85970   0.52720   0.27460   0.00000  Uiso   1.00
C73    C     0.08590   0.23470   0.32680   0.00000  Uiso   1.00
C74    C     0.06870   0.27920   0.36830   0.00000  Uiso   1.00
C75    C     0.10520   0.33020   0.35380   0.00000  Uiso   1.00
H76    H     0.13480   0.33620   0.31820   0.00000  Uiso   1.00
C77    C     0.09690   0.37130   0.39270   0.00000  Uiso   1.00
H78    H     0.12240   0.40520   0.38380   0.00000  Uiso   1.00
C79    C     0.05030   0.36230   0.44550   0.00000  Uiso   1.00
C80    C     0.01140   0.31370   0.45940   0.00000  Uiso   1.00
H81    H     0.97890   0.30850   0.49440   0.00000  Uiso   1.00
C82    C     0.02070   0.27040   0.42000   0.00000  Uiso   1.00
H83    H     0.99460   0.23660   0.42910   0.00000  Uiso   1.00
C84    C     0.17170   0.40380   0.54780   0.00000  Uiso   1.00
C85    C     0.28160   0.41740   0.53390   0.00000  Uiso   1.00
H86    H     0.29020   0.43190   0.49720   0.00000  Uiso   1.00
C87    C     0.38250   0.40930   0.57620   0.00000  Uiso   1.00
H88    H     0.45830   0.41850   0.56820   0.00000  Uiso   1.00
C89    C     0.36350   0.38680   0.63040   0.00000  Uiso   1.00
C90    C     0.25280   0.37310   0.64230   0.00000  Uiso   1.00
H91    H     0.24330   0.35790   0.67850   0.00000  Uiso   1.00
C92    C     0.15240   0.38160   0.60090   0.00000  Uiso   1.00
H93    H     0.07650   0.37260   0.60910   0.00000  Uiso   1.00
C94    C     0.47000   0.37850   0.67470   0.00000  Uiso   1.00
Pb114  Pb    0.01160   0.58819   0.20497   0.00000  Uiso   1.00
Pb115  Pb    0.33895   0.64145   0.23333   0.00000  Uiso   1.00
Cs116  Cs    0.23153   0.53819   0.38639   0.00000  Uiso   1.00
Cs117  Cs    0.65129   0.62056   0.15042   0.00000  Uiso   1.00
S118   S     0.10600   0.84343   0.47829   0.00000  Uiso   1.00
S119   S     0.95570   0.92135   0.06553   0.00000  Uiso   1.00
S120   S     0.45220   0.91571   0.00456   0.00000  Uiso   1.00
O121   O     0.96140   0.65570   0.27350   0.00000  Uiso   1.00
O122   O     0.14720   0.62930   0.30220   0.00000  Uiso   1.00
O123   O     0.07590   0.06530   0.31250   0.00000  Uiso   1.00
O124   O     0.27260   0.04780   0.31760   0.00000  Uiso   1.00
O125   O     0.98900   0.84920   0.49930   0.00000  Uiso   1.00
O126   O     0.21500   0.83670   0.51750   0.00000  Uiso   1.00
O127   O     0.10190   0.67750   0.17000   0.00000  Uiso   1.00
O128   O     0.90720   0.66490   0.14650   0.00000  Uiso   1.00
O129   O     0.68670   0.05130   0.27000   0.00000  Uiso   1.00
O130   O     0.53060   0.02640   0.20650   0.00000  Uiso   1.00
O131   O     0.07150   0.94490   0.07560   0.00000  Uiso   1.00
O132   O     0.89150   0.92190   0.00760   0.00000  Uiso   1.00
O133   O     0.43110   0.68720   0.15530   0.00000  Uiso   1.00
O134   O     0.37810   0.74470   0.22080   0.00000  Uiso   1.00
O135   O     0.04590   0.85630   0.77780   0.00000  Uiso   1.00
O136   O     0.92720   0.89370   0.83590   0.00000  Uiso   1.00
O137   O     0.55710   0.91060   0.97600   0.00000  Uiso   1.00
O138   O     0.42960   0.96340   0.03580   0.00000  Uiso   1.00
C143   C     0.06260   0.66060   0.30680   0.00000  Uiso   1.00
C144   C     0.07630   0.70580   0.34960   0.00000  Uiso   1.00
C145   C     0.97440   0.73820   0.35410   0.00000  Uiso   1.00
H146   H     0.90280   0.73180   0.33090   0.00000  Uiso   1.00
C147   C     0.98640   0.78020   0.39510   0.00000  Uiso   1.00
H148   H     0.92210   0.80200   0.40020   0.00000  Uiso   1.00
C149   C     0.09610   0.78850   0.42760   0.00000  Uiso   1.00
C150   C     0.19320   0.75900   0.42430   0.00000  Uiso   1.00
H151   H     0.26510   0.76640   0.44690   0.00000  Uiso   1.00
C152   C     0.17920   0.71500   0.38340   0.00000  Uiso   1.00
H153   H     0.24330   0.69250   0.38040   0.00000  Uiso   1.00
C154   C     0.12500   0.89980   0.43210   0.00000  Uiso   1.00
C155   C     0.02400   0.92320   0.40710   0.00000  Uiso   1.00
H156   H     0.94980   0.91010   0.41330   0.00000  Uiso   1.00
C157   C     0.03540   0.96950   0.37050   0.00000  Uiso   1.00
H158   H     0.96890   0.98680   0.35150   0.00000  Uiso   1.00
C159   C     0.15090   0.98740   0.36480   0.00000  Uiso   1.00
C160   C     0.24500   0.96310   0.39460   0.00000  Uiso   1.00
H161   H     0.32050   0.97640   0.39130   0.00000  Uiso   1.00
C162   C     0.23400   0.91700   0.43170   0.00000  Uiso   1.00
H163   H     0.29840   0.90090   0.45350   0.00000  Uiso   1.00
C164   C     0.16730   0.03640   0.32690   0.00000  Uiso   1.00
C165   C     0.99840   0.69260   0.14950   0.00000  Uiso   1.00
C166   C     0.98840   0.74940   0.12600   0.00000  Uiso   1.00
C167   C     0.07900   0.78470   0.14390   0.00000  Uiso   1.00
H168   H     0.14630   0.77320   0.16790   0.00000  Uiso   1.00
C169   C     0.06830   0.83900   0.12510   0.00000  Uiso   1.00
H170   H     0.12680   0.86380   0.13790   0.00000  Uiso   1.00
C171   C     0.97060   0.85370   0.08820   0.00000  Uiso   1.00
C172   C     0.88120   0.81790   0.06890   0.00000  Uiso   1.00
H173   H     0.81620   0.82860   0.04280   0.00000  Uiso   1.00
C174   C     0.89070   0.76510   0.08950   0.00000  Uiso   1.00
H175   H     0.83030   0.74080   0.07830   0.00000  Uiso   1.00
C176   C     0.86520   0.95040   0.11380   0.00000  Uiso   1.00
C177   C     0.92120   0.97180   0.16790   0.00000  Uiso   1.00
C178   C     0.84210   0.99660   0.20410   0.00000  Uiso   1.00
H179   H     0.87270   0.01160   0.23990   0.00000  Uiso   1.00
C180   C     0.72060   0.99850   0.18680   0.00000  Uiso   1.00
C181   C     0.67320   0.97710   0.13410   0.00000  Uiso   1.00
H182   H     0.59180   0.97970   0.12270   0.00000  Uiso   1.00
C183   C     0.74410   0.95180   0.09760   0.00000  Uiso   1.00
H184   H     0.71080   0.93590   0.06270   0.00000  Uiso   1.00
C185   C     0.64030   0.02720   0.22540   0.00000  Uiso   1.00
C186   C     0.41410   0.73470   0.17320   0.00000  Uiso   1.00
C187   C     0.43130   0.77920   0.13170   0.00000  Uiso   1.00
C188   C     0.39480   0.83020   0.14620   0.00000  Uiso   1.00
H189   H     0.36520   0.83620   0.18180   0.00000  Uiso   1.00
C190   C     0.40310   0.87130   0.10730   0.00000  Uiso   1.00
H191   H     0.37760   0.90520   0.11620   0.00000  Uiso   1.00
C192   C     0.44970   0.86230   0.05450   0.00000  Uiso   1.00
C193   C     0.48860   0.81370   0.04060   0.00000  Uiso   1.00
H194   H     0.52110   0.80850   0.00560   0.00000  Uiso   1.00
C195   C     0.47930   0.77040   0.08000   0.00000  Uiso   1.00
H196   H     0.50540   0.73660   0.07090   0.00000  Uiso   1.00
C197   C     0.32830   0.90380   0.95220   0.00000  Uiso   1.00
C198   C     0.21840   0.91740   0.96610   0.00000  Uiso   1.00
H199   H     0.20980   0.93190   0.00280   0.00000  Uiso   1.00
C200   C     0.11750   0.90930   0.92380   0.00000  Uiso   1.00
H201   H     0.04170   0.91850   0.93180   0.00000  Uiso   1.00
C202   C     0.13650   0.88680   0.86960   0.00000  Uiso   1.00
C203   C     0.24720   0.87310   0.85770   0.00000  Uiso   1.00
H204   H     0.25670   0.85790   0.82150   0.00000  Uiso   1.00
C205   C     0.34760   0.88160   0.89910   0.00000  Uiso   1.00
H206   H     0.42350   0.87260   0.89090   0.00000  Uiso   1.00
C207   C     0.03000   0.87850   0.82530   0.00000  Uiso   1.00
Pb227  Pb    0.51160   0.91181   0.70497   0.00000  Uiso   1.00
Pb228  Pb    0.83895   0.85855   0.73333   0.00000  Uiso   1.00
Cs229  Cs    0.73153   0.96181   0.88639   0.00000  Uiso   1.00
Cs230  Cs    0.15129   0.87944   0.65042   0.00000  Uiso   1.00
S231   S     0.60600   0.65657   0.97829   0.00000  Uiso   1.00
S232   S     0.45570   0.57865   0.56553   0.00000  Uiso   1.00
S233   S     0.95220   0.58429   0.50456   0.00000  Uiso   1.00
O234   O     0.46140   0.84430   0.77350   0.00000  Uiso   1.00
O235   O     0.64720   0.87070   0.80220   0.00000  Uiso   1.00
O236   O     0.57590   0.43470   0.81250   0.00000  Uiso   1.00
O237   O     0.77260   0.45220   0.81760   0.00000  Uiso   1.00
O238   O     0.48900   0.65080   0.99930   0.00000  Uiso   1.00
O239   O     0.71500   0.66330   0.01750   0.00000  Uiso   1.00
O240   O     0.60190   0.82250   0.67000   0.00000  Uiso   1.00
O241   O     0.40720   0.83510   0.64650   0.00000  Uiso   1.00
O242   O     0.18670   0.44870   0.77000   0.00000  Uiso   1.00
O243   O     0.03060   0.47360   0.70650   0.00000  Uiso   1.00
O244   O     0.57150   0.55510   0.57560   0.00000  Uiso   1.00
O245   O     0.39150   0.57810   0.50760   0.00000  Uiso   1.00
O246   O     0.93110   0.81280   0.65530   0.00000  Uiso   1.00
O247   O     0.87810   0.75530   0.72080   0.00000  Uiso   1.00
O248   O     0.54590   0.64370   0.27780   0.00000  Uiso   1.00
O249   O     0.42720   0.60630   0.33590   0.00000  Uiso   1.00
O250   O     0.05710   0.58940   0.47600   0.00000  Uiso   1.00
O251   O     0.92960   0.53660   0.53580   0.00000  Uiso   1.00
C256   C     0.56260   0.83940   0.80680   0.00000  Uiso   1.00
C257   C     0.57630   0.79420   0.84960   0.00000  Uiso   1.00
C258   C     0.47440   0.76180   0.85410   0.00000  Uiso   1.00
H259   H     0.40280   0.76820   0.83090   0.00000  Uiso   1.00
C260   C     0.48640   0.71980   0.89510   0.00000  Uiso   1.00
H261   H     0.42210   0.69800   0.90020   0.00000  Uiso   1.00
C262   C     0.59610   0.71150   0.92760   0.00000  Uiso   1.00
C263   C     0.69320   0.74100   0.92430   0.00000  Uiso   1.00
H264   H     0.76510   0.73360   0.94690   0.00000  Uiso   1.00
C265   C     0.67920   0.78500   0.88340   0.00000  Uiso   1.00
H266   H     0.74330   0.80750   0.88040   0.00000  Uiso   1.00
C267   C     0.62500   0.60020   0.93210   0.00000  Uiso   1.00
C268   C     0.52400   0.57680   0.90710   0.00000  Uiso   1.00
H269   H     0.44980   0.58990   0.91330   0.00000  Uiso   1.00
C270   C     0.53540   0.53050   0.87050   0.00000  Uiso   1.00
H271   H     0.46890   0.51320   0.85150   0.00000  Uiso   1.00
C272   C     0.65090   0.51260   0.86480   0.00000  Uiso   1.00
C273   C     0.74500   0.53690   0.89460   0.00000  Uiso   1.00
H274   H     0.82050   0.52360   0.89130   0.00000  Uiso   1.00
C275   C     0.73400   0.58300   0.93170   0.00000  Uiso   1.00
H276   H     0.79840   0.59910   0.95350   0.00000  Uiso   1.00
C277   C     0.66730   0.46360   0.82690   0.00000  Uiso   1.00
C278   C     0.49840   0.80740   0.64950   0.00000  Uiso   1.00
C279   C     0.48840   0.75060   0.62600   0.00000  Uiso   1.00
C280   C     0.57900   0.71530   0.64390   0.00000  Uiso   1.00
H281   H     0.64630   0.72680   0.66790   0.00000  Uiso   1.00
C282   C     0.56830   0.66100   0.62510   0.00000  Uiso   1.00
H283   H     0.62680   0.63620   0.63790   0.00000  Uiso   1.00
C284   C     0.47060   0.64630   0.58820   0.00000  Uiso   1.00
C285   C     0.38120   0.68210   0.56890   0.00000  Uiso   1.00
H286   H     0.31620   0.67140   0.54280   0.00000  Uiso   1.00
C287   C     0.39070   0.73490   0.58950   0.00000  Uiso   1.00
H288   H     0.33030   0.75920   0.57830   0.00000  Uiso   1.00
C289   C     0.36520   0.54960   0.61380   0.00000  Uiso   1.00
C290   C     0.42120   0.52820   0.66790   0.00000  Uiso   1.00
C291   C     0.34210   0.50340   0.70410   0.00000  Uiso   1.00
H292   H     0.37270   0.48840   0.73990   0.00000  Uiso   1.00
C293   C     0.22060   0.50150   0.68680   0.00000  Uiso   1.00
C294   C     0.17320   0.52290   0.63410   0.00000  Uiso   1.00
H295   H     0.09180   0.52030   0.62270   0.00000  Uiso   1.00
C296   C     0.24410   0.54820   0.59760   0.00000  Uiso   1.00
H297   H     0.21080   0.56410   0.56270   0.00000  Uiso   1.00
C298   C     0.14030   0.47280   0.72540   0.00000  Uiso   1.00
C299   C     0.91410   0.76530   0.67320   0.00000  Uiso   1.00
C300   C     0.93130   0.72080   0.63170   0.00000  Uiso   1.00
C301   C     0.89480   0.66980   0.64620   0.00000  Uiso   1.00
H302   H     0.86520   0.66380   0.68180   0.00000  Uiso   1.00
C303   C     0.90310   0.62870   0.60730   0.00000  Uiso   1.00
H304   H     0.87760   0.59480   0.61620   0.00000  Uiso   1.00
C305   C     0.94970   0.63770   0.55450   0.00000  Uiso   1.00
C306   C     0.98860   0.68630   0.54060   0.00000  Uiso   1.00
H307   H     0.02110   0.69150   0.50560   0.00000  Uiso   1.00
C308   C     0.97930   0.72960   0.58000   0.00000  Uiso   1.00
H309   H     0.00540   0.76340   0.57090   0.00000  Uiso   1.00
C310   C     0.82830   0.59620   0.45220   0.00000  Uiso   1.00
C311   C     0.71840   0.58260   0.46610   0.00000  Uiso   1.00
H312   H     0.70980   0.56810   0.50280   0.00000  Uiso   1.00
C313   C     0.61750   0.59070   0.42380   0.00000  Uiso   1.00
H314   H     0.54170   0.58150   0.43180   0.00000  Uiso   1.00
C315   C     0.63650   0.61320   0.36960   0.00000  Uiso   1.00
C316   C     0.74720   0.62690   0.35770   0.00000  Uiso   1.00
H317   H     0.75670   0.64210   0.32150   0.00000  Uiso   1.00
C318   C     0.84760   0.61840   0.39910   0.00000  Uiso   1.00
H319   H     0.92350   0.62740   0.39090   0.00000  Uiso   1.00
C320   C     0.53000   0.62150   0.32530   0.00000  Uiso   1.00
Pb340  Pb    0.98840   0.41181   0.79503   0.00000  Uiso   1.00
Pb341  Pb    0.66105   0.35855   0.76667   0.00000  Uiso   1.00
Cs342  Cs    0.76847   0.46181   0.61361   0.00000  Uiso   1.00
Cs343  Cs    0.34871   0.37944   0.84958   0.00000  Uiso   1.00
S344   S     0.89400   0.15657   0.52171   0.00000  Uiso   1.00
S345   S     0.04430   0.07865   0.93447   0.00000  Uiso   1.00
S346   S     0.54780   0.08429   0.99544   0.00000  Uiso   1.00
O347   O     0.03860   0.34430   0.72650   0.00000  Uiso   1.00
O348   O     0.85280   0.37070   0.69780   0.00000  Uiso   1.00
O349   O     0.92410   0.93470   0.68750   0.00000  Uiso   1.00
O350   O     0.72740   0.95220   0.68240   0.00000  Uiso   1.00
O351   O     0.01100   0.15080   0.50070   0.00000  Uiso   1.00
O352   O     0.78500   0.16330   0.48250   0.00000  Uiso   1.00
O353   O     0.89810   0.32250   0.83000   0.00000  Uiso   1.00
O354   O     0.09280   0.33510   0.85350   0.00000  Uiso   1.00
O355   O     0.31330   0.94870   0.73000   0.00000  Uiso   1.00
O356   O     0.46940   0.97360   0.79350   0.00000  Uiso   1.00
O357   O     0.92850   0.05510   0.92440   0.00000  Uiso   1.00
O358   O     0.10850   0.07810   0.99240   0.00000  Uiso   1.00
O359   O     0.56890   0.31280   0.84470   0.00000  Uiso   1.00
O360   O     0.62190   0.25530   0.77920   0.00000  Uiso   1.00
O361   O     0.95410   0.14370   0.22220   0.00000  Uiso   1.00
O362   O     0.07280   0.10630   0.16410   0.00000  Uiso   1.00
O363   O     0.44290   0.08940   0.02400   0.00000  Uiso   1.00
O364   O     0.57040   0.03660   0.96420   0.00000  Uiso   1.00
C369   C     0.93740   0.33940   0.69320   0.00000  Uiso   1.00
C370   C     0.92370   0.29420   0.65040   0.00000  Uiso   1.00
C371   C     0.02560   0.26180   0.64590   0.00000  Uiso   1.00
H372   H     0.09720   0.26820   0.66910   0.00000  Uiso   1.00
C373   C     0.01360   0.21980   0.60490   0.00000  Uiso   1.00
H374   H     0.07790   0.19800   0.59980   0.00000  Uiso   1.00
C375   C     0.90390   0.21150   0.57240   0.00000  Uiso   1.00
C376   C     0.80680   0.24100   0.57570   0.00000  Uiso   1.00
H377   H     0.73490   0.23360   0.55310   0.00000  Uiso   1.00
C378   C     0.82080   0.28500   0.61660   0.00000  Uiso   1.00
H379   H     0.75670   0.30750   0.61960   0.00000  Uiso   1.00
C380   C     0.87500   0.10020   0.56790   0.00000  Uiso   1.00
C381   C     0.97600   0.07680   0.59290   0.00000  Uiso   1.00
H382   H     0.05020   0.08990   0.58670   0.00000  Uiso   1.00
C383   C     0.96460   0.03050   0.62950   0.00000  Uiso   1.00
H384   H     0.03110   0.01320   0.64850   0.00000  Uiso   1.00
C385   C     0.84910   0.01260   0.63520   0.00000  Uiso   1.00
C386   C     0.75500   0.03690   0.60540   0.00000  Uiso   1.00
H387   H     0.67950   0.02360   0.60870   0.00000  Uiso   1.00
C388   C     0.76600   0.08300   0.56830   0.00000  Uiso   1.00
H389   H     0.70160   0.09910   0.54650   0.00000  Uiso   1.00
C390   C     0.83270   0.96360   0.67310   0.00000  Uiso   1.00
C391   C     0.00160   0.30740   0.85050   0.00000  Uiso   1.00
C392   C     0.01160   0.25060   0.87400   0.00000  Uiso   1.00
C393   C     0.92100   0.21530   0.85610   0.00000  Uiso   1.00
H394   H     0.85370   0.22680   0.83210   0.00000  Uiso   1.00
C395   C     0.93170   0.16100   0.87490   0.00000  Uiso   1.00
H396   H     0.87320   0.13620   0.86210   0.00000  Uiso   1.00
C397   C     0.02940   0.14630   0.91180   0.00000  Uiso   1.00
C398   C     0.11880   0.18210   0.93110   0.00000  Uiso   1.00
H399   H     0.18380   0.17140   0.95720   0.00000  Uiso   1.00
C400   C     0.10930   0.23490   0.91050   0.00000  Uiso   1.00
H401   H     0.16970   0.25920   0.92170   0.00000  Uiso   1.00
C402   C     0.13480   0.04960   0.88620   0.00000  Uiso   1.00
C403   C     0.07880   0.02820   0.83210   0.00000  Uiso   1.00
C404   C     0.15790   0.00340   0.79590   0.00000  Uiso   1.00
H405   H     0.12730   0.98840   0.76010   0.00000  Uiso   1.00
C406   C     0.27940   0.00150   0.81320   0.00000  Uiso   1.00
C407   C     0.32680   0.02290   0.86590   0.00000  Uiso   1.00
H408   H     0.40820   0.02030   0.87730   0.00000  Uiso   1.00
C409   C     0.25590   0.04820   0.90240   0.00000  Uiso   1.00
H410   H     0.28920   0.06410   0.93730   0.00000  Uiso   1.00
C411   C     0.35970   0.97280   0.77460   0.00000  Uiso   1.00
C412   C     0.58590   0.26530   0.82680   0.00000  Uiso   1.00
C413   C     0.56870   0.22080   0.86830   0.00000  Uiso   1.00
C414   C     0.60520   0.16980   0.85380   0.00000  Uiso   1.00
H415   H     0.63480   0.16380   0.81820   0.00000  Uiso   1.00
C416   C     0.59690   0.12870   0.89270   0.00000  Uiso   1.00
H417   H     0.62240   0.09480   0.88380   0.00000  Uiso   1.00
C418   C     0.55030   0.13770   0.94550   0.00000  Uiso   1.00
C419   C     0.51140   0.18630   0.95940   0.00000  Uiso   1.00
H420   H     0.47890   0.19150   0.99440   0.00000  Uiso   1.00
C421   C     0.52070   0.22960   0.92000   0.00000  Uiso   1.00
H422   H     0.49460   0.26340   0.92910   0.00000  Uiso   1.00
C423   C     0.67170   0.09620   0.04780   0.00000  Uiso   1.00
C424   C     0.78160   0.08260   0.03390   0.00000  Uiso   1.00
H425   H     0.79020   0.06810   0.99720   0.00000  Uiso   1.00
C426   C     0.88250   0.09070   0.07620   0.00000  Uiso   1.00
H427   H     0.95830   0.08150   0.06820   0.00000  Uiso   1.00
C428   C     0.86350   0.11320   0.13040   0.00000  Uiso   1.00
C429   C     0.75280   0.12690   0.14230   0.00000  Uiso   1.00
H430   H     0.74330   0.14210   0.17850   0.00000  Uiso   1.00
C431   C     0.65240   0.11840   0.10090   0.00000  Uiso   1.00
H432   H     0.57650   0.12740   0.10910   0.00000  Uiso   1.00
C433   C     0.97000   0.12150   0.17470   0.00000  Uiso   1.00
loop_
_geom_bond_atom_site_label_1
_geom_bond_atom_site_label_2
_geom_bond_distance
_geom_bond_site_symmetry_2
_ccdc_geom_bond_type
Pb1    Cs4     4.206   .     S
Pb1    O8      2.422   .     S
Pb1    O9      2.748   .     S
Pb1    O14     2.628   .     S
Pb1    O15     2.553   .     S
Pb1    O124    2.754   .     S
Pb1    O129    2.559   .     S
Pb1    O130    2.639   .     S
Pb2    Cs3     4.635   .     S
Pb2    O20     2.458   .     S
Pb2    O21     2.650   .     S
Pb2    O123    2.434   .     S
Pb2    O362    2.592   .     S
Pb2    Cs4     4.246   1_455 S
Pb2    O361    2.444   1_455 S
Cs3    O9      3.067   .     S
Cs3    O130    3.453   .     S
Cs3    O362    3.130   .     S
Cs3    O363    3.277   .     S
Cs3    O131    3.280   1_545 S
Cs3    O138    3.288   1_545 S
Cs3    O358    3.282   1_554 S
Cs4    O15     3.119   .     S
Cs4    O129    2.984   .     S
Cs4    S344    4.012   .     S
Cs4    O352    3.383   .     S
Cs4    O361    3.330   .     S
Cs4    Pb2     4.246   1_655 S
Cs4    O20     3.018   1_655 S
Cs4    O123    3.131   1_655 S
S5     O12     1.472   .     D
S5     C36     1.796   .     S
S5     C41     1.794   .     S
S5     O13     1.447   1_554 S
S5     Cs343   4.012   1_554 S
S6     O18     1.433   .     D
S6     O19     1.433   .     D
S6     C58     1.777   .     S
S6     C63     1.754   .     S
S7     O25     1.433   .     D
S7     C79     1.763   .     S
S7     C84     1.759   .     S
O8     C30     1.305   .     D
O9     C30     1.254   .     S
O10    C51     1.275   .     S
O10    Pb115   2.434   .     S
O10    Cs117   3.131   .     S
O11    C51     1.270   .     D
O11    Pb114   2.754   .     S
O13    Cs343   3.383   .     S
O13    S5      1.447   1_556 S
O14    C52     1.268   .     D
O15    C52     1.241   .     S
O16    C72     1.247   .     S
O16    Cs117   2.984   .     S
O16    Pb114   2.559   1_655 S
O17    C72     1.267   .     S
O17    Pb114   2.639   1_655 S
O17    Cs116   3.453   1_655 S
O18    Cs116   3.280   .     S
O19    Cs342   3.282   .     S
O20    C73     1.282   .     S
O20    Cs4     3.018   1_455 S
O21    C73     1.234   .     D
O22    C94     1.253   .     A
O22    Pb341   2.444   .     S
O22    Cs343   3.330   .     S
O23    C94     1.277   .     A
O23    Pb341   2.592   .     S
O23    Cs342   3.130   .     S
O25    Cs116   3.288   .     S
C30    C31     1.494   .     S
C31    C32     1.427   .     A
C31    C39     1.340   .     A
C32    H33     0.929   .     S
C32    C34     1.406   .     A
C34    H35     0.930   .     S
C34    C36     1.386   .     A
C36    C37     1.336   .     A
C37    H38     0.930   .     S
C37    C39     1.444   .     A
C39    H40     0.929   .     S
C41    C42     1.351   .     A
C41    C49     1.310   .     A
C42    H43     0.930   .     S
C42    C44     1.447   .     A
C44    H45     0.931   .     S
C44    C46     1.405   .     A
C46    C47     1.342   .     A
C46    C51     1.529   .     S
C47    H48     0.930   .     S
C47    C49     1.449   .     A
C49    H50     0.926   .     S
C52    C53     1.523   .     S
C53    C54     1.381   .     A
C53    C61     1.363   .     A
C54    H55     0.931   .     S
C54    C56     1.430   .     A
C56    H57     0.931   .     S
C56    C58     1.361   .     A
C58    C59     1.386   .     A
C59    H60     0.931   .     S
C59    C61     1.406   .     A
C61    H62     0.930   .     S
C63    C64     1.426   .     D
C63    C70     1.379   .     S
C64    C65     1.434   .     D
C65    H66     0.930   .     S
C65    C67     1.388   .     S
C67    C68     1.369   .     S
C67    C72     1.523   .     D
C68    H69     0.931   .     S
C68    C70     1.381   .     D
C70    H71     0.931   .     S
C73    C74     1.494   .     S
C74    C75     1.397   .     A
C74    C82     1.378   .     A
C75    H76     0.930   .     S
C75    C77     1.373   .     A
C77    H78     0.929   .     S
C77    C79     1.394   .     A
C79    C80     1.348   .     A
C80    C82     1.424   .     A
C80    H81     0.930   1_455 S
H81    C80     0.930   1_655 S
C82    H83     0.930   1_455 S
H83    C82     0.930   1_655 S
C84    C85     1.366   .     A
C84    C92     1.377   .     A
C85    H86     0.931   .     S
C85    C87     1.422   .     A
C87    H88     0.929   .     S
C87    C89     1.402   .     A
C89    C90     1.360   .     A
C89    C94     1.495   .     S
C90    H91     0.930   .     S
C90    C92     1.407   .     A
C92    H93     0.930   .     S
Pb114  O122    2.748   .     S
Pb114  O127    2.628   .     S
Pb114  O16     2.559   1_455 S
Pb114  O17     2.639   1_455 S
Pb114  Cs117   4.206   1_455 S
Pb114  O121    2.422   1_455 D
Pb114  O128    2.553   1_455 S
Pb115  Cs116   4.635   .     S
Pb115  Cs117   4.246   .     S
Pb115  O133    2.458   .     S
Pb115  O134    2.650   .     S
Pb115  O248    2.444   .     S
Pb115  O249    2.592   .     S
Cs116  O122    3.067   .     S
Cs116  O245    3.282   .     S
Cs116  O249    3.130   .     S
Cs116  O250    3.277   .     S
Cs116  O17     3.453   1_455 S
Cs117  O128    3.119   .     S
Cs117  O133    3.018   .     S
Cs117  O239    3.383   .     S
Cs117  O248    3.330   .     S
Cs117  Pb114   4.206   1_655 S
Cs117  S231    4.012   1_554 D
S118   O126    1.447   .     D
S118   C149    1.796   .     S
S118   C154    1.794   .     S
S118   Cs230   4.012   .     S
S118   O125    1.472   1_455 S
S119   O132    1.433   .     D
S119   C171    1.777   .     S
S119   C176    1.754   .     S
S119   O131    1.433   1_655 S
S120   O138    1.433   .     D
S120   C192    1.763   .     S
S120   O137    1.430   1_554 D
S120   C197    1.759   1_554 S
O121   Pb114   2.422   1_655 D
O121   C143    1.305   1_655 D
O122   C143    1.254   .     S
O123   C164    1.275   .     S
O123   Cs4     3.131   1_455 S
O124   C164    1.270   .     D
O125   S118    1.472   1_655 S
O126   Cs230   3.383   .     S
O127   C165    1.268   1_455 S
O128   C165    1.241   .     S
O128   Pb114   2.553   1_655 S
O129   C185    1.247   .     S
O130   C185    1.267   .     S
O131   Cs3     3.280   1_565 S
O131   S119    1.433   1_455 S
O132   Cs229   3.282   1_554 S
O133   C186    1.282   .     S
O134   C186    1.234   .     D
O135   C207    1.253   .     A
O135   Cs230   3.330   .     S
O135   Pb228   2.444   1_455 D
O136   Pb228   2.592   .     S
O136   Cs229   3.130   .     S
O136   C207    1.277   1_655 S
O137   Cs229   3.277   .     S
O137   S120    1.430   1_556 D
O138   Cs3     3.288   1_565 S
C143   C144    1.494   .     S
C143   O121    1.305   1_455 D
C144   C152    1.340   .     A
C144   C145    1.427   1_455 S
C145   H146    0.929   .     S
C145   C147    1.406   .     A
C145   C144    1.427   1_655 S
C147   H148    0.930   .     S
C147   C149    1.386   1_655 S
C149   C150    1.336   .     A
C149   C147    1.386   1_455 S
C150   H151    0.930   .     S
C150   C152    1.444   .     A
C152   H153    0.929   .     S
C154   C155    1.351   .     A
C154   C162    1.310   .     A
C155   C157    1.447   .     A
C155   H156    0.930   1_455 A
H156   C155    0.930   1_655 A
C157   C159    1.405   .     A
C157   H158    0.931   1_455 S
H158   C157    0.931   1_655 S
C159   C160    1.342   .     A
C159   C164    1.529   1_565 S
C160   H161    0.930   .     S
C160   C162    1.449   .     A
C162   H163    0.926   .     S
C164   C159    1.529   1_545 S
C165   C166    1.523   .     S
C165   O127    1.268   1_655 S
C166   C174    1.363   .     A
C166   C167    1.381   1_655 S
C167   H168    0.931   .     S
C167   C169    1.430   .     A
C167   C166    1.381   1_455 S
C169   H170    0.931   .     S
C169   C171    1.361   1_455 A
C171   C172    1.386   .     A
C171   C169    1.361   1_655 A
C172   H173    0.931   .     S
C172   C174    1.406   .     A
C174   H175    0.930   .     S
C176   C177    1.426   .     D
C176   C183    1.379   .     S
C177   C178    1.434   .     D
C178   C180    1.388   .     S
C178   H179    0.930   1_565 A
H179   C178    0.930   1_545 A
C180   C181    1.369   .     S
C180   C185    1.523   1_565 A
C181   H182    0.931   .     S
C181   C183    1.381   .     D
C183   H184    0.931   .     S
C185   C180    1.523   1_545 A
C186   C187    1.494   .     S
C187   C188    1.397   .     A
C187   C195    1.378   .     A
C188   H189    0.930   .     S
C188   C190    1.373   .     A
C190   H191    0.929   .     S
C190   C192    1.394   .     A
C192   C193    1.348   .     A
C193   H194    0.930   .     S
C193   C195    1.424   .     A
C195   H196    0.930   .     S
C197   C198    1.366   .     A
C197   C205    1.377   .     A
C197   S120    1.759   1_556 S
C198   C200    1.422   .     A
C198   H199    0.931   1_556 A
H199   C198    0.931   1_554 A
C200   H201    0.929   .     S
C200   C202    1.402   .     A
C202   C203    1.360   .     A
C202   C207    1.495   .     S
C203   H204    0.930   .     S
C203   C205    1.407   .     A
C205   H206    0.930   .     S
C207   O136    1.277   1_455 S
Pb227  Cs230   4.206   .     S
Pb227  O234    2.422   .     S
Pb227  O235    2.748   .     S
Pb227  O240    2.628   .     S
Pb227  O241    2.553   .     S
Pb227  O350    2.754   .     S
Pb227  O355    2.559   .     S
Pb227  O356    2.639   .     S
Pb228  Cs229   4.635   .     S
Pb228  O246    2.458   .     S
Pb228  O247    2.650   .     S
Pb228  O349    2.434   .     S
Pb228  O135    2.444   1_655 D
Pb228  Cs230   4.246   1_655 S
Cs229  O235    3.067   .     S
Cs229  O356    3.453   .     S
Cs229  O132    3.282   1_556 S
Cs229  O357    3.280   1_565 S
Cs229  O364    3.288   1_565 A
Cs230  O241    3.119   .     S
Cs230  O355    2.984   .     S
Cs230  Pb228   4.246   1_455 S
Cs230  O246    3.018   1_455 S
Cs230  O349    3.131   1_455 S
S231   O238    1.472   .     D
S231   C262    1.796   .     S
S231   C267    1.794   .     S
S231   Cs117   4.012   1_556 D
S231   O239    1.447   1_556 S
S232   O244    1.433   .     D
S232   O245    1.433   .     D
S232   C284    1.777   .     S
S232   C289    1.754   .     S
S233   O251    1.433   .     D
S233   C305    1.763   .     S
S233   C310    1.759   .     S
S233   O250    1.430   1_655 S
O234   C256    1.305   .     D
O235   C256    1.254   .     S
O236   C277    1.275   .     S
O236   Pb341   2.434   .     S
O236   Cs343   3.131   .     S
O237   C277    1.270   .     D
O237   Pb340   2.754   .     S
O239   S231    1.447   1_554 S
O240   C278    1.268   .     D
O241   C278    1.241   .     S
O242   C298    1.247   .     S
O242   Cs343   2.984   .     S
O242   Pb340   2.559   1_455 A
O243   C298    1.267   .     S
O243   Pb340   2.639   1_455 S
O243   Cs342   3.453   1_455 A
O244   Cs342   3.280   .     S
O246   C299    1.282   .     S
O246   Cs230   3.018   1_655 S
O247   C299    1.234   .     D
O248   C320    1.253   .     A
O249   C320    1.277   .     A
O250   S233    1.430   1_455 S
O251   Cs342   3.288   .     S
C256   C257    1.494   .     S
C257   C258    1.427   .     A
C257   C265    1.340   .     A
C258   H259    0.929   .     S
C258   C260    1.406   .     A
C260   H261    0.930   .     S
C260   C262    1.386   .     A
C262   C263    1.336   .     A
C263   H264    0.930   .     S
C263   C265    1.444   .     A
C265   H266    0.929   .     S
C267   C268    1.351   .     A
C267   C275    1.310   .     A
C268   H269    0.930   .     S
C268   C270    1.447   .     A
C270   H271    0.931   .     S
C270   C272    1.405   .     A
C272   C273    1.342   .     A
C272   C277    1.529   .     S
C273   H274    0.930   .     S
C273   C275    1.449   .     A
C275   H276    0.926   .     S
C278   C279    1.523   .     S
C279   C280    1.381   .     A
C279   C287    1.363   .     A
C280   H281    0.931   .     S
C280   C282    1.430   .     A
C282   H283    0.931   .     S
C282   C284    1.361   .     A
C284   C285    1.386   .     A
C285   H286    0.931   .     S
C285   C287    1.406   .     A
C287   H288    0.930   .     S
C289   C290    1.426   .     D
C289   C296    1.379   .     S
C290   C291    1.434   .     D
C291   H292    0.930   .     S
C291   C293    1.388   .     S
C293   C294    1.369   .     S
C293   C298    1.523   .     D
C294   H295    0.931   .     S
C294   C296    1.381   .     D
C296   H297    0.931   .     S
C299   C300    1.494   .     S
C300   C301    1.397   .     A
C300   C308    1.378   .     A
C301   H302    0.930   .     S
C301   C303    1.373   .     A
C303   H304    0.929   .     S
C303   C305    1.394   .     A
C305   C306    1.348   .     A
C306   C308    1.424   .     A
C306   H307    0.930   1_655 A
H307   C306    0.930   1_455 A
C308   H309    0.930   1_655 A
H309   C308    0.930   1_455 A
C310   C311    1.366   .     A
C310   C318    1.377   .     A
C311   H312    0.931   .     S
C311   C313    1.422   .     A
C313   H314    0.929   .     S
C313   C315    1.402   .     A
C315   C316    1.360   .     A
C315   C320    1.495   .     S
C316   H317    0.930   .     S
C316   C318    1.407   .     A
C318   H319    0.930   .     S
Pb340  O348    2.748   .     S
Pb340  O353    2.628   .     S
Pb340  O242    2.559   1_655 A
Pb340  O243    2.639   1_655 S
Pb340  Cs343   4.206   1_655 D
Pb340  O347    2.422   1_655 S
Pb340  O354    2.553   1_655 S
Pb341  Cs342   4.635   .     S
Pb341  Cs343   4.246   .     S
Pb341  O359    2.458   .     S
Pb341  O360    2.650   .     S
Cs342  O348    3.067   .     S
Cs342  O243    3.453   1_655 A
Cs343  O354    3.119   .     S
Cs343  O359    3.018   .     S
Cs343  S5      4.012   1_556 S
Cs343  Pb340   4.206   1_455 D
S344   O352    1.447   .     D
S344   C375    1.796   .     S
S344   C380    1.794   .     S
S344   O351    1.472   1_655 D
S345   O358    1.433   .     D
S345   C397    1.777   .     S
S345   C402    1.754   .     S
S345   O357    1.433   1_455 S
S346   O364    1.433   .     D
S346   C418    1.763   .     S
S346   O363    1.430   1_556 S
S346   C423    1.759   1_556 A
O347   Pb340   2.422   1_455 S
O347   C369    1.305   1_455 S
O348   C369    1.254   .     S
O349   C390    1.275   .     S
O349   Cs230   3.131   1_655 S
O350   C390    1.270   .     D
O351   S344    1.472   1_455 D
O353   C391    1.268   1_655 A
O354   C391    1.241   .     S
O354   Pb340   2.553   1_455 S
O355   C411    1.247   .     S
O356   C411    1.267   .     S
O357   Cs229   3.280   1_545 S
O357   S345    1.433   1_655 S
O358   Cs3     3.282   1_556 S
O359   C412    1.282   .     S
O360   C412    1.234   .     D
O361   C433    1.253   .     A
O361   Pb2     2.444   1_655 S
O362   C433    1.277   1_455 A
O363   S346    1.430   1_554 S
O364   Cs229   3.288   1_545 A
C369   C370    1.494   .     S
C369   O347    1.305   1_655 S
C370   C378    1.340   .     A
C370   C371    1.427   1_655 S
C371   H372    0.929   .     S
C371   C373    1.406   .     A
C371   C370    1.427   1_455 S
C373   H374    0.930   .     S
C373   C375    1.386   1_455 A
C375   C376    1.336   .     A
C375   C373    1.386   1_655 A
C376   H377    0.930   .     S
C376   C378    1.444   .     A
C378   H379    0.929   .     S
C380   C381    1.351   .     A
C380   C388    1.310   .     A
C381   C383    1.447   .     A
C381   H382    0.930   1_655 S
H382   C381    0.930   1_455 S
C383   C385    1.405   .     A
C383   H384    0.931   1_655 S
H384   C383    0.931   1_455 S
C385   C386    1.342   .     A
C385   C390    1.529   1_545 S
C386   H387    0.930   .     S
C386   C388    1.449   .     A
C388   H389    0.926   .     S
C390   C385    1.529   1_565 S
C391   C392    1.523   .     S
C391   O353    1.268   1_455 A
C392   C400    1.363   .     A
C392   C393    1.381   1_455 S
C393   H394    0.931   .     S
C393   C395    1.430   .     A
C393   C392    1.381   1_655 S
C395   H396    0.931   .     S
C395   C397    1.361   1_655 S
C397   C398    1.386   .     A
C397   C395    1.361   1_455 S
C398   H399    0.931   .     S
C398   C400    1.406   .     A
C400   H401    0.930   .     S
C402   C403    1.426   .     D
C402   C409    1.379   .     S
C403   C404    1.434   .     D
C404   C406    1.388   .     S
C404   H405    0.930   1_545 S
H405   C404    0.930   1_565 S
C406   C407    1.369   .     S
C406   C411    1.523   1_545 S
C407   H408    0.931   .     S
C407   C409    1.381   .     D
C409   H410    0.931   .     S
C411   C406    1.523   1_565 S
C412   C413    1.494   .     S
C413   C414    1.397   .     A
C413   C421    1.378   .     A
C414   H415    0.930   .     S
C414   C416    1.373   .     A
C416   H417    0.929   .     S
C416   C418    1.394   .     A
C418   C419    1.348   .     A
C419   H420    0.930   .     S
C419   C421    1.424   .     A
C421   H422    0.930   .     S
C423   C424    1.366   .     A
C423   C431    1.377   .     A
C423   S346    1.759   1_554 A
C424   C426    1.422   .     A
C424   H425    0.931   1_554 D
H425   C424    0.931   1_556 D
C426   H427    0.929   .     S
C426   C428    1.402   .     A
C428   C429    1.360   .     A
C428   C433    1.495   .     S
C429   H430    0.930   .     S
C429   C431    1.407   .     A
C431   H432    0.930   .     S
C433   O362    1.277   1_655 A
