data_image0
_cell_length_a       31.236
_cell_length_b       31.236
_cell_length_c       28.194
_cell_angle_alpha    90
_cell_angle_beta     90
_cell_angle_gamma    90

_symmetry_space_group_name_H-M    "P 1"
_symmetry_int_tables_number       1

loop_
  _symmetry_equiv_pos_as_xyz
  'x, y, z'

loop_
  _atom_site_label
  _atom_site_occupancy
  _atom_site_fract_x
  _atom_site_fract_y
  _atom_site_fract_z
  _atom_site_thermal_displace_type
  _atom_site_B_iso_or_equiv
  _atom_site_type_symbol
  C1       1.0000 0.90230  0.20030  0.43560  Biso   1.000  C
  C2       1.0000 0.92610  0.22082  0.39600  Biso   1.000  C
  C3       1.0000 0.91290  0.25990  0.37810  Biso   1.000  C
  H1       1.0000 0.88920  0.27330  0.39130  Biso   1.000  H
  C4       1.0000 0.93430  0.27940  0.34090  Biso   1.000  C
  H2       1.0000 0.92500  0.30570  0.32930  Biso   1.000  H
  C5       1.0000 0.98340  0.22170  0.33890  Biso   1.000  C
  H3       1.0000 0.00730  0.20820  0.32620  Biso   1.000  H
  C6       1.0000 0.96130  0.20260  0.37690  Biso   1.000  C
  H4       1.0000 0.97110  0.17680  0.38910  Biso   1.000  H
  C7       1.0000 0.97020  0.25930  0.32070  Biso   1.000  C
  C8       1.0000 0.99630  0.32420  0.27790  Biso   1.000  C
  H5       1.0000 0.98360  0.34070  0.30160  Biso   1.000  H
  C9       1.0000 0.99270  0.27969  0.28040  Biso   1.000  C
  C10      1.0000 0.01220  0.25560  0.24460  Biso   1.000  C
  H6       1.0000 0.01070  0.22590  0.24550  Biso   1.000  H
  C11      1.0000 0.03420  0.27600  0.20740  Biso   1.000  C
  C12      1.0000 0.03500  0.32044  0.20830  Biso   1.000  C
  H7       1.0000 0.04870  0.33470  0.18370  Biso   1.000  H
  C13      1.0000 0.05670  0.25171  0.17020  Biso   1.000  C
  C14      1.0000 0.04070  0.21380  0.15530  Biso   1.000  C
  H8       1.0000 0.01590  0.20320  0.16920  Biso   1.000  H
  C15      1.0000 0.06100  0.18980  0.11890  Biso   1.000  C
  H9       1.0000 0.04920  0.16420  0.10840  Biso   1.000  H
  C16      1.0000 0.09900  0.20520  0.09930  Biso   1.000  C
  C17      1.0000 0.11400  0.24320  0.11500  Biso   1.000  C
  H10      1.0000 0.13890  0.25440  0.10170  Biso   1.000  H
  C18      1.0000 0.09330  0.26590  0.15050  Biso   1.000  C
  H11      1.0000 0.10500  0.29150  0.16110  Biso   1.000  H
  C19      1.0000 0.12180  0.18020  0.06320  Biso   1.000  C
  O1       1.0000 0.15695  0.19510  0.04884  Biso   1.000  O
  O2       1.0000 0.10478  0.14601  0.04909  Biso   1.000  O
  Cu1      1.0000 0.02158  0.40859  0.24561  Biso   1.000  Cu
  N1       1.0000 0.01703  0.34408  0.24286  Biso   1.000  N
  O3       1.0000 0.86918  0.21796  0.45075  Biso   1.000  O
  O4       1.0000 0.91733  0.16539  0.45027  Biso   1.000  O
  O5       1.0000 0.03438  0.40016  0.31434  Biso   1.000  O
  O6       1.0000 0.02586  0.46813  0.35192  Biso   1.000  O
  O7       1.0000 0.09350  0.44760  0.31931  Biso   1.000  O
  O8       1.0000 0.06743  0.41386  0.38886  Biso   1.000  O
  O9       1.0000 0.95894  0.41900  0.22080  Biso   1.000  O
  O10      1.0000 0.91860  0.38253  0.28180  Biso   1.000  O
  S1       1.0000 0.05600  0.43211  0.34416  Biso   1.000  S
  C20      1.0000 0.09770  0.79970  0.43560  Biso   1.000  C
  C21      1.0000 0.07390  0.77918  0.39600  Biso   1.000  C
  C22      1.0000 0.08710  0.74010  0.37810  Biso   1.000  C
  H12      1.0000 0.11080  0.72670  0.39130  Biso   1.000  H
  C23      1.0000 0.06570  0.72060  0.34090  Biso   1.000  C
  H13      1.0000 0.07500  0.69430  0.32930  Biso   1.000  H
  C24      1.0000 0.01660  0.77830  0.33890  Biso   1.000  C
  H14      1.0000 0.99270  0.79180  0.32620  Biso   1.000  H
  C25      1.0000 0.03870  0.79740  0.37690  Biso   1.000  C
  H15      1.0000 0.02890  0.82320  0.38910  Biso   1.000  H
  C26      1.0000 0.02980  0.74070  0.32070  Biso   1.000  C
  C27      1.0000 0.00370  0.67580  0.27790  Biso   1.000  C
  H16      1.0000 0.01640  0.65930  0.30160  Biso   1.000  H
  C28      1.0000 0.00730  0.72031  0.28040  Biso   1.000  C
  C29      1.0000 0.98780  0.74440  0.24460  Biso   1.000  C
  H17      1.0000 0.98930  0.77410  0.24550  Biso   1.000  H
  C30      1.0000 0.96580  0.72400  0.20740  Biso   1.000  C
  C31      1.0000 0.96500  0.67956  0.20830  Biso   1.000  C
  H18      1.0000 0.95130  0.66530  0.18370  Biso   1.000  H
  C32      1.0000 0.94330  0.74829  0.17020  Biso   1.000  C
  C33      1.0000 0.95930  0.78620  0.15530  Biso   1.000  C
  H19      1.0000 0.98410  0.79680  0.16920  Biso   1.000  H
  C34      1.0000 0.93900  0.81020  0.11890  Biso   1.000  C
  H20      1.0000 0.95080  0.83580  0.10840  Biso   1.000  H
  C35      1.0000 0.90100  0.79480  0.09930  Biso   1.000  C
  C36      1.0000 0.88600  0.75680  0.11500  Biso   1.000  C
  H21      1.0000 0.86110  0.74560  0.10170  Biso   1.000  H
  C37      1.0000 0.90670  0.73410  0.15050  Biso   1.000  C
  H22      1.0000 0.89500  0.70850  0.16110  Biso   1.000  H
  C38      1.0000 0.87820  0.81980  0.06320  Biso   1.000  C
  O11      1.0000 0.84305  0.80490  0.04884  Biso   1.000  O
  O12      1.0000 0.89522  0.85399  0.04909  Biso   1.000  O
  Cu2      1.0000 0.97842  0.59141  0.24561  Biso   1.000  Cu
  N2       1.0000 0.98297  0.65592  0.24286  Biso   1.000  N
  O13      1.0000 0.13082  0.78204  0.45075  Biso   1.000  O
  O14      1.0000 0.08267  0.83461  0.45027  Biso   1.000  O
  O15      1.0000 0.96562  0.59984  0.31434  Biso   1.000  O
  O16      1.0000 0.97414  0.53187  0.35192  Biso   1.000  O
  O17      1.0000 0.90650  0.55240  0.31931  Biso   1.000  O
  O18      1.0000 0.93257  0.58614  0.38886  Biso   1.000  O
  O19      1.0000 0.04106  0.58100  0.22080  Biso   1.000  O
  O20      1.0000 0.08140  0.61747  0.28180  Biso   1.000  O
  S2       1.0000 0.94400  0.56789  0.34416  Biso   1.000  S
  C39      1.0000 0.79970  0.90230  0.93560  Biso   1.000  C
  C40      1.0000 0.77918  0.92610  0.89600  Biso   1.000  C
  C41      1.0000 0.74010  0.91290  0.87810  Biso   1.000  C
  H23      1.0000 0.72670  0.88920  0.89130  Biso   1.000  H
  C42      1.0000 0.72060  0.93430  0.84090  Biso   1.000  C
  H24      1.0000 0.69430  0.92500  0.82930  Biso   1.000  H
  C43      1.0000 0.77830  0.98340  0.83890  Biso   1.000  C
  H25      1.0000 0.79180  0.00730  0.82620  Biso   1.000  H
  C44      1.0000 0.79740  0.96130  0.87690  Biso   1.000  C
  H26      1.0000 0.82320  0.97110  0.88910  Biso   1.000  H
  C45      1.0000 0.74070  0.97020  0.82070  Biso   1.000  C
  C46      1.0000 0.67580  0.99630  0.77790  Biso   1.000  C
  H27      1.0000 0.65930  0.98360  0.80160  Biso   1.000  H
  C47      1.0000 0.72031  0.99270  0.78040  Biso   1.000  C
  C48      1.0000 0.74440  0.01220  0.74460  Biso   1.000  C
  H28      1.0000 0.77410  0.01070  0.74550  Biso   1.000  H
  C49      1.0000 0.72400  0.03420  0.70740  Biso   1.000  C
  C50      1.0000 0.67956  0.03500  0.70830  Biso   1.000  C
  H29      1.0000 0.66530  0.04870  0.68370  Biso   1.000  H
  C51      1.0000 0.74829  0.05670  0.67020  Biso   1.000  C
  C52      1.0000 0.78620  0.04070  0.65530  Biso   1.000  C
  H30      1.0000 0.79680  0.01590  0.66920  Biso   1.000  H
  C53      1.0000 0.81020  0.06100  0.61890  Biso   1.000  C
  H31      1.0000 0.83580  0.04920  0.60840  Biso   1.000  H
  C54      1.0000 0.79480  0.09900  0.59930  Biso   1.000  C
  C55      1.0000 0.75680  0.11400  0.61500  Biso   1.000  C
  H32      1.0000 0.74560  0.13890  0.60170  Biso   1.000  H
  C56      1.0000 0.73410  0.09330  0.65050  Biso   1.000  C
  H33      1.0000 0.70850  0.10500  0.66110  Biso   1.000  H
  C57      1.0000 0.81980  0.12180  0.56320  Biso   1.000  C
  O21      1.0000 0.80490  0.15695  0.54884  Biso   1.000  O
  O22      1.0000 0.85399  0.10478  0.54909  Biso   1.000  O
  Cu3      1.0000 0.59141  0.02158  0.74561  Biso   1.000  Cu
  N3       1.0000 0.65592  0.01703  0.74286  Biso   1.000  N
  O23      1.0000 0.78204  0.86918  0.95075  Biso   1.000  O
  O24      1.0000 0.83461  0.91733  0.95027  Biso   1.000  O
  O25      1.0000 0.59984  0.03438  0.81434  Biso   1.000  O
  O26      1.0000 0.53187  0.02586  0.85192  Biso   1.000  O
  O27      1.0000 0.55240  0.09350  0.81931  Biso   1.000  O
  O28      1.0000 0.58614  0.06743  0.88886  Biso   1.000  O
  O29      1.0000 0.58100  0.95894  0.72080  Biso   1.000  O
  O30      1.0000 0.61747  0.91860  0.78180  Biso   1.000  O
  S3       1.0000 0.56789  0.05600  0.84416  Biso   1.000  S
  C58      1.0000 0.20030  0.09770  0.93560  Biso   1.000  C
  C59      1.0000 0.22082  0.07390  0.89600  Biso   1.000  C
  C60      1.0000 0.25990  0.08710  0.87810  Biso   1.000  C
  H34      1.0000 0.27330  0.11080  0.89130  Biso   1.000  H
  C61      1.0000 0.27940  0.06570  0.84090  Biso   1.000  C
  H35      1.0000 0.30570  0.07500  0.82930  Biso   1.000  H
  C62      1.0000 0.22170  0.01660  0.83890  Biso   1.000  C
  H36      1.0000 0.20820  0.99270  0.82620  Biso   1.000  H
  C63      1.0000 0.20260  0.03870  0.87690  Biso   1.000  C
  H37      1.0000 0.17680  0.02890  0.88910  Biso   1.000  H
  C64      1.0000 0.25930  0.02980  0.82070  Biso   1.000  C
  C65      1.0000 0.32420  0.00370  0.77790  Biso   1.000  C
  H38      1.0000 0.34070  0.01640  0.80160  Biso   1.000  H
  C66      1.0000 0.27969  0.00730  0.78040  Biso   1.000  C
  C67      1.0000 0.25560  0.98780  0.74460  Biso   1.000  C
  H39      1.0000 0.22590  0.98930  0.74550  Biso   1.000  H
  C68      1.0000 0.27600  0.96580  0.70740  Biso   1.000  C
  C69      1.0000 0.32044  0.96500  0.70830  Biso   1.000  C
  H40      1.0000 0.33470  0.95130  0.68370  Biso   1.000  H
  C70      1.0000 0.25171  0.94330  0.67020  Biso   1.000  C
  C71      1.0000 0.21380  0.95930  0.65530  Biso   1.000  C
  H41      1.0000 0.20320  0.98410  0.66920  Biso   1.000  H
  C72      1.0000 0.18980  0.93900  0.61890  Biso   1.000  C
  H42      1.0000 0.16420  0.95080  0.60840  Biso   1.000  H
  C73      1.0000 0.20520  0.90100  0.59930  Biso   1.000  C
  C74      1.0000 0.24320  0.88600  0.61500  Biso   1.000  C
  H43      1.0000 0.25440  0.86110  0.60170  Biso   1.000  H
  C75      1.0000 0.26590  0.90670  0.65050  Biso   1.000  C
  H44      1.0000 0.29150  0.89500  0.66110  Biso   1.000  H
  C76      1.0000 0.18020  0.87820  0.56320  Biso   1.000  C
  O31      1.0000 0.19510  0.84305  0.54884  Biso   1.000  O
  O32      1.0000 0.14601  0.89522  0.54909  Biso   1.000  O
  Cu4      1.0000 0.40859  0.97842  0.74561  Biso   1.000  Cu
  N4       1.0000 0.34408  0.98297  0.74286  Biso   1.000  N
  O33      1.0000 0.21796  0.13082  0.95075  Biso   1.000  O
  O34      1.0000 0.16539  0.08267  0.95027  Biso   1.000  O
  O35      1.0000 0.40016  0.96562  0.81434  Biso   1.000  O
  O36      1.0000 0.46813  0.97414  0.85192  Biso   1.000  O
  O37      1.0000 0.44760  0.90650  0.81931  Biso   1.000  O
  O38      1.0000 0.41386  0.93257  0.88886  Biso   1.000  O
  O39      1.0000 0.41900  0.04106  0.72080  Biso   1.000  O
  O40      1.0000 0.38253  0.08140  0.78180  Biso   1.000  O
  S4       1.0000 0.43211  0.94400  0.84416  Biso   1.000  S
  C77      1.0000 0.59770  0.70030  0.56440  Biso   1.000  C
  C78      1.0000 0.57390  0.72082  0.60400  Biso   1.000  C
  C79      1.0000 0.58710  0.75990  0.62190  Biso   1.000  C
  H45      1.0000 0.61080  0.77330  0.60870  Biso   1.000  H
  C80      1.0000 0.56570  0.77940  0.65910  Biso   1.000  C
  H46      1.0000 0.57500  0.80570  0.67070  Biso   1.000  H
  C81      1.0000 0.51660  0.72170  0.66110  Biso   1.000  C
  H47      1.0000 0.49270  0.70820  0.67380  Biso   1.000  H
  C82      1.0000 0.53870  0.70260  0.62310  Biso   1.000  C
  H48      1.0000 0.52890  0.67680  0.61090  Biso   1.000  H
  C83      1.0000 0.52980  0.75930  0.67930  Biso   1.000  C
  C84      1.0000 0.50370  0.82420  0.72210  Biso   1.000  C
  H49      1.0000 0.51640  0.84070  0.69840  Biso   1.000  H
  C85      1.0000 0.50730  0.77969  0.71960  Biso   1.000  C
  C86      1.0000 0.48780  0.75560  0.75540  Biso   1.000  C
  H50      1.0000 0.48930  0.72590  0.75450  Biso   1.000  H
  C87      1.0000 0.46580  0.77600  0.79260  Biso   1.000  C
  C88      1.0000 0.46500  0.82044  0.79170  Biso   1.000  C
  H51      1.0000 0.45130  0.83470  0.81630  Biso   1.000  H
  C89      1.0000 0.44330  0.75171  0.82980  Biso   1.000  C
  C90      1.0000 0.45930  0.71380  0.84470  Biso   1.000  C
  H52      1.0000 0.48410  0.70320  0.83080  Biso   1.000  H
  C91      1.0000 0.43900  0.68980  0.88110  Biso   1.000  C
  H53      1.0000 0.45080  0.66420  0.89160  Biso   1.000  H
  C92      1.0000 0.40100  0.70520  0.90070  Biso   1.000  C
  C93      1.0000 0.38600  0.74320  0.88500  Biso   1.000  C
  H54      1.0000 0.36110  0.75440  0.89830  Biso   1.000  H
  C94      1.0000 0.40670  0.76590  0.84950  Biso   1.000  C
  H55      1.0000 0.39500  0.79150  0.83890  Biso   1.000  H
  C95      1.0000 0.37820  0.68020  0.93680  Biso   1.000  C
  O41      1.0000 0.34305  0.69510  0.95116  Biso   1.000  O
  O42      1.0000 0.39522  0.64601  0.95091  Biso   1.000  O
  Cu5      1.0000 0.47842  0.90859  0.75439  Biso   1.000  Cu
  N5       1.0000 0.48297  0.84408  0.75714  Biso   1.000  N
  O43      1.0000 0.63082  0.71796  0.54925  Biso   1.000  O
  O44      1.0000 0.58267  0.66539  0.54973  Biso   1.000  O
  O45      1.0000 0.46562  0.90016  0.68566  Biso   1.000  O
  O46      1.0000 0.47414  0.96813  0.64808  Biso   1.000  O
  O47      1.0000 0.40650  0.94760  0.68069  Biso   1.000  O
  O48      1.0000 0.43257  0.91386  0.61114  Biso   1.000  O
  O49      1.0000 0.54106  0.91900  0.77920  Biso   1.000  O
  O50      1.0000 0.58140  0.88253  0.71820  Biso   1.000  O
  S5       1.0000 0.44400  0.93211  0.65584  Biso   1.000  S
  C96      1.0000 0.40230  0.29970  0.56440  Biso   1.000  C
  C97      1.0000 0.42610  0.27918  0.60400  Biso   1.000  C
  C98      1.0000 0.41290  0.24010  0.62190  Biso   1.000  C
  H56      1.0000 0.38920  0.22670  0.60870  Biso   1.000  H
  C99      1.0000 0.43430  0.22060  0.65910  Biso   1.000  C
  H57      1.0000 0.42500  0.19430  0.67070  Biso   1.000  H
  C100     1.0000 0.48340  0.27830  0.66110  Biso   1.000  C
  H58      1.0000 0.50730  0.29180  0.67380  Biso   1.000  H
  C101     1.0000 0.46130  0.29740  0.62310  Biso   1.000  C
  H59      1.0000 0.47110  0.32320  0.61090  Biso   1.000  H
  C102     1.0000 0.47020  0.24070  0.67930  Biso   1.000  C
  C103     1.0000 0.49630  0.17580  0.72210  Biso   1.000  C
  H60      1.0000 0.48360  0.15930  0.69840  Biso   1.000  H
  C104     1.0000 0.49270  0.22031  0.71960  Biso   1.000  C
  C105     1.0000 0.51220  0.24440  0.75540  Biso   1.000  C
  H61      1.0000 0.51070  0.27410  0.75450  Biso   1.000  H
  C106     1.0000 0.53420  0.22400  0.79260  Biso   1.000  C
  C107     1.0000 0.53500  0.17956  0.79170  Biso   1.000  C
  H62      1.0000 0.54870  0.16530  0.81630  Biso   1.000  H
  C108     1.0000 0.55670  0.24829  0.82980  Biso   1.000  C
  C109     1.0000 0.54070  0.28620  0.84470  Biso   1.000  C
  H63      1.0000 0.51590  0.29680  0.83080  Biso   1.000  H
  C110     1.0000 0.56100  0.31020  0.88110  Biso   1.000  C
  H64      1.0000 0.54920  0.33580  0.89160  Biso   1.000  H
  C111     1.0000 0.59900  0.29480  0.90070  Biso   1.000  C
  C112     1.0000 0.61400  0.25680  0.88500  Biso   1.000  C
  H65      1.0000 0.63890  0.24560  0.89830  Biso   1.000  H
  C113     1.0000 0.59330  0.23410  0.84950  Biso   1.000  C
  H66      1.0000 0.60500  0.20850  0.83890  Biso   1.000  H
  C114     1.0000 0.62180  0.31980  0.93680  Biso   1.000  C
  O51      1.0000 0.65695  0.30490  0.95116  Biso   1.000  O
  O52      1.0000 0.60478  0.35399  0.95091  Biso   1.000  O
  Cu6      1.0000 0.52158  0.09141  0.75439  Biso   1.000  Cu
  N6       1.0000 0.51703  0.15592  0.75714  Biso   1.000  N
  O53      1.0000 0.36918  0.28204  0.54925  Biso   1.000  O
  O54      1.0000 0.41733  0.33461  0.54973  Biso   1.000  O
  O55      1.0000 0.53438  0.09984  0.68566  Biso   1.000  O
  O56      1.0000 0.52586  0.03187  0.64808  Biso   1.000  O
  O57      1.0000 0.59350  0.05240  0.68069  Biso   1.000  O
  O58      1.0000 0.56743  0.08614  0.61114  Biso   1.000  O
  O59      1.0000 0.45894  0.08100  0.77920  Biso   1.000  O
  O60      1.0000 0.41860  0.11747  0.71820  Biso   1.000  O
  S6       1.0000 0.55600  0.06789  0.65584  Biso   1.000  S
  C115     1.0000 0.70030  0.40230  0.06440  Biso   1.000  C
  C116     1.0000 0.72082  0.42610  0.10400  Biso   1.000  C
  C117     1.0000 0.75990  0.41290  0.12190  Biso   1.000  C
  H67      1.0000 0.77330  0.38920  0.10870  Biso   1.000  H
  C118     1.0000 0.77940  0.43430  0.15910  Biso   1.000  C
  H68      1.0000 0.80570  0.42500  0.17070  Biso   1.000  H
  C119     1.0000 0.72170  0.48340  0.16110  Biso   1.000  C
  H69      1.0000 0.70820  0.50730  0.17380  Biso   1.000  H
  C120     1.0000 0.70260  0.46130  0.12310  Biso   1.000  C
  H70      1.0000 0.67680  0.47110  0.11090  Biso   1.000  H
  C121     1.0000 0.75930  0.47020  0.17930  Biso   1.000  C
  C122     1.0000 0.82420  0.49630  0.22210  Biso   1.000  C
  H71      1.0000 0.84070  0.48360  0.19840  Biso   1.000  H
  C123     1.0000 0.77969  0.49270  0.21960  Biso   1.000  C
  C124     1.0000 0.75560  0.51220  0.25540  Biso   1.000  C
  H72      1.0000 0.72590  0.51070  0.25450  Biso   1.000  H
  C125     1.0000 0.77600  0.53420  0.29260  Biso   1.000  C
  C126     1.0000 0.82044  0.53500  0.29170  Biso   1.000  C
  H73      1.0000 0.83470  0.54870  0.31630  Biso   1.000  H
  C127     1.0000 0.75171  0.55670  0.32980  Biso   1.000  C
  C128     1.0000 0.71380  0.54070  0.34470  Biso   1.000  C
  H74      1.0000 0.70320  0.51590  0.33080  Biso   1.000  H
  C129     1.0000 0.68980  0.56100  0.38110  Biso   1.000  C
  H75      1.0000 0.66420  0.54920  0.39160  Biso   1.000  H
  C130     1.0000 0.70520  0.59900  0.40070  Biso   1.000  C
  C131     1.0000 0.74320  0.61400  0.38500  Biso   1.000  C
  H76      1.0000 0.75440  0.63890  0.39830  Biso   1.000  H
  C132     1.0000 0.76590  0.59330  0.34950  Biso   1.000  C
  H77      1.0000 0.79150  0.60500  0.33890  Biso   1.000  H
  C133     1.0000 0.68020  0.62180  0.43680  Biso   1.000  C
  O61      1.0000 0.69510  0.65695  0.45116  Biso   1.000  O
  O62      1.0000 0.64601  0.60478  0.45091  Biso   1.000  O
  Cu7      1.0000 0.90859  0.52158  0.25439  Biso   1.000  Cu
  N7       1.0000 0.84408  0.51703  0.25714  Biso   1.000  N
  O63      1.0000 0.71796  0.36918  0.04925  Biso   1.000  O
  O64      1.0000 0.66539  0.41733  0.04973  Biso   1.000  O
  O65      1.0000 0.90016  0.53438  0.18566  Biso   1.000  O
  O66      1.0000 0.96813  0.52586  0.14808  Biso   1.000  O
  O67      1.0000 0.94760  0.59350  0.18069  Biso   1.000  O
  O68      1.0000 0.91386  0.56743  0.11114  Biso   1.000  O
  O69      1.0000 0.91900  0.45894  0.27920  Biso   1.000  O
  O70      1.0000 0.88253  0.41860  0.21820  Biso   1.000  O
  S7       1.0000 0.93211  0.55600  0.15584  Biso   1.000  S
  C134     1.0000 0.29970  0.59770  0.06440  Biso   1.000  C
  C135     1.0000 0.27918  0.57390  0.10400  Biso   1.000  C
  C136     1.0000 0.24010  0.58710  0.12190  Biso   1.000  C
  H78      1.0000 0.22670  0.61080  0.10870  Biso   1.000  H
  C137     1.0000 0.22060  0.56570  0.15910  Biso   1.000  C
  H79      1.0000 0.19430  0.57500  0.17070  Biso   1.000  H
  C138     1.0000 0.27830  0.51660  0.16110  Biso   1.000  C
  H80      1.0000 0.29180  0.49270  0.17380  Biso   1.000  H
  C139     1.0000 0.29740  0.53870  0.12310  Biso   1.000  C
  H81      1.0000 0.32320  0.52890  0.11090  Biso   1.000  H
  C140     1.0000 0.24070  0.52980  0.17930  Biso   1.000  C
  C141     1.0000 0.17580  0.50370  0.22210  Biso   1.000  C
  H82      1.0000 0.15930  0.51640  0.19840  Biso   1.000  H
  C142     1.0000 0.22031  0.50730  0.21960  Biso   1.000  C
  C143     1.0000 0.24440  0.48780  0.25540  Biso   1.000  C
  H83      1.0000 0.27410  0.48930  0.25450  Biso   1.000  H
  C144     1.0000 0.22400  0.46580  0.29260  Biso   1.000  C
  C145     1.0000 0.17956  0.46500  0.29170  Biso   1.000  C
  H84      1.0000 0.16530  0.45130  0.31630  Biso   1.000  H
  C146     1.0000 0.24829  0.44330  0.32980  Biso   1.000  C
  C147     1.0000 0.28620  0.45930  0.34470  Biso   1.000  C
  H85      1.0000 0.29680  0.48410  0.33080  Biso   1.000  H
  C148     1.0000 0.31020  0.43900  0.38110  Biso   1.000  C
  H86      1.0000 0.33580  0.45080  0.39160  Biso   1.000  H
  C149     1.0000 0.29480  0.40100  0.40070  Biso   1.000  C
  C150     1.0000 0.25680  0.38600  0.38500  Biso   1.000  C
  H87      1.0000 0.24560  0.36110  0.39830  Biso   1.000  H
  C151     1.0000 0.23410  0.40670  0.34950  Biso   1.000  C
  H88      1.0000 0.20850  0.39500  0.33890  Biso   1.000  H
  C152     1.0000 0.31980  0.37820  0.43680  Biso   1.000  C
  O71      1.0000 0.30490  0.34305  0.45116  Biso   1.000  O
  O72      1.0000 0.35399  0.39522  0.45091  Biso   1.000  O
  Cu8      1.0000 0.09141  0.47842  0.25439  Biso   1.000  Cu
  N8       1.0000 0.15592  0.48297  0.25714  Biso   1.000  N
  O73      1.0000 0.28204  0.63082  0.04925  Biso   1.000  O
  O74      1.0000 0.33461  0.58267  0.04973  Biso   1.000  O
  O75      1.0000 0.09984  0.46562  0.18566  Biso   1.000  O
  O76      1.0000 0.03187  0.47414  0.14808  Biso   1.000  O
  O77      1.0000 0.05240  0.40650  0.18069  Biso   1.000  O
  O78      1.0000 0.08614  0.43257  0.11114  Biso   1.000  O
  O79      1.0000 0.08100  0.54106  0.27920  Biso   1.000  O
  O80      1.0000 0.11747  0.58140  0.21820  Biso   1.000  O
  S8       1.0000 0.06789  0.44400  0.15584  Biso   1.000  S
  C153     1.0000 0.09770  0.79970  0.56440  Biso   1.000  C
  C154     1.0000 0.07390  0.77918  0.60400  Biso   1.000  C
  C155     1.0000 0.08710  0.74010  0.62190  Biso   1.000  C
  H89      1.0000 0.11080  0.72670  0.60870  Biso   1.000  H
  C156     1.0000 0.06570  0.72060  0.65910  Biso   1.000  C
  H90      1.0000 0.07500  0.69430  0.67070  Biso   1.000  H
  C157     1.0000 0.01660  0.77830  0.66110  Biso   1.000  C
  H91      1.0000 0.99270  0.79180  0.67380  Biso   1.000  H
  C158     1.0000 0.03870  0.79740  0.62310  Biso   1.000  C
  H92      1.0000 0.02890  0.82320  0.61090  Biso   1.000  H
  C159     1.0000 0.02980  0.74070  0.67930  Biso   1.000  C
  C160     1.0000 0.00370  0.67580  0.72210  Biso   1.000  C
  H93      1.0000 0.01640  0.65930  0.69840  Biso   1.000  H
  C161     1.0000 0.00730  0.72031  0.71960  Biso   1.000  C
  C162     1.0000 0.98780  0.74440  0.75540  Biso   1.000  C
  H94      1.0000 0.98930  0.77410  0.75450  Biso   1.000  H
  C163     1.0000 0.96580  0.72400  0.79260  Biso   1.000  C
  C164     1.0000 0.96500  0.67956  0.79170  Biso   1.000  C
  H95      1.0000 0.95130  0.66530  0.81630  Biso   1.000  H
  C165     1.0000 0.94330  0.74829  0.82980  Biso   1.000  C
  C166     1.0000 0.95930  0.78620  0.84470  Biso   1.000  C
  H96      1.0000 0.98410  0.79680  0.83080  Biso   1.000  H
  C167     1.0000 0.93900  0.81020  0.88110  Biso   1.000  C
  H97      1.0000 0.95080  0.83580  0.89160  Biso   1.000  H
  C168     1.0000 0.90100  0.79480  0.90070  Biso   1.000  C
  C169     1.0000 0.88600  0.75680  0.88500  Biso   1.000  C
  H98      1.0000 0.86110  0.74560  0.89830  Biso   1.000  H
  C170     1.0000 0.90670  0.73410  0.84950  Biso   1.000  C
  H99      1.0000 0.89500  0.70850  0.83890  Biso   1.000  H
  C171     1.0000 0.87820  0.81980  0.93680  Biso   1.000  C
  O81      1.0000 0.84305  0.80490  0.95116  Biso   1.000  O
  O82      1.0000 0.89522  0.85399  0.95091  Biso   1.000  O
  Cu9      1.0000 0.97842  0.59141  0.75439  Biso   1.000  Cu
  N9       1.0000 0.98297  0.65592  0.75714  Biso   1.000  N
  O83      1.0000 0.13082  0.78204  0.54925  Biso   1.000  O
  O84      1.0000 0.08267  0.83461  0.54973  Biso   1.000  O
  O85      1.0000 0.96562  0.59984  0.68566  Biso   1.000  O
  O86      1.0000 0.97414  0.53187  0.64808  Biso   1.000  O
  O87      1.0000 0.90650  0.55240  0.68069  Biso   1.000  O
  O88      1.0000 0.93257  0.58614  0.61114  Biso   1.000  O
  O89      1.0000 0.04106  0.58100  0.77920  Biso   1.000  O
  O90      1.0000 0.08140  0.61747  0.71820  Biso   1.000  O
  S9       1.0000 0.94400  0.56789  0.65584  Biso   1.000  S
  C172     1.0000 0.90230  0.20030  0.56440  Biso   1.000  C
  C173     1.0000 0.92610  0.22082  0.60400  Biso   1.000  C
  C174     1.0000 0.91290  0.25990  0.62190  Biso   1.000  C
  H100     1.0000 0.88920  0.27330  0.60870  Biso   1.000  H
  C175     1.0000 0.93430  0.27940  0.65910  Biso   1.000  C
  H101     1.0000 0.92500  0.30570  0.67070  Biso   1.000  H
  C176     1.0000 0.98340  0.22170  0.66110  Biso   1.000  C
  H102     1.0000 0.00730  0.20820  0.67380  Biso   1.000  H
  C177     1.0000 0.96130  0.20260  0.62310  Biso   1.000  C
  H103     1.0000 0.97110  0.17680  0.61090  Biso   1.000  H
  C178     1.0000 0.97020  0.25930  0.67930  Biso   1.000  C
  C179     1.0000 0.99630  0.32420  0.72210  Biso   1.000  C
  H104     1.0000 0.98360  0.34070  0.69840  Biso   1.000  H
  C180     1.0000 0.99270  0.27969  0.71960  Biso   1.000  C
  C181     1.0000 0.01220  0.25560  0.75540  Biso   1.000  C
  H105     1.0000 0.01070  0.22590  0.75450  Biso   1.000  H
  C182     1.0000 0.03420  0.27600  0.79260  Biso   1.000  C
  C183     1.0000 0.03500  0.32044  0.79170  Biso   1.000  C
  H106     1.0000 0.04870  0.33470  0.81630  Biso   1.000  H
  C184     1.0000 0.05670  0.25171  0.82980  Biso   1.000  C
  C185     1.0000 0.04070  0.21380  0.84470  Biso   1.000  C
  H107     1.0000 0.01590  0.20320  0.83080  Biso   1.000  H
  C186     1.0000 0.06100  0.18980  0.88110  Biso   1.000  C
  H108     1.0000 0.04920  0.16420  0.89160  Biso   1.000  H
  C187     1.0000 0.09900  0.20520  0.90070  Biso   1.000  C
  C188     1.0000 0.11400  0.24320  0.88500  Biso   1.000  C
  H109     1.0000 0.13890  0.25440  0.89830  Biso   1.000  H
  C189     1.0000 0.09330  0.26590  0.84950  Biso   1.000  C
  H110     1.0000 0.10500  0.29150  0.83890  Biso   1.000  H
  C190     1.0000 0.12180  0.18020  0.93680  Biso   1.000  C
  O91      1.0000 0.15695  0.19510  0.95116  Biso   1.000  O
  O92      1.0000 0.10478  0.14601  0.95091  Biso   1.000  O
  Cu10     1.0000 0.02158  0.40859  0.75439  Biso   1.000  Cu
  N10      1.0000 0.01703  0.34408  0.75714  Biso   1.000  N
  O93      1.0000 0.86918  0.21796  0.54925  Biso   1.000  O
  O94      1.0000 0.91733  0.16539  0.54973  Biso   1.000  O
  O95      1.0000 0.03438  0.40016  0.68566  Biso   1.000  O
  O96      1.0000 0.02586  0.46813  0.64808  Biso   1.000  O
  O97      1.0000 0.09350  0.44760  0.68069  Biso   1.000  O
  O98      1.0000 0.06743  0.41386  0.61114  Biso   1.000  O
  O99      1.0000 0.95894  0.41900  0.77920  Biso   1.000  O
  O100     1.0000 0.91860  0.38253  0.71820  Biso   1.000  O
  S10      1.0000 0.05600  0.43211  0.65584  Biso   1.000  S
  C191     1.0000 0.20030  0.09770  0.06440  Biso   1.000  C
  C192     1.0000 0.22082  0.07390  0.10400  Biso   1.000  C
  C193     1.0000 0.25990  0.08710  0.12190  Biso   1.000  C
  H111     1.0000 0.27330  0.11080  0.10870  Biso   1.000  H
  C194     1.0000 0.27940  0.06570  0.15910  Biso   1.000  C
  H112     1.0000 0.30570  0.07500  0.17070  Biso   1.000  H
  C195     1.0000 0.22170  0.01660  0.16110  Biso   1.000  C
  H113     1.0000 0.20820  0.99270  0.17380  Biso   1.000  H
  C196     1.0000 0.20260  0.03870  0.12310  Biso   1.000  C
  H114     1.0000 0.17680  0.02890  0.11090  Biso   1.000  H
  C197     1.0000 0.25930  0.02980  0.17930  Biso   1.000  C
  C198     1.0000 0.32420  0.00370  0.22210  Biso   1.000  C
  H115     1.0000 0.34070  0.01640  0.19840  Biso   1.000  H
  C199     1.0000 0.27969  0.00730  0.21960  Biso   1.000  C
  C200     1.0000 0.25560  0.98780  0.25540  Biso   1.000  C
  H116     1.0000 0.22590  0.98930  0.25450  Biso   1.000  H
  C201     1.0000 0.27600  0.96580  0.29260  Biso   1.000  C
  C202     1.0000 0.32044  0.96500  0.29170  Biso   1.000  C
  H117     1.0000 0.33470  0.95130  0.31630  Biso   1.000  H
  C203     1.0000 0.25171  0.94330  0.32980  Biso   1.000  C
  C204     1.0000 0.21380  0.95930  0.34470  Biso   1.000  C
  H118     1.0000 0.20320  0.98410  0.33080  Biso   1.000  H
  C205     1.0000 0.18980  0.93900  0.38110  Biso   1.000  C
  H119     1.0000 0.16420  0.95080  0.39160  Biso   1.000  H
  C206     1.0000 0.20520  0.90100  0.40070  Biso   1.000  C
  C207     1.0000 0.24320  0.88600  0.38500  Biso   1.000  C
  H120     1.0000 0.25440  0.86110  0.39830  Biso   1.000  H
  C208     1.0000 0.26590  0.90670  0.34950  Biso   1.000  C
  H121     1.0000 0.29150  0.89500  0.33890  Biso   1.000  H
  C209     1.0000 0.18020  0.87820  0.43680  Biso   1.000  C
  O101     1.0000 0.19510  0.84305  0.45116  Biso   1.000  O
  O102     1.0000 0.14601  0.89522  0.45091  Biso   1.000  O
  Cu11     1.0000 0.40859  0.97842  0.25439  Biso   1.000  Cu
  N11      1.0000 0.34408  0.98297  0.25714  Biso   1.000  N
  O103     1.0000 0.21796  0.13082  0.04925  Biso   1.000  O
  O104     1.0000 0.16539  0.08267  0.04973  Biso   1.000  O
  O105     1.0000 0.40016  0.96562  0.18566  Biso   1.000  O
  O106     1.0000 0.46813  0.97414  0.14808  Biso   1.000  O
  O107     1.0000 0.44760  0.90650  0.18069  Biso   1.000  O
  O108     1.0000 0.41386  0.93257  0.11114  Biso   1.000  O
  O109     1.0000 0.41900  0.04106  0.27920  Biso   1.000  O
  O110     1.0000 0.38253  0.08140  0.21820  Biso   1.000  O
  S11      1.0000 0.43211  0.94400  0.15584  Biso   1.000  S
  C210     1.0000 0.79970  0.90230  0.06440  Biso   1.000  C
  C211     1.0000 0.77918  0.92610  0.10400  Biso   1.000  C
  C212     1.0000 0.74010  0.91290  0.12190  Biso   1.000  C
  H122     1.0000 0.72670  0.88920  0.10870  Biso   1.000  H
  C213     1.0000 0.72060  0.93430  0.15910  Biso   1.000  C
  H123     1.0000 0.69430  0.92500  0.17070  Biso   1.000  H
  C214     1.0000 0.77830  0.98340  0.16110  Biso   1.000  C
  H124     1.0000 0.79180  0.00730  0.17380  Biso   1.000  H
  C215     1.0000 0.79740  0.96130  0.12310  Biso   1.000  C
  H125     1.0000 0.82320  0.97110  0.11090  Biso   1.000  H
  C216     1.0000 0.74070  0.97020  0.17930  Biso   1.000  C
  C217     1.0000 0.67580  0.99630  0.22210  Biso   1.000  C
  H126     1.0000 0.65930  0.98360  0.19840  Biso   1.000  H
  C218     1.0000 0.72031  0.99270  0.21960  Biso   1.000  C
  C219     1.0000 0.74440  0.01220  0.25540  Biso   1.000  C
  H127     1.0000 0.77410  0.01070  0.25450  Biso   1.000  H
  C220     1.0000 0.72400  0.03420  0.29260  Biso   1.000  C
  C221     1.0000 0.67956  0.03500  0.29170  Biso   1.000  C
  H128     1.0000 0.66530  0.04870  0.31630  Biso   1.000  H
  C222     1.0000 0.74829  0.05670  0.32980  Biso   1.000  C
  C223     1.0000 0.78620  0.04070  0.34470  Biso   1.000  C
  H129     1.0000 0.79680  0.01590  0.33080  Biso   1.000  H
  C224     1.0000 0.81020  0.06100  0.38110  Biso   1.000  C
  H130     1.0000 0.83580  0.04920  0.39160  Biso   1.000  H
  C225     1.0000 0.79480  0.09900  0.40070  Biso   1.000  C
  C226     1.0000 0.75680  0.11400  0.38500  Biso   1.000  C
  H131     1.0000 0.74560  0.13890  0.39830  Biso   1.000  H
  C227     1.0000 0.73410  0.09330  0.34950  Biso   1.000  C
  H132     1.0000 0.70850  0.10500  0.33890  Biso   1.000  H
  C228     1.0000 0.81980  0.12180  0.43680  Biso   1.000  C
  O111     1.0000 0.80490  0.15695  0.45116  Biso   1.000  O
  O112     1.0000 0.85399  0.10478  0.45091  Biso   1.000  O
  Cu12     1.0000 0.59141  0.02158  0.25439  Biso   1.000  Cu
  N12      1.0000 0.65592  0.01703  0.25714  Biso   1.000  N
  O113     1.0000 0.78204  0.86918  0.04925  Biso   1.000  O
  O114     1.0000 0.83461  0.91733  0.04973  Biso   1.000  O
  O115     1.0000 0.59984  0.03438  0.18566  Biso   1.000  O
  O116     1.0000 0.53187  0.02586  0.14808  Biso   1.000  O
  O117     1.0000 0.55240  0.09350  0.18069  Biso   1.000  O
  O118     1.0000 0.58614  0.06743  0.11114  Biso   1.000  O
  O119     1.0000 0.58100  0.95894  0.27920  Biso   1.000  O
  O120     1.0000 0.61747  0.91860  0.21820  Biso   1.000  O
  S12      1.0000 0.56789  0.05600  0.15584  Biso   1.000  S
  C229     1.0000 0.40230  0.29970  0.43560  Biso   1.000  C
  C230     1.0000 0.42610  0.27918  0.39600  Biso   1.000  C
  C231     1.0000 0.41290  0.24010  0.37810  Biso   1.000  C
  H133     1.0000 0.38920  0.22670  0.39130  Biso   1.000  H
  C232     1.0000 0.43430  0.22060  0.34090  Biso   1.000  C
  H134     1.0000 0.42500  0.19430  0.32930  Biso   1.000  H
  C233     1.0000 0.48340  0.27830  0.33890  Biso   1.000  C
  H135     1.0000 0.50730  0.29180  0.32620  Biso   1.000  H
  C234     1.0000 0.46130  0.29740  0.37690  Biso   1.000  C
  H136     1.0000 0.47110  0.32320  0.38910  Biso   1.000  H
  C235     1.0000 0.47020  0.24070  0.32070  Biso   1.000  C
  C236     1.0000 0.49630  0.17580  0.27790  Biso   1.000  C
  H137     1.0000 0.48360  0.15930  0.30160  Biso   1.000  H
  C237     1.0000 0.49270  0.22031  0.28040  Biso   1.000  C
  C238     1.0000 0.51220  0.24440  0.24460  Biso   1.000  C
  H138     1.0000 0.51070  0.27410  0.24550  Biso   1.000  H
  C239     1.0000 0.53420  0.22400  0.20740  Biso   1.000  C
  C240     1.0000 0.53500  0.17956  0.20830  Biso   1.000  C
  H139     1.0000 0.54870  0.16530  0.18370  Biso   1.000  H
  C241     1.0000 0.55670  0.24829  0.17020  Biso   1.000  C
  C242     1.0000 0.54070  0.28620  0.15530  Biso   1.000  C
  H140     1.0000 0.51590  0.29680  0.16920  Biso   1.000  H
  C243     1.0000 0.56100  0.31020  0.11890  Biso   1.000  C
  H141     1.0000 0.54920  0.33580  0.10840  Biso   1.000  H
  C244     1.0000 0.59900  0.29480  0.09930  Biso   1.000  C
  C245     1.0000 0.61400  0.25680  0.11500  Biso   1.000  C
  H142     1.0000 0.63890  0.24560  0.10170  Biso   1.000  H
  C246     1.0000 0.59330  0.23410  0.15050  Biso   1.000  C
  H143     1.0000 0.60500  0.20850  0.16110  Biso   1.000  H
  C247     1.0000 0.62180  0.31980  0.06320  Biso   1.000  C
  O121     1.0000 0.65695  0.30490  0.04884  Biso   1.000  O
  O122     1.0000 0.60478  0.35399  0.04909  Biso   1.000  O
  Cu13     1.0000 0.52158  0.09141  0.24561  Biso   1.000  Cu
  N13      1.0000 0.51703  0.15592  0.24286  Biso   1.000  N
  O123     1.0000 0.36918  0.28204  0.45075  Biso   1.000  O
  O124     1.0000 0.41733  0.33461  0.45027  Biso   1.000  O
  O125     1.0000 0.53438  0.09984  0.31434  Biso   1.000  O
  O126     1.0000 0.52586  0.03187  0.35192  Biso   1.000  O
  O127     1.0000 0.59350  0.05240  0.31931  Biso   1.000  O
  O128     1.0000 0.56743  0.08614  0.38886  Biso   1.000  O
  O129     1.0000 0.45894  0.08100  0.22080  Biso   1.000  O
  O130     1.0000 0.41860  0.11747  0.28180  Biso   1.000  O
  S13      1.0000 0.55600  0.06789  0.34416  Biso   1.000  S
  C248     1.0000 0.59770  0.70030  0.43560  Biso   1.000  C
  C249     1.0000 0.57390  0.72082  0.39600  Biso   1.000  C
  C250     1.0000 0.58710  0.75990  0.37810  Biso   1.000  C
  H144     1.0000 0.61080  0.77330  0.39130  Biso   1.000  H
  C251     1.0000 0.56570  0.77940  0.34090  Biso   1.000  C
  H145     1.0000 0.57500  0.80570  0.32930  Biso   1.000  H
  C252     1.0000 0.51660  0.72170  0.33890  Biso   1.000  C
  H146     1.0000 0.49270  0.70820  0.32620  Biso   1.000  H
  C253     1.0000 0.53870  0.70260  0.37690  Biso   1.000  C
  H147     1.0000 0.52890  0.67680  0.38910  Biso   1.000  H
  C254     1.0000 0.52980  0.75930  0.32070  Biso   1.000  C
  C255     1.0000 0.50370  0.82420  0.27790  Biso   1.000  C
  H148     1.0000 0.51640  0.84070  0.30160  Biso   1.000  H
  C256     1.0000 0.50730  0.77969  0.28040  Biso   1.000  C
  C257     1.0000 0.48780  0.75560  0.24460  Biso   1.000  C
  H149     1.0000 0.48930  0.72590  0.24550  Biso   1.000  H
  C258     1.0000 0.46580  0.77600  0.20740  Biso   1.000  C
  C259     1.0000 0.46500  0.82044  0.20830  Biso   1.000  C
  H150     1.0000 0.45130  0.83470  0.18370  Biso   1.000  H
  C260     1.0000 0.44330  0.75171  0.17020  Biso   1.000  C
  C261     1.0000 0.45930  0.71380  0.15530  Biso   1.000  C
  H151     1.0000 0.48410  0.70320  0.16920  Biso   1.000  H
  C262     1.0000 0.43900  0.68980  0.11890  Biso   1.000  C
  H152     1.0000 0.45080  0.66420  0.10840  Biso   1.000  H
  C263     1.0000 0.40100  0.70520  0.09930  Biso   1.000  C
  C264     1.0000 0.38600  0.74320  0.11500  Biso   1.000  C
  H153     1.0000 0.36110  0.75440  0.10170  Biso   1.000  H
  C265     1.0000 0.40670  0.76590  0.15050  Biso   1.000  C
  H154     1.0000 0.39500  0.79150  0.16110  Biso   1.000  H
  C266     1.0000 0.37820  0.68020  0.06320  Biso   1.000  C
  O131     1.0000 0.34305  0.69510  0.04884  Biso   1.000  O
  O132     1.0000 0.39522  0.64601  0.04909  Biso   1.000  O
  Cu14     1.0000 0.47842  0.90859  0.24561  Biso   1.000  Cu
  N14      1.0000 0.48297  0.84408  0.24286  Biso   1.000  N
  O133     1.0000 0.63082  0.71796  0.45075  Biso   1.000  O
  O134     1.0000 0.58267  0.66539  0.45027  Biso   1.000  O
  O135     1.0000 0.46562  0.90016  0.31434  Biso   1.000  O
  O136     1.0000 0.47414  0.96813  0.35192  Biso   1.000  O
  O137     1.0000 0.40650  0.94760  0.31931  Biso   1.000  O
  O138     1.0000 0.43257  0.91386  0.38886  Biso   1.000  O
  O139     1.0000 0.54106  0.91900  0.22080  Biso   1.000  O
  O140     1.0000 0.58140  0.88253  0.28180  Biso   1.000  O
  S14      1.0000 0.44400  0.93211  0.34416  Biso   1.000  S
  C267     1.0000 0.29970  0.59770  0.93560  Biso   1.000  C
  C268     1.0000 0.27918  0.57390  0.89600  Biso   1.000  C
  C269     1.0000 0.24010  0.58710  0.87810  Biso   1.000  C
  H155     1.0000 0.22670  0.61080  0.89130  Biso   1.000  H
  C270     1.0000 0.22060  0.56570  0.84090  Biso   1.000  C
  H156     1.0000 0.19430  0.57500  0.82930  Biso   1.000  H
  C271     1.0000 0.27830  0.51660  0.83890  Biso   1.000  C
  H157     1.0000 0.29180  0.49270  0.82620  Biso   1.000  H
  C272     1.0000 0.29740  0.53870  0.87690  Biso   1.000  C
  H158     1.0000 0.32320  0.52890  0.88910  Biso   1.000  H
  C273     1.0000 0.24070  0.52980  0.82070  Biso   1.000  C
  C274     1.0000 0.17580  0.50370  0.77790  Biso   1.000  C
  H159     1.0000 0.15930  0.51640  0.80160  Biso   1.000  H
  C275     1.0000 0.22031  0.50730  0.78040  Biso   1.000  C
  C276     1.0000 0.24440  0.48780  0.74460  Biso   1.000  C
  H160     1.0000 0.27410  0.48930  0.74550  Biso   1.000  H
  C277     1.0000 0.22400  0.46580  0.70740  Biso   1.000  C
  C278     1.0000 0.17956  0.46500  0.70830  Biso   1.000  C
  H161     1.0000 0.16530  0.45130  0.68370  Biso   1.000  H
  C279     1.0000 0.24829  0.44330  0.67020  Biso   1.000  C
  C280     1.0000 0.28620  0.45930  0.65530  Biso   1.000  C
  H162     1.0000 0.29680  0.48410  0.66920  Biso   1.000  H
  C281     1.0000 0.31020  0.43900  0.61890  Biso   1.000  C
  H163     1.0000 0.33580  0.45080  0.60840  Biso   1.000  H
  C282     1.0000 0.29480  0.40100  0.59930  Biso   1.000  C
  C283     1.0000 0.25680  0.38600  0.61500  Biso   1.000  C
  H164     1.0000 0.24560  0.36110  0.60170  Biso   1.000  H
  C284     1.0000 0.23410  0.40670  0.65050  Biso   1.000  C
  H165     1.0000 0.20850  0.39500  0.66110  Biso   1.000  H
  C285     1.0000 0.31980  0.37820  0.56320  Biso   1.000  C
  O141     1.0000 0.30490  0.34305  0.54884  Biso   1.000  O
  O142     1.0000 0.35399  0.39522  0.54909  Biso   1.000  O
  Cu15     1.0000 0.09141  0.47842  0.74561  Biso   1.000  Cu
  N15      1.0000 0.15592  0.48297  0.74286  Biso   1.000  N
  O143     1.0000 0.28204  0.63082  0.95075  Biso   1.000  O
  O144     1.0000 0.33461  0.58267  0.95027  Biso   1.000  O
  O145     1.0000 0.09984  0.46562  0.81434  Biso   1.000  O
  O146     1.0000 0.03187  0.47414  0.85192  Biso   1.000  O
  O147     1.0000 0.05240  0.40650  0.81931  Biso   1.000  O
  O148     1.0000 0.08614  0.43257  0.88886  Biso   1.000  O
  O149     1.0000 0.08100  0.54106  0.72080  Biso   1.000  O
  O150     1.0000 0.11747  0.58140  0.78180  Biso   1.000  O
  S15      1.0000 0.06789  0.44400  0.84416  Biso   1.000  S
  C286     1.0000 0.70030  0.40230  0.93560  Biso   1.000  C
  C287     1.0000 0.72082  0.42610  0.89600  Biso   1.000  C
  C288     1.0000 0.75990  0.41290  0.87810  Biso   1.000  C
  H166     1.0000 0.77330  0.38920  0.89130  Biso   1.000  H
  C289     1.0000 0.77940  0.43430  0.84090  Biso   1.000  C
  H167     1.0000 0.80570  0.42500  0.82930  Biso   1.000  H
  C290     1.0000 0.72170  0.48340  0.83890  Biso   1.000  C
  H168     1.0000 0.70820  0.50730  0.82620  Biso   1.000  H
  C291     1.0000 0.70260  0.46130  0.87690  Biso   1.000  C
  H169     1.0000 0.67680  0.47110  0.88910  Biso   1.000  H
  C292     1.0000 0.75930  0.47020  0.82070  Biso   1.000  C
  C293     1.0000 0.82420  0.49630  0.77790  Biso   1.000  C
  H170     1.0000 0.84070  0.48360  0.80160  Biso   1.000  H
  C294     1.0000 0.77969  0.49270  0.78040  Biso   1.000  C
  C295     1.0000 0.75560  0.51220  0.74460  Biso   1.000  C
  H171     1.0000 0.72590  0.51070  0.74550  Biso   1.000  H
  C296     1.0000 0.77600  0.53420  0.70740  Biso   1.000  C
  C297     1.0000 0.82044  0.53500  0.70830  Biso   1.000  C
  H172     1.0000 0.83470  0.54870  0.68370  Biso   1.000  H
  C298     1.0000 0.75171  0.55670  0.67020  Biso   1.000  C
  C299     1.0000 0.71380  0.54070  0.65530  Biso   1.000  C
  H173     1.0000 0.70320  0.51590  0.66920  Biso   1.000  H
  C300     1.0000 0.68980  0.56100  0.61890  Biso   1.000  C
  H174     1.0000 0.66420  0.54920  0.60840  Biso   1.000  H
  C301     1.0000 0.70520  0.59900  0.59930  Biso   1.000  C
  C302     1.0000 0.74320  0.61400  0.61500  Biso   1.000  C
  H175     1.0000 0.75440  0.63890  0.60170  Biso   1.000  H
  C303     1.0000 0.76590  0.59330  0.65050  Biso   1.000  C
  H176     1.0000 0.79150  0.60500  0.66110  Biso   1.000  H
  C304     1.0000 0.68020  0.62180  0.56320  Biso   1.000  C
  O151     1.0000 0.69510  0.65695  0.54884  Biso   1.000  O
  O152     1.0000 0.64601  0.60478  0.54909  Biso   1.000  O
  Cu16     1.0000 0.90859  0.52158  0.74561  Biso   1.000  Cu
  N16      1.0000 0.84408  0.51703  0.74286  Biso   1.000  N
  O153     1.0000 0.71796  0.36918  0.95075  Biso   1.000  O
  O154     1.0000 0.66539  0.41733  0.95027  Biso   1.000  O
  O155     1.0000 0.90016  0.53438  0.81434  Biso   1.000  O
  O156     1.0000 0.96813  0.52586  0.85192  Biso   1.000  O
  O157     1.0000 0.94760  0.59350  0.81931  Biso   1.000  O
  O158     1.0000 0.91386  0.56743  0.88886  Biso   1.000  O
  O159     1.0000 0.91900  0.45894  0.72080  Biso   1.000  O
  O160     1.0000 0.88253  0.41860  0.78180  Biso   1.000  O
  S16      1.0000 0.93211  0.55600  0.84416  Biso   1.000  S
  Cu17     1.0000 0.83302  0.19247  0.50000  Biso   1.000  Cu
  Cu18     1.0000 0.89026  0.13060  0.50000  Biso   1.000  Cu
  Cu19     1.0000 0.16698  0.80753  0.50000  Biso   1.000  Cu
  Cu20     1.0000 0.10974  0.86940  0.50000  Biso   1.000  Cu
  Cu21     1.0000 0.80753  0.83302  0.00000  Biso   1.000  Cu
  Cu22     1.0000 0.86940  0.89026  0.00000  Biso   1.000  Cu
  Cu23     1.0000 0.19247  0.16698  0.00000  Biso   1.000  Cu
  Cu24     1.0000 0.13060  0.10974  0.00000  Biso   1.000  Cu
  Cu25     1.0000 0.66698  0.69247  0.50000  Biso   1.000  Cu
  Cu26     1.0000 0.60974  0.63060  0.50000  Biso   1.000  Cu
  Cu27     1.0000 0.33302  0.30753  0.50000  Biso   1.000  Cu
  Cu28     1.0000 0.39026  0.36940  0.50000  Biso   1.000  Cu
  Cu29     1.0000 0.69247  0.33302  0.00000  Biso   1.000  Cu
  Cu30     1.0000 0.63060  0.39026  0.00000  Biso   1.000  Cu
  Cu31     1.0000 0.30753  0.66698  0.00000  Biso   1.000  Cu
  Cu32     1.0000 0.36940  0.60974  0.00000  Biso   1.000  Cu
  Cu33     1.0000 0.00000  0.50000  0.29964  Biso   1.000  Cu
  Cu34     1.0000 0.50000  0.00000  0.79964  Biso   1.000  Cu
  Cu35     1.0000 0.50000  0.00000  0.70036  Biso   1.000  Cu
  Cu36     1.0000 0.00000  0.50000  0.20036  Biso   1.000  Cu
  Cu37     1.0000 0.00000  0.50000  0.70036  Biso   1.000  Cu
  Cu38     1.0000 0.50000  0.00000  0.20036  Biso   1.000  Cu
  Cu39     1.0000 0.50000  0.00000  0.29964  Biso   1.000  Cu
  Cu40     1.0000 0.00000  0.50000  0.79964  Biso   1.000  Cu
  O161     1.0000 0.02991  0.47009  0.25000  Biso   1.000  O
  O162     1.0000 0.97009  0.52991  0.25000  Biso   1.000  O
  O163     1.0000 0.52991  0.02991  0.75000  Biso   1.000  O
  O164     1.0000 0.47009  0.97009  0.75000  Biso   1.000  O
  O165     1.0000 0.97009  0.52991  0.75000  Biso   1.000  O
  O166     1.0000 0.02991  0.47009  0.75000  Biso   1.000  O
  O167     1.0000 0.47009  0.97009  0.25000  Biso   1.000  O
  O168     1.0000 0.52991  0.02991  0.25000  Biso   1.000  O
  S17      1.0000 0.91945  0.41945  0.25000  Biso   1.000  S
  S18      1.0000 0.08055  0.58055  0.25000  Biso   1.000  S
  S19      1.0000 0.58055  0.91945  0.75000  Biso   1.000  S
  S20      1.0000 0.41945  0.08055  0.75000  Biso   1.000  S
  S21      1.0000 0.08055  0.58055  0.75000  Biso   1.000  S
  S22      1.0000 0.91945  0.41945  0.75000  Biso   1.000  S
  S23      1.0000 0.41945  0.08055  0.25000  Biso   1.000  S
  S24      1.0000 0.58055  0.91945  0.25000  Biso   1.000  S
