data_FAYPAY_clean
_audit_creation_date              2014-07-02
_audit_creation_method            'Materials Studio'
_symmetry_space_group_name_H-M    'P1'
_symmetry_Int_Tables_number       1
_symmetry_cell_setting            triclinic
loop_
_symmetry_equiv_pos_as_xyz
  x,y,z
_cell_length_a                    21.3170
_cell_length_b                    23.1479
_cell_length_c                    38.6588
_cell_angle_alpha                 79.5682
_cell_angle_beta                  73.9958
_cell_angle_gamma                 62.5837
loop_
_atom_site_label
_atom_site_type_symbol
_atom_site_fract_x
_atom_site_fract_y
_atom_site_fract_z
_atom_site_U_iso_or_equiv
_atom_site_adp_type
_atom_site_occupancy
Zn1    Zn    0.34884   0.48474   0.42220   0.01267  Uiso   1.00
Zn2    Zn    0.30684   0.45794   0.51772   0.01267  Uiso   1.00
Zn3    Zn    0.46927   0.32719   0.38331   0.01267  Uiso   1.00
Zn4    Zn    0.43752   0.58951   0.39772   0.01267  Uiso   1.00
Zn5    Zn    0.18034   0.55974   0.39026   0.01267  Uiso   1.00
Zn6    Zn    0.74422   0.98474   0.92220   0.01267  Uiso   1.00
Zn7    Zn    0.71750   0.95794   0.01772   0.01267  Uiso   1.00
Zn8    Zn    0.82023   0.82719   0.88331   0.01267  Uiso   1.00
Zn9    Zn    0.57525   0.08951   0.89772   0.01267  Uiso   1.00
Zn10   Zn    0.86966   0.05974   0.89026   0.01267  Uiso   1.00
H1     H     0.18510   0.48910   0.32310   0.01267  Uiso   1.00
H2     H     0.22300   0.40770   0.28470   0.01267  Uiso   1.00
H3     H     0.14980   0.71480   0.34380   0.01267  Uiso   1.00
H4     H     0.22850   0.28190   0.88910   0.01267  Uiso   1.00
H5     H     0.32610   0.31060   0.28460   0.01267  Uiso   1.00
H6     H     0.16470   0.80930   0.32350   0.01267  Uiso   1.00
H7     H     0.40780   0.29720   0.31960   0.01267  Uiso   1.00
H8     H     0.26280   0.81860   0.33240   0.01267  Uiso   1.00
H9     H     0.43780   0.17700   0.81040   0.01267  Uiso   1.00
H10    H     0.34560   0.73410   0.36170   0.01267  Uiso   1.00
H11    H     0.71330   0.44450   0.30910   0.01267  Uiso   1.00
H12    H     0.33590   0.23530   0.78890   0.01267  Uiso   1.00
H13    H     0.14610   0.43930   0.79230   0.01267  Uiso   1.00
H14    H     0.10490   0.41930   0.82930   0.01267  Uiso   1.00
H15    H     0.50680   0.13520   0.49340   0.01267  Uiso   1.00
H16    H     0.45150   0.18560   0.54740   0.01267  Uiso   1.00
H17    H     0.07750   0.40080   0.74420   0.01267  Uiso   1.00
H18    H     0.14210   0.33090   0.73790   0.01267  Uiso   1.00
H19    H     0.33640   0.22120   0.90640   0.01267  Uiso   1.00
H20    H     0.07000   0.32840   0.83440   0.01267  Uiso   1.00
H21    H     0.01950   0.37330   0.80790   0.01267  Uiso   1.00
H22    H     0.17800   0.37580   0.61940   0.01267  Uiso   1.00
H23    H     0.23700   0.32600   0.77800   0.01267  Uiso   1.00
H24    H     0.21230   0.27000   0.78340   0.01267  Uiso   1.00
H25    H     0.36600   0.52940   0.56500   0.01267  Uiso   1.00
H26    H     0.08760   0.52230   0.83390   0.01267  Uiso   1.00
H27    H     0.01060   0.13060   0.80060   0.01267  Uiso   1.00
H28    H     0.07220   0.19370   0.77270   0.01267  Uiso   1.00
H29    H     0.98320   0.30410   0.85670   0.01267  Uiso   1.00
H30    H     0.14000   0.36190   0.68010   0.01267  Uiso   1.00
H31    H     0.02490   0.62050   0.86150   0.01267  Uiso   1.00
H32    H     0.29190   0.46060   0.63340   0.01267  Uiso   1.00
H33    H     0.47260   0.64140   0.52680   0.01267  Uiso   1.00
H34    H     0.42040   0.58890   0.57310   0.01267  Uiso   1.00
H35    H     0.92340   0.56730   0.78970   0.01267  Uiso   1.00
H36    H     0.37740   0.29770   0.55110   0.01267  Uiso   1.00
H37    H     0.63160   0.31410   0.33170   0.01267  Uiso   1.00
H38    H     0.92180   0.24090   0.88330   0.01267  Uiso   1.00
H39    H     0.72100   0.34570   0.30290   0.01267  Uiso   1.00
H40    H     0.60760   0.52610   0.34050   0.01267  Uiso   1.00
H41    H     0.85920   0.66900   0.81500   0.01267  Uiso   1.00
H42    H     0.50560   0.19940   0.44080   0.01267  Uiso   1.00
H43    H     0.47480   0.63220   0.46660   0.01267  Uiso   1.00
H44    H     0.25330   0.45010   0.69590   0.01267  Uiso   1.00
H45    H     0.02970   0.60510   0.45250   0.01267  Uiso   1.00
H46    H     0.95300   0.61600   0.50920   0.01267  Uiso   1.00
H47    H     0.00100   0.57530   0.56030   0.01267  Uiso   1.00
H48    H     0.12560   0.52400   0.55460   0.01267  Uiso   1.00
H49    H     0.00270   0.98910   0.82310   0.01267  Uiso   1.00
H50    H     0.08460   0.90770   0.78470   0.01267  Uiso   1.00
H51    H     0.79160   0.21480   0.84380   0.01267  Uiso   1.00
H52    H     0.60050   0.78190   0.38910   0.01267  Uiso   1.00
H53    H     0.07870   0.81060   0.78460   0.01267  Uiso   1.00
H54    H     0.70250   0.30930   0.82350   0.01267  Uiso   1.00
H55    H     0.97540   0.79720   0.81960   0.01267  Uiso   1.00
H56    H     0.58620   0.31860   0.83240   0.01267  Uiso   1.00
H57    H     0.57480   0.67700   0.31040   0.01267  Uiso   1.00
H58    H     0.55860   0.23410   0.86170   0.01267  Uiso   1.00
H59    H     0.53310   0.94450   0.80910   0.01267  Uiso   1.00
H60    H     0.63990   0.73530   0.28890   0.01267  Uiso   1.00
H61    H     0.62230   0.93930   0.29230   0.01267  Uiso   1.00
H62    H     0.64650   0.91930   0.32930   0.01267  Uiso   1.00
H63    H     0.86460   0.63520   0.99340   0.01267  Uiso   1.00
H64    H     0.81550   0.68560   0.04740   0.01267  Uiso   1.00
H65    H     0.77750   0.90080   0.24420   0.01267  Uiso   1.00
H66    H     0.78910   0.83090   0.23790   0.01267  Uiso   1.00
H67    H     0.53600   0.72120   0.40640   0.01267  Uiso   1.00
H68    H     0.76720   0.82840   0.33440   0.01267  Uiso   1.00
H69    H     0.79930   0.87330   0.30790   0.01267  Uiso   1.00
H70    H     0.82680   0.87580   0.11940   0.01267  Uiso   1.00
H71    H     0.65900   0.82600   0.27800   0.01267  Uiso   1.00
H72    H     0.73430   0.77000   0.28340   0.01267  Uiso   1.00
H73    H     0.53960   0.02940   0.06500   0.01267  Uiso   1.00
H74    H     0.55620   0.02230   0.33390   0.01267  Uiso   1.00
H75    H     0.05820   0.63060   0.30060   0.01267  Uiso   1.00
H76    H     0.96140   0.69370   0.27270   0.01267  Uiso   1.00
H77    H     0.85600   0.80410   0.35670   0.01267  Uiso   1.00
H78    H     0.81800   0.86190   0.18010   0.01267  Uiso   1.00
H79    H     0.49310   0.12050   0.36150   0.01267  Uiso   1.00
H80    H     0.61410   0.96060   0.13340   0.01267  Uiso   1.00
H81    H     0.35920   0.14140   0.02680   0.01267  Uiso   1.00
H82    H     0.41760   0.08890   0.07310   0.01267  Uiso   1.00
H83    H     0.71960   0.06730   0.28970   0.01267  Uiso   1.00
H84    H     0.77380   0.79770   0.05110   0.01267  Uiso   1.00
H85    H     0.72260   0.81410   0.83170   0.01267  Uiso   1.00
H86    H     0.95400   0.74090   0.38330   0.01267  Uiso   1.00
H87    H     0.63040   0.84570   0.80290   0.01267  Uiso   1.00
H88    H     0.52580   0.02610   0.84050   0.01267  Uiso   1.00
H89    H     0.65680   0.16900   0.31500   0.01267  Uiso   1.00
H90    H     0.85420   0.69940   0.94080   0.01267  Uiso   1.00
H91    H     0.42640   0.13220   0.96660   0.01267  Uiso   1.00
H92    H     0.60070   0.95010   0.19590   0.01267  Uiso   1.00
H93    H     0.91270   0.10510   0.95250   0.01267  Uiso   1.00
H94    H     0.92180   0.11600   0.00920   0.01267  Uiso   1.00
H95    H     0.86340   0.07530   0.06030   0.01267  Uiso   1.00
H96    H     0.79580   0.02400   0.05460   0.01267  Uiso   1.00
C1     C     0.12549   0.36136   0.78846   0.01267  Uiso   1.00
C2     C     0.22820   0.45127   0.32293   0.01267  Uiso   1.00
C3     C     0.29985   0.67290   0.36980   0.01267  Uiso   1.00
C4     C     0.25170   0.40170   0.30050   0.01267  Uiso   1.00
C5     C     0.23908   0.66744   0.36480   0.01267  Uiso   1.00
C6     C     0.18917   0.71845   0.34735   0.01267  Uiso   1.00
C7     C     0.27089   0.26107   0.87215   0.01267  Uiso   1.00
C8     C     0.31570   0.34280   0.29940   0.01267  Uiso   1.00
C9     C     0.19806   0.77508   0.33520   0.01267  Uiso   1.00
C10    C     0.36340   0.33350   0.32090   0.01267  Uiso   1.00
C11    C     0.27490   0.43941   0.34539   0.01267  Uiso   1.00
C12    C     0.25690   0.78069   0.34051   0.01267  Uiso   1.00
C13    C     0.39486   0.19938   0.82670   0.01267  Uiso   1.00
C14    C     0.30681   0.72964   0.35796   0.01267  Uiso   1.00
C15    C     0.67360   0.43584   0.32036   0.01267  Uiso   1.00
C16    C     0.33432   0.23346   0.81330   0.01267  Uiso   1.00
C17    C     0.10789   0.42574   0.80350   0.01267  Uiso   1.00
C18    C     0.48236   0.18028   0.49360   0.01267  Uiso   1.00
C19    C     0.44630   0.21170   0.52610   0.01267  Uiso   1.00
C20    C     0.93320   0.65828   0.84172   0.01267  Uiso   1.00
C21    C     0.12603   0.37218   0.74788   0.01267  Uiso   1.00
C22    C     0.33650   0.22480   0.88200   0.01267  Uiso   1.00
C23    C     0.55810   0.46367   0.35693   0.01267  Uiso   1.00
C24    C     0.39015   0.54366   0.50964   0.01267  Uiso   1.00
C25    C     0.19118   0.40541   0.69343   0.01267  Uiso   1.00
C26    C     0.06722   0.33872   0.80924   0.01267  Uiso   1.00
C27    C     0.19326   0.39056   0.63492   0.01267  Uiso   1.00
C28    C     0.27094   0.26485   0.83727   0.01267  Uiso   1.00
C29    C     0.20143   0.31103   0.79213   0.01267  Uiso   1.00
C30    C     0.00886   0.53380   0.81108   0.01267  Uiso   1.00
C31    C     0.38785   0.54910   0.54560   0.01267  Uiso   1.00
C32    C     0.23805   0.41929   0.62101   0.01267  Uiso   1.00
C33    C     0.26333   0.42508   0.58026   0.01267  Uiso   1.00
C34    C     0.42126   0.57560   0.48108   0.01267  Uiso   1.00
C35    C     0.04099   0.55054   0.83088   0.01267  Uiso   1.00
C36    C     0.56780   0.40063   0.35337   0.01267  Uiso   1.00
C37    C     0.92100   0.13810   0.86410   0.01267  Uiso   1.00
C38    C     0.89449   0.72425   0.85837   0.01267  Uiso   1.00
C39    C     0.00473   0.16503   0.81231   0.01267  Uiso   1.00
C40    C     0.95930   0.17890   0.84570   0.01267  Uiso   1.00
C41    C     0.04261   0.20270   0.79568   0.01267  Uiso   1.00
C42    C     0.98999   0.26890   0.84532   0.01267  Uiso   1.00
C43    C     0.46730   0.15370   0.87470   0.01267  Uiso   1.00
C44    C     0.17009   0.38269   0.67093   0.01267  Uiso   1.00
C45    C     0.00318   0.61096   0.84688   0.01267  Uiso   1.00
C46    C     0.40430   0.31340   0.49520   0.01267  Uiso   1.00
C47    C     0.26057   0.44120   0.64326   0.01267  Uiso   1.00
C48    C     0.45209   0.61699   0.52163   0.01267  Uiso   1.00
C49    C     0.41966   0.58497   0.54971   0.01267  Uiso   1.00
C50    C     0.94360   0.57797   0.80463   0.01267  Uiso   1.00
C51    C     0.40329   0.27854   0.52928   0.01267  Uiso   1.00
C52    C     0.62709   0.35531   0.33371   0.01267  Uiso   1.00
C53    C     0.95307   0.23040   0.86086   0.01267  Uiso   1.00
C54    C     0.67901   0.37478   0.31720   0.01267  Uiso   1.00
C55    C     0.61235   0.48446   0.33944   0.01267  Uiso   1.00
C56    C     0.39839   0.19532   0.85990   0.01267  Uiso   1.00
C57    C     0.90420   0.64052   0.81988   0.01267  Uiso   1.00
C58    C     0.48010   0.21837   0.46263   0.01267  Uiso   1.00
C59    C     0.33960   0.38291   0.34469   0.01267  Uiso   1.00
C60    C     0.44021   0.28568   0.46290   0.01267  Uiso   1.00
C61    C     0.45334   0.61204   0.48588   0.01267  Uiso   1.00
C62    C     0.03664   0.25181   0.81251   0.01267  Uiso   1.00
C63    C     0.23810   0.43517   0.68043   0.01267  Uiso   1.00
C64    C     0.15228   0.53373   0.50019   0.01267  Uiso   1.00
C65    C     0.12356   0.55808   0.46960   0.01267  Uiso   1.00
C66    C     0.04886   0.58889   0.47299   0.01267  Uiso   1.00
C67    C     0.00297   0.59534   0.50696   0.01267  Uiso   1.00
C68    C     0.03173   0.57099   0.53755   0.01267  Uiso   1.00
C69    C     0.10642   0.54020   0.53416   0.01267  Uiso   1.00
C70    C     0.72469   0.86136   0.28846   0.01267  Uiso   1.00
C71    C     0.99760   0.95127   0.82293   0.01267  Uiso   1.00
C72    C     0.65745   0.17290   0.86980   0.01267  Uiso   1.00
C73    C     0.04610   0.90170   0.80050   0.01267  Uiso   1.00
C74    C     0.72868   0.16744   0.86480   0.01267  Uiso   1.00
C75    C     0.74503   0.21845   0.84735   0.01267  Uiso   1.00
C76    C     0.59589   0.76107   0.37215   0.01267  Uiso   1.00
C77    C     0.04210   0.84280   0.79940   0.01267  Uiso   1.00
C78    C     0.69166   0.27508   0.83520   0.01267  Uiso   1.00
C79    C     0.98220   0.83350   0.82090   0.01267  Uiso   1.00
C80    C     0.94030   0.93941   0.84539   0.01267  Uiso   1.00
C81    C     0.62190   0.28069   0.84051   0.01267  Uiso   1.00
C82    C     0.57906   0.69938   0.32670   0.01267  Uiso   1.00
C83    C     0.60559   0.22964   0.85796   0.01267  Uiso   1.00
C84    C     0.57020   0.93584   0.82036   0.01267  Uiso   1.00
C85    C     0.61892   0.73346   0.31330   0.01267  Uiso   1.00
C86    C     0.66287   0.92574   0.30350   0.01267  Uiso   1.00
C87    C     0.84376   0.68028   0.99360   0.01267  Uiso   1.00
C88    C     0.81590   0.71170   0.02610   0.01267  Uiso   1.00
C89    C     0.56680   0.15828   0.34172   0.01267  Uiso   1.00
C90    C     0.75391   0.87218   0.24788   0.01267  Uiso   1.00
C91    C     0.55670   0.72480   0.38200   0.01267  Uiso   1.00
C92    C     0.62130   0.96367   0.85693   0.01267  Uiso   1.00
C93    C     0.55655   0.04366   0.00964   0.01267  Uiso   1.00
C94    C     0.70998   0.90541   0.19343   0.01267  Uiso   1.00
C95    C     0.78482   0.83872   0.30924   0.01267  Uiso   1.00
C96    C     0.78126   0.89056   0.13492   0.01267  Uiso   1.00
C97    C     0.62694   0.76485   0.33727   0.01267  Uiso   1.00
C98    C     0.69541   0.81103   0.29213   0.01267  Uiso   1.00
C99    C     0.64626   0.03380   0.31108   0.01267  Uiso   1.00
C100   C     0.51745   0.04910   0.04560   0.01267  Uiso   1.00
C101   C     0.72165   0.91929   0.12101   0.01267  Uiso   1.00
C102   C     0.73133   0.92508   0.08026   0.01267  Uiso   1.00
C103   C     0.52206   0.07560   0.98108   0.01267  Uiso   1.00
C104   C     0.57759   0.05054   0.33088   0.01267  Uiso   1.00
C105   C     0.67820   0.90063   0.85337   0.01267  Uiso   1.00
C106   C     0.07680   0.63810   0.36410   0.01267  Uiso   1.00
C107   C     0.52289   0.22425   0.35837   0.01267  Uiso   1.00
C108   C     0.01793   0.66503   0.31231   0.01267  Uiso   1.00
C109   C     0.01610   0.67890   0.34570   0.01267  Uiso   1.00
C110   C     0.95901   0.70270   0.29568   0.01267  Uiso   1.00
C111   C     0.89579   0.76890   0.34532   0.01267  Uiso   1.00
C112   C     0.50430   0.65370   0.37470   0.01267  Uiso   1.00
C113   C     0.77629   0.88269   0.17093   0.01267  Uiso   1.00
C114   C     0.53898   0.11096   0.34688   0.01267  Uiso   1.00
C115   C     0.78710   0.81340   0.99520   0.01267  Uiso   1.00
C116   C     0.65497   0.94120   0.14326   0.01267  Uiso   1.00
C117   C     0.40929   0.11699   0.02163   0.01267  Uiso   1.00
C118   C     0.44566   0.08497   0.04971   0.01267  Uiso   1.00
C119   C     0.67380   0.07797   0.30463   0.01267  Uiso   1.00
C120   C     0.78889   0.77854   0.02928   0.01267  Uiso   1.00
C121   C     0.68389   0.85531   0.83371   0.01267  Uiso   1.00
C122   C     0.95567   0.73040   0.36086   0.01267  Uiso   1.00
C123   C     0.62901   0.87478   0.81720   0.01267  Uiso   1.00
C124   C     0.56375   0.98446   0.83944   0.01267  Uiso   1.00
C125   C     0.54639   0.69532   0.35990   0.01267  Uiso   1.00
C126   C     0.63540   0.14052   0.31988   0.01267  Uiso   1.00
C127   C     0.83890   0.71837   0.96263   0.01267  Uiso   1.00
C128   C     0.93280   0.88291   0.84469   0.01267  Uiso   1.00
C129   C     0.81121   0.78568   0.96290   0.01267  Uiso   1.00
C130   C     0.44874   0.11204   0.98588   0.01267  Uiso   1.00
C131   C     0.89904   0.75181   0.31251   0.01267  Uiso   1.00
C132   C     0.64630   0.93517   0.18043   0.01267  Uiso   1.00
C133   C     0.81380   0.03373   0.00019   0.01267  Uiso   1.00
C134   C     0.84876   0.05808   0.96960   0.01267  Uiso   1.00
C135   C     0.88926   0.08889   0.97299   0.01267  Uiso   1.00
C136   C     0.89473   0.09534   0.00696   0.01267  Uiso   1.00
C137   C     0.85973   0.07099   0.03755   0.01267  Uiso   1.00
C138   C     0.81922   0.04020   0.03416   0.01267  Uiso   1.00
N1     N     0.18103   0.54515   0.44279   0.01267  Uiso   1.00
N2     N     0.36287   0.51273   0.49557   0.01267  Uiso   1.00
N3     N     0.24088   0.51206   0.45668   0.01267  Uiso   1.00
N4     N     0.22542   0.50426   0.49230   0.01267  Uiso   1.00
N5     N     0.37710   0.52436   0.45948   0.01267  Uiso   1.00
N6     N     0.41250   0.56108   0.45026   0.01267  Uiso   1.00
N7     N     0.49180   0.49919   0.37841   0.01267  Uiso   1.00
N8     N     0.46088   0.45862   0.38754   0.01267  Uiso   1.00
N9     N     0.50428   0.39907   0.37317   0.01267  Uiso   1.00
N10    N     0.37301   0.38600   0.36898   0.01267  Uiso   1.00
N11    N     0.32782   0.44229   0.38387   0.01267  Uiso   1.00
N12    N     0.26754   0.47523   0.37069   0.01267  Uiso   1.00
N13    N     0.24571   0.60925   0.38173   0.01267  Uiso   1.00
N14    N     0.30939   0.58082   0.39280   0.01267  Uiso   1.00
N15    N     0.34283   0.61842   0.38552   0.01267  Uiso   1.00
N16    N     0.37044   0.37860   0.48802   0.01267  Uiso   1.00
N17    N     0.38933   0.38693   0.45261   0.01267  Uiso   1.00
N18    N     0.43075   0.33166   0.43700   0.01267  Uiso   1.00
N19    N     0.83103   0.04515   0.94279   0.01267  Uiso   1.00
N20    N     0.62883   0.01273   0.99557   0.01267  Uiso   1.00
N21    N     0.79038   0.01206   0.95668   0.01267  Uiso   1.00
N22    N     0.77802   0.00426   0.99230   0.01267  Uiso   1.00
N23    N     0.63906   0.02436   0.95948   0.01267  Uiso   1.00
N24    N     0.57616   0.06108   0.95026   0.01267  Uiso   1.00
N25    N     0.63060   0.99919   0.87841   0.01267  Uiso   1.00
N26    N     0.69296   0.95862   0.88754   0.01267  Uiso   1.00
N27    N     0.72348   0.89907   0.87317   0.01267  Uiso   1.00
N28    N     0.87201   0.88600   0.86898   0.01267  Uiso   1.00
N29    N     0.84602   0.94229   0.88387   0.01267  Uiso   1.00
N30    N     0.88654   0.97523   0.87069   0.01267  Uiso   1.00
N31    N     0.76331   0.10925   0.88173   0.01267  Uiso   1.00
N32    N     0.71699   0.08082   0.89280   0.01267  Uiso   1.00
N33    N     0.65323   0.11842   0.88552   0.01267  Uiso   1.00
N34    N     0.76294   0.87860   0.98802   0.01267  Uiso   1.00
N35    N     0.77113   0.88693   0.95261   0.01267  Uiso   1.00
N36    N     0.80059   0.83166   0.93700   0.01267  Uiso   1.00
O1     O     0.92604   0.09397   0.84615   0.01267  Uiso   1.00
O2     O     0.88539   0.14746   0.89336   0.01267  Uiso   1.00
O3     O     0.24668   0.40240   0.56104   0.01267  Uiso   1.00
O4     O     0.29930   0.45919   0.56903   0.01267  Uiso   1.00
O5     O     0.47038   0.14973   0.90331   0.01267  Uiso   1.00
O6     O     0.52250   0.13562   0.85018   0.01267  Uiso   1.00
O7     O     0.92076   0.73255   0.87953   0.01267  Uiso   1.00
O8     O     0.84140   0.76356   0.84884   0.01267  Uiso   1.00
O9     O     0.03969   0.47573   0.79615   0.01267  Uiso   1.00
O10    O     0.17368   0.40076   0.73050   0.01267  Uiso   1.00
O11    O     0.20378   0.30259   0.82849   0.01267  Uiso   1.00
O12    O     0.07909   0.28207   0.79355   0.01267  Uiso   1.00
O13    O     0.13384   0.59397   0.34615   0.01267  Uiso   1.00
O14    O     0.07379   0.64746   0.39336   0.01267  Uiso   1.00
O15    O     0.78988   0.90240   0.06104   0.01267  Uiso   1.00
O16    O     0.67248   0.95919   0.06903   0.01267  Uiso   1.00
O17    O     0.47658   0.64973   0.40331   0.01267  Uiso   1.00
O18    O     0.49170   0.63562   0.35018   0.01267  Uiso   1.00
O19    O     0.46716   0.23255   0.37953   0.01267  Uiso   1.00
O20    O     0.54620   0.26356   0.34884   0.01267  Uiso   1.00
O21    O     0.68843   0.97573   0.29615   0.01267  Uiso   1.00
O22    O     0.69506   0.90076   0.23050   0.01267  Uiso   1.00
O23    O     0.66514   0.80259   0.32849   0.01267  Uiso   1.00
O24    O     0.84529   0.78207   0.29355   0.01267  Uiso   1.00
Zn11   Zn    0.25578   0.01526   0.07780   0.01267  Uiso   1.00
Zn12   Zn    0.28250   0.04206   0.98228   0.01267  Uiso   1.00
Zn13   Zn    0.17977   0.17281   0.11669   0.01267  Uiso   1.00
Zn14   Zn    0.42475   0.91049   0.10228   0.01267  Uiso   1.00
Zn15   Zn    0.13034   0.94026   0.10974   0.01267  Uiso   1.00
Zn16   Zn    0.65116   0.51526   0.57780   0.01267  Uiso   1.00
Zn17   Zn    0.69316   0.54206   0.48228   0.01267  Uiso   1.00
Zn18   Zn    0.53073   0.67281   0.61669   0.01267  Uiso   1.00
Zn19   Zn    0.56248   0.41049   0.60228   0.01267  Uiso   1.00
Zn20   Zn    0.81966   0.44026   0.60974   0.01267  Uiso   1.00
H97    H     0.99730   0.01090   0.17690   0.01267  Uiso   1.00
H98    H     0.91540   0.09230   0.21530   0.01267  Uiso   1.00
H99    H     0.20840   0.78520   0.15620   0.01267  Uiso   1.00
H100   H     0.39950   0.21810   0.61090   0.01267  Uiso   1.00
H101   H     0.92130   0.18940   0.21540   0.01267  Uiso   1.00
H102   H     0.29750   0.69070   0.17650   0.01267  Uiso   1.00
H103   H     0.02460   0.20280   0.18040   0.01267  Uiso   1.00
H104   H     0.41380   0.68140   0.16760   0.01267  Uiso   1.00
H105   H     0.42520   0.32300   0.68960   0.01267  Uiso   1.00
H106   H     0.44140   0.76590   0.13830   0.01267  Uiso   1.00
H107   H     0.46690   0.05550   0.19090   0.01267  Uiso   1.00
H108   H     0.36010   0.26470   0.71110   0.01267  Uiso   1.00
H109   H     0.37770   0.06070   0.70770   0.01267  Uiso   1.00
H110   H     0.35350   0.08070   0.67070   0.01267  Uiso   1.00
H111   H     0.13540   0.36480   0.00660   0.01267  Uiso   1.00
H112   H     0.18450   0.31440   0.95260   0.01267  Uiso   1.00
H113   H     0.22250   0.09920   0.75580   0.01267  Uiso   1.00
H114   H     0.21090   0.16910   0.76210   0.01267  Uiso   1.00
H115   H     0.46400   0.27880   0.59360   0.01267  Uiso   1.00
H116   H     0.23280   0.17160   0.66560   0.01267  Uiso   1.00
H117   H     0.20070   0.12670   0.69210   0.01267  Uiso   1.00
H118   H     0.17320   0.12420   0.88060   0.01267  Uiso   1.00
H119   H     0.34100   0.17400   0.72200   0.01267  Uiso   1.00
H120   H     0.26570   0.23000   0.71660   0.01267  Uiso   1.00
H121   H     0.46040   0.97060   0.93500   0.01267  Uiso   1.00
H122   H     0.44380   0.97770   0.66610   0.01267  Uiso   1.00
H123   H     0.94180   0.36940   0.69940   0.01267  Uiso   1.00
H124   H     0.03860   0.30630   0.72730   0.01267  Uiso   1.00
H125   H     0.14400   0.19590   0.64330   0.01267  Uiso   1.00
H126   H     0.18200   0.13810   0.81990   0.01267  Uiso   1.00
H127   H     0.50690   0.87950   0.63850   0.01267  Uiso   1.00
H128   H     0.38590   0.03940   0.86660   0.01267  Uiso   1.00
H129   H     0.64080   0.85860   0.97320   0.01267  Uiso   1.00
H130   H     0.58240   0.91110   0.92690   0.01267  Uiso   1.00
H131   H     0.28040   0.93270   0.71030   0.01267  Uiso   1.00
H132   H     0.22620   0.20230   0.94890   0.01267  Uiso   1.00
H133   H     0.27740   0.18590   0.16830   0.01267  Uiso   1.00
H134   H     0.04600   0.25910   0.61670   0.01267  Uiso   1.00
H135   H     0.36960   0.15430   0.19710   0.01267  Uiso   1.00
H136   H     0.47420   0.97390   0.15950   0.01267  Uiso   1.00
H137   H     0.34320   0.83100   0.68500   0.01267  Uiso   1.00
H138   H     0.14580   0.30060   0.05920   0.01267  Uiso   1.00
H139   H     0.57360   0.86780   0.03340   0.01267  Uiso   1.00
H140   H     0.39930   0.04990   0.80410   0.01267  Uiso   1.00
H141   H     0.08730   0.89490   0.04750   0.01267  Uiso   1.00
H142   H     0.07820   0.88400   0.99080   0.01267  Uiso   1.00
H143   H     0.13660   0.92470   0.93970   0.01267  Uiso   1.00
H144   H     0.20420   0.97600   0.94540   0.01267  Uiso   1.00
H145   H     0.81490   0.51090   0.67690   0.01267  Uiso   1.00
H146   H     0.77700   0.59230   0.71530   0.01267  Uiso   1.00
H147   H     0.85020   0.28520   0.65620   0.01267  Uiso   1.00
H148   H     0.77150   0.71810   0.11090   0.01267  Uiso   1.00
H149   H     0.67390   0.68940   0.71540   0.01267  Uiso   1.00
H150   H     0.83530   0.19070   0.67650   0.01267  Uiso   1.00
H151   H     0.59220   0.70280   0.68040   0.01267  Uiso   1.00
H152   H     0.73720   0.18140   0.66760   0.01267  Uiso   1.00
H153   H     0.56220   0.82300   0.18960   0.01267  Uiso   1.00
H154   H     0.65440   0.26590   0.63830   0.01267  Uiso   1.00
H155   H     0.28670   0.55550   0.69090   0.01267  Uiso   1.00
H156   H     0.66410   0.76470   0.21110   0.01267  Uiso   1.00
H157   H     0.85390   0.56070   0.20770   0.01267  Uiso   1.00
H158   H     0.89510   0.58070   0.17070   0.01267  Uiso   1.00
H159   H     0.49320   0.86480   0.50660   0.01267  Uiso   1.00
H160   H     0.54850   0.81440   0.45260   0.01267  Uiso   1.00
H161   H     0.92250   0.59920   0.25580   0.01267  Uiso   1.00
H162   H     0.85790   0.66910   0.26210   0.01267  Uiso   1.00
H163   H     0.66360   0.77880   0.09360   0.01267  Uiso   1.00
H164   H     0.93000   0.67160   0.16560   0.01267  Uiso   1.00
H165   H     0.98050   0.62670   0.19210   0.01267  Uiso   1.00
H166   H     0.82200   0.62420   0.38060   0.01267  Uiso   1.00
H167   H     0.76300   0.67400   0.22200   0.01267  Uiso   1.00
H168   H     0.78770   0.73000   0.21660   0.01267  Uiso   1.00
H169   H     0.63400   0.47060   0.43500   0.01267  Uiso   1.00
H170   H     0.91240   0.47770   0.16610   0.01267  Uiso   1.00
H171   H     0.98940   0.86940   0.19940   0.01267  Uiso   1.00
H172   H     0.92780   0.80630   0.22730   0.01267  Uiso   1.00
H173   H     0.01680   0.69590   0.14330   0.01267  Uiso   1.00
H174   H     0.86000   0.63810   0.31990   0.01267  Uiso   1.00
H175   H     0.97510   0.37950   0.13850   0.01267  Uiso   1.00
H176   H     0.70810   0.53940   0.36660   0.01267  Uiso   1.00
H177   H     0.52740   0.35860   0.47320   0.01267  Uiso   1.00
H178   H     0.57960   0.41110   0.42690   0.01267  Uiso   1.00
H179   H     0.07660   0.43270   0.21030   0.01267  Uiso   1.00
H180   H     0.62260   0.70230   0.44890   0.01267  Uiso   1.00
H181   H     0.36840   0.68590   0.66830   0.01267  Uiso   1.00
H182   H     0.07820   0.75910   0.11670   0.01267  Uiso   1.00
H183   H     0.27900   0.65430   0.69710   0.01267  Uiso   1.00
H184   H     0.39240   0.47390   0.65950   0.01267  Uiso   1.00
H185   H     0.14080   0.33100   0.18500   0.01267  Uiso   1.00
H186   H     0.49440   0.80060   0.55920   0.01267  Uiso   1.00
H187   H     0.52520   0.36780   0.53340   0.01267  Uiso   1.00
H188   H     0.74670   0.54990   0.30410   0.01267  Uiso   1.00
H189   H     0.97030   0.39490   0.54750   0.01267  Uiso   1.00
H190   H     0.04700   0.38400   0.49080   0.01267  Uiso   1.00
H191   H     0.99900   0.42470   0.43970   0.01267  Uiso   1.00
H192   H     0.87440   0.47600   0.44540   0.01267  Uiso   1.00
C139   C     0.27531   0.13864   0.71154   0.01267  Uiso   1.00
C140   C     0.00240   0.04873   0.17707   0.01267  Uiso   1.00
C141   C     0.34255   0.82710   0.13020   0.01267  Uiso   1.00
C142   C     0.95390   0.09830   0.19950   0.01267  Uiso   1.00
C143   C     0.27132   0.83256   0.13520   0.01267  Uiso   1.00
C144   C     0.25497   0.78155   0.15265   0.01267  Uiso   1.00
C145   C     0.40411   0.23893   0.62785   0.01267  Uiso   1.00
C146   C     0.95790   0.15720   0.20060   0.01267  Uiso   1.00
C147   C     0.30834   0.72492   0.16480   0.01267  Uiso   1.00
C148   C     0.01780   0.16650   0.17910   0.01267  Uiso   1.00
C149   C     0.05970   0.06059   0.15461   0.01267  Uiso   1.00
C150   C     0.37810   0.71931   0.15949   0.01267  Uiso   1.00
C151   C     0.42094   0.30062   0.67330   0.01267  Uiso   1.00
C152   C     0.39441   0.77036   0.14204   0.01267  Uiso   1.00
C153   C     0.42980   0.06416   0.17964   0.01267  Uiso   1.00
C154   C     0.38108   0.26654   0.68670   0.01267  Uiso   1.00
C155   C     0.33713   0.07426   0.69650   0.01267  Uiso   1.00
C156   C     0.15624   0.31972   0.00640   0.01267  Uiso   1.00
C157   C     0.18410   0.28830   0.97390   0.01267  Uiso   1.00
C158   C     0.43320   0.84172   0.65828   0.01267  Uiso   1.00
C159   C     0.24609   0.12782   0.75212   0.01267  Uiso   1.00
C160   C     0.44330   0.27520   0.61800   0.01267  Uiso   1.00
C161   C     0.37870   0.03633   0.14307   0.01267  Uiso   1.00
C162   C     0.44345   0.95634   0.99036   0.01267  Uiso   1.00
C163   C     0.29002   0.09459   0.80657   0.01267  Uiso   1.00
C164   C     0.21518   0.16128   0.69076   0.01267  Uiso   1.00
C165   C     0.21874   0.10944   0.86508   0.01267  Uiso   1.00
C166   C     0.37306   0.23515   0.66273   0.01267  Uiso   1.00
C167   C     0.30459   0.18897   0.70787   0.01267  Uiso   1.00
C168   C     0.35374   0.96620   0.68892   0.01267  Uiso   1.00
C169   C     0.48255   0.95090   0.95440   0.01267  Uiso   1.00
C170   C     0.27835   0.08071   0.87899   0.01267  Uiso   1.00
C171   C     0.26867   0.07492   0.91974   0.01267  Uiso   1.00
C172   C     0.47794   0.92440   0.01892   0.01267  Uiso   1.00
C173   C     0.42241   0.94946   0.66912   0.01267  Uiso   1.00
C174   C     0.32180   0.09937   0.14663   0.01267  Uiso   1.00
C175   C     0.92320   0.36190   0.63590   0.01267  Uiso   1.00
C176   C     0.47711   0.77575   0.64163   0.01267  Uiso   1.00
C177   C     0.98207   0.33497   0.68769   0.01267  Uiso   1.00
C178   C     0.98390   0.32110   0.65430   0.01267  Uiso   1.00
C179   C     0.04099   0.29730   0.70432   0.01267  Uiso   1.00
C180   C     0.10421   0.23110   0.65468   0.01267  Uiso   1.00
C181   C     0.49570   0.34630   0.62530   0.01267  Uiso   1.00
C182   C     0.22371   0.11731   0.82907   0.01267  Uiso   1.00
C183   C     0.46102   0.88904   0.65312   0.01267  Uiso   1.00
C184   C     0.21290   0.18660   0.00480   0.01267  Uiso   1.00
C185   C     0.34503   0.05880   0.85674   0.01267  Uiso   1.00
C186   C     0.59071   0.88301   0.97837   0.01267  Uiso   1.00
C187   C     0.55434   0.91503   0.95029   0.01267  Uiso   1.00
C188   C     0.32620   0.92203   0.69537   0.01267  Uiso   1.00
C189   C     0.21111   0.22146   0.97072   0.01267  Uiso   1.00
C190   C     0.31611   0.14469   0.16629   0.01267  Uiso   1.00
C191   C     0.04433   0.26960   0.63914   0.01267  Uiso   1.00
C192   C     0.37099   0.12522   0.18280   0.01267  Uiso   1.00
C193   C     0.43625   0.01554   0.16056   0.01267  Uiso   1.00
C194   C     0.45361   0.30468   0.64010   0.01267  Uiso   1.00
C195   C     0.36460   0.85948   0.68012   0.01267  Uiso   1.00
C196   C     0.16110   0.28163   0.03737   0.01267  Uiso   1.00
C197   C     0.06720   0.11709   0.15531   0.01267  Uiso   1.00
C198   C     0.18879   0.21432   0.03710   0.01267  Uiso   1.00
C199   C     0.55126   0.88796   0.01412   0.01267  Uiso   1.00
C200   C     0.10096   0.24819   0.68749   0.01267  Uiso   1.00
C201   C     0.35370   0.06483   0.81957   0.01267  Uiso   1.00
C202   C     0.18620   0.96627   0.99981   0.01267  Uiso   1.00
C203   C     0.15124   0.94192   0.03040   0.01267  Uiso   1.00
C204   C     0.11074   0.91111   0.02701   0.01267  Uiso   1.00
C205   C     0.10527   0.90466   0.99304   0.01267  Uiso   1.00
C206   C     0.14027   0.92901   0.96245   0.01267  Uiso   1.00
C207   C     0.18078   0.95980   0.96584   0.01267  Uiso   1.00
C208   C     0.87451   0.63864   0.21154   0.01267  Uiso   1.00
C209   C     0.77180   0.54873   0.67707   0.01267  Uiso   1.00
C210   C     0.70015   0.32710   0.63020   0.01267  Uiso   1.00
C211   C     0.74830   0.59830   0.69950   0.01267  Uiso   1.00
C212   C     0.76092   0.33256   0.63520   0.01267  Uiso   1.00
C213   C     0.81083   0.28155   0.65265   0.01267  Uiso   1.00
C214   C     0.72911   0.73893   0.12785   0.01267  Uiso   1.00
C215   C     0.68430   0.65720   0.70060   0.01267  Uiso   1.00
C216   C     0.80194   0.22492   0.66480   0.01267  Uiso   1.00
C217   C     0.63660   0.66650   0.67910   0.01267  Uiso   1.00
C218   C     0.72510   0.56059   0.65461   0.01267  Uiso   1.00
C219   C     0.74310   0.21931   0.65949   0.01267  Uiso   1.00
C220   C     0.60514   0.80062   0.17330   0.01267  Uiso   1.00
C221   C     0.69319   0.27036   0.64204   0.01267  Uiso   1.00
C222   C     0.32640   0.56416   0.67964   0.01267  Uiso   1.00
C223   C     0.66568   0.76654   0.18670   0.01267  Uiso   1.00
C224   C     0.89211   0.57426   0.19650   0.01267  Uiso   1.00
C225   C     0.51764   0.81972   0.50640   0.01267  Uiso   1.00
C226   C     0.55370   0.78830   0.47390   0.01267  Uiso   1.00
C227   C     0.06680   0.34172   0.15828   0.01267  Uiso   1.00
C228   C     0.87397   0.62782   0.25212   0.01267  Uiso   1.00
C229   C     0.66350   0.77520   0.11800   0.01267  Uiso   1.00
C230   C     0.44190   0.53633   0.64307   0.01267  Uiso   1.00
C231   C     0.60985   0.45634   0.49036   0.01267  Uiso   1.00
C232   C     0.80882   0.59459   0.30657   0.01267  Uiso   1.00
C233   C     0.93278   0.66128   0.19076   0.01267  Uiso   1.00
C234   C     0.80674   0.60944   0.36508   0.01267  Uiso   1.00
C235   C     0.72906   0.73515   0.16273   0.01267  Uiso   1.00
C236   C     0.79857   0.68897   0.20787   0.01267  Uiso   1.00
C237   C     0.99114   0.46620   0.18892   0.01267  Uiso   1.00
C238   C     0.61215   0.45090   0.45440   0.01267  Uiso   1.00
C239   C     0.76195   0.58071   0.37899   0.01267  Uiso   1.00
C240   C     0.73667   0.57492   0.41974   0.01267  Uiso   1.00
C241   C     0.57874   0.42440   0.51892   0.01267  Uiso   1.00
C242   C     0.95901   0.44946   0.16912   0.01267  Uiso   1.00
C243   C     0.43220   0.59937   0.64663   0.01267  Uiso   1.00
C244   C     0.07900   0.86190   0.13590   0.01267  Uiso   1.00
C245   C     0.10551   0.27575   0.14163   0.01267  Uiso   1.00
C246   C     0.99527   0.83497   0.18769   0.01267  Uiso   1.00
C247   C     0.04070   0.82110   0.15430   0.01267  Uiso   1.00
C248   C     0.95739   0.79730   0.20432   0.01267  Uiso   1.00
C249   C     0.01001   0.73110   0.15468   0.01267  Uiso   1.00
C250   C     0.53270   0.84630   0.12530   0.01267  Uiso   1.00
C251   C     0.82991   0.61731   0.32907   0.01267  Uiso   1.00
C252   C     0.99682   0.38904   0.15312   0.01267  Uiso   1.00
C253   C     0.59570   0.68660   0.50480   0.01267  Uiso   1.00
C254   C     0.73943   0.55880   0.35674   0.01267  Uiso   1.00
C255   C     0.54791   0.38301   0.47837   0.01267  Uiso   1.00
C256   C     0.58034   0.41503   0.45029   0.01267  Uiso   1.00
C257   C     0.05640   0.42203   0.19537   0.01267  Uiso   1.00
C258   C     0.59671   0.72146   0.47072   0.01267  Uiso   1.00
C259   C     0.37291   0.64469   0.66629   0.01267  Uiso   1.00
C260   C     0.04693   0.76960   0.13914   0.01267  Uiso   1.00
C261   C     0.32099   0.62522   0.68280   0.01267  Uiso   1.00
C262   C     0.38765   0.51554   0.66056   0.01267  Uiso   1.00
C263   C     0.60161   0.80468   0.14010   0.01267  Uiso   1.00
C264   C     0.09580   0.35948   0.18012   0.01267  Uiso   1.00
C265   C     0.51990   0.78163   0.53737   0.01267  Uiso   1.00
C266   C     0.66040   0.61709   0.65531   0.01267  Uiso   1.00
C267   C     0.55979   0.71432   0.53710   0.01267  Uiso   1.00
C268   C     0.54666   0.38796   0.51412   0.01267  Uiso   1.00
C269   C     0.96336   0.74819   0.18749   0.01267  Uiso   1.00
C270   C     0.76190   0.56483   0.31957   0.01267  Uiso   1.00
C271   C     0.84772   0.46627   0.49981   0.01267  Uiso   1.00
C272   C     0.87644   0.44192   0.53040   0.01267  Uiso   1.00
C273   C     0.95114   0.41111   0.52701   0.01267  Uiso   1.00
C274   C     0.99703   0.40466   0.49304   0.01267  Uiso   1.00
C275   C     0.96827   0.42901   0.46245   0.01267  Uiso   1.00
C276   C     0.89358   0.45980   0.46584   0.01267  Uiso   1.00
N37    N     0.16897   0.95485   0.05721   0.01267  Uiso   1.00
N38    N     0.37117   0.98727   0.00443   0.01267  Uiso   1.00
N39    N     0.20962   0.98794   0.04332   0.01267  Uiso   1.00
N40    N     0.22198   0.99574   0.00770   0.01267  Uiso   1.00
N41    N     0.36094   0.97564   0.04052   0.01267  Uiso   1.00
N42    N     0.42384   0.93892   0.04974   0.01267  Uiso   1.00
N43    N     0.36940   0.00081   0.12159   0.01267  Uiso   1.00
N44    N     0.30704   0.04138   0.11246   0.01267  Uiso   1.00
N45    N     0.27652   0.10093   0.12683   0.01267  Uiso   1.00
N46    N     0.12799   0.11400   0.13102   0.01267  Uiso   1.00
N47    N     0.15398   0.05771   0.11613   0.01267  Uiso   1.00
N48    N     0.11346   0.02477   0.12931   0.01267  Uiso   1.00
N49    N     0.23669   0.89075   0.11827   0.01267  Uiso   1.00
N50    N     0.28301   0.91918   0.10720   0.01267  Uiso   1.00
N51    N     0.34677   0.88158   0.11448   0.01267  Uiso   1.00
N52    N     0.23706   0.12140   0.01198   0.01267  Uiso   1.00
N53    N     0.22887   0.11307   0.04739   0.01267  Uiso   1.00
N54    N     0.19941   0.16834   0.06300   0.01267  Uiso   1.00
N55    N     0.81897   0.45485   0.55721   0.01267  Uiso   1.00
N56    N     0.63713   0.48727   0.50443   0.01267  Uiso   1.00
N57    N     0.75912   0.48794   0.54332   0.01267  Uiso   1.00
N58    N     0.77458   0.49574   0.50770   0.01267  Uiso   1.00
N59    N     0.62290   0.47564   0.54052   0.01267  Uiso   1.00
N60    N     0.58750   0.43892   0.54974   0.01267  Uiso   1.00
N61    N     0.50820   0.50081   0.62159   0.01267  Uiso   1.00
N62    N     0.53912   0.54138   0.61246   0.01267  Uiso   1.00
N63    N     0.49572   0.60093   0.62683   0.01267  Uiso   1.00
N64    N     0.62699   0.61400   0.63102   0.01267  Uiso   1.00
N65    N     0.67218   0.55771   0.61613   0.01267  Uiso   1.00
N66    N     0.73246   0.52477   0.62931   0.01267  Uiso   1.00
N67    N     0.75429   0.39075   0.61827   0.01267  Uiso   1.00
N68    N     0.69061   0.41918   0.60720   0.01267  Uiso   1.00
N69    N     0.65717   0.38158   0.61448   0.01267  Uiso   1.00
N70    N     0.62956   0.62140   0.51198   0.01267  Uiso   1.00
N71    N     0.61067   0.61307   0.54739   0.01267  Uiso   1.00
N72    N     0.56925   0.66834   0.56300   0.01267  Uiso   1.00
O25    O     0.86616   0.40603   0.65385   0.01267  Uiso   1.00
O26    O     0.92621   0.35254   0.60664   0.01267  Uiso   1.00
O27    O     0.21012   0.09760   0.93896   0.01267  Uiso   1.00
O28    O     0.32752   0.04081   0.93097   0.01267  Uiso   1.00
O29    O     0.52342   0.35027   0.59669   0.01267  Uiso   1.00
O30    O     0.50830   0.36438   0.64982   0.01267  Uiso   1.00
O31    O     0.53284   0.76745   0.62047   0.01267  Uiso   1.00
O32    O     0.45380   0.73644   0.65116   0.01267  Uiso   1.00
O33    O     0.31157   0.02427   0.70385   0.01267  Uiso   1.00
O34    O     0.30494   0.09924   0.76950   0.01267  Uiso   1.00
O35    O     0.33486   0.19741   0.67151   0.01267  Uiso   1.00
O36    O     0.15471   0.21793   0.70645   0.01267  Uiso   1.00
O37    O     0.07396   0.90603   0.15385   0.01267  Uiso   1.00
O38    O     0.11461   0.85254   0.10664   0.01267  Uiso   1.00
O39    O     0.75332   0.59760   0.43896   0.01267  Uiso   1.00
O40    O     0.70070   0.54081   0.43097   0.01267  Uiso   1.00
O41    O     0.52962   0.85027   0.09669   0.01267  Uiso   1.00
O42    O     0.47750   0.86438   0.14982   0.01267  Uiso   1.00
O43    O     0.07924   0.26745   0.12047   0.01267  Uiso   1.00
O44    O     0.15860   0.23644   0.15116   0.01267  Uiso   1.00
O45    O     0.96031   0.52427   0.20385   0.01267  Uiso   1.00
O46    O     0.82632   0.59924   0.26950   0.01267  Uiso   1.00
O47    O     0.79622   0.69741   0.17151   0.01267  Uiso   1.00
O48    O     0.92091   0.71793   0.20645   0.01267  Uiso   1.00
