data_FAZFET_clean
_audit_creation_date              2014-07-02
_audit_creation_method            'Materials Studio'
_symmetry_space_group_name_H-M    'P1'
_symmetry_Int_Tables_number       1
_symmetry_cell_setting            triclinic
loop_
_symmetry_equiv_pos_as_xyz
  x,y,z
_cell_length_a                    27.9608
_cell_length_b                    27.9608
_cell_length_c                    27.9608
_cell_angle_alpha                 66.3453
_cell_angle_beta                  78.6061
_cell_angle_gamma                 113.6550
loop_
_atom_site_label
_atom_site_type_symbol
_atom_site_fract_x
_atom_site_fract_y
_atom_site_fract_z
_atom_site_U_iso_or_equiv
_atom_site_adp_type
_atom_site_occupancy
V1     V     0.35230   0.60519   0.34507   0.01267  Uiso   1.00
V2     V     0.34935   0.69854   0.24305   0.01267  Uiso   1.00
V3     V     0.42671   0.82913   0.15852   0.01267  Uiso   1.00
V4     V     0.52548   0.92995   0.15293   0.01267  Uiso   1.00
V5     V     0.60039   0.93830   0.20679   0.01267  Uiso   1.00
V6     V     0.59988   0.84728   0.31268   0.01267  Uiso   1.00
V7     V     0.52949   0.70647   0.39446   0.01267  Uiso   1.00
V8     V     0.42557   0.60878   0.41383   0.01267  Uiso   1.00
V9     V     0.45499   0.70272   0.18967   0.01267  Uiso   1.00
V10    V     0.57480   0.74923   0.17799   0.01267  Uiso   1.00
V11    V     0.57585   0.86692   0.11685   0.01267  Uiso   1.00
V12    V     0.50266   0.64094   0.30260   0.01267  Uiso   1.00
V13    V     0.37455   0.83077   0.26200   0.01267  Uiso   1.00
V14    V     0.37696   0.78852   0.38068   0.01267  Uiso   1.00
V15    V     0.45099   0.74457   0.42668   0.01267  Uiso   1.00
V16    V     0.49334   0.89539   0.30265   0.01267  Uiso   1.00
V17    V     0.04974   0.39481   0.25289   0.01267  Uiso   1.00
V18    V     0.05841   0.30146   0.34919   0.01267  Uiso   1.00
V19    V     0.01235   0.17087   0.40242   0.01267  Uiso   1.00
V20    V     0.91712   0.07005   0.40447   0.01267  Uiso   1.00
V21    V     0.85491   0.06170   0.33791   0.01267  Uiso   1.00
V22    V     0.84004   0.15272   0.24740   0.01267  Uiso   1.00
V23    V     0.89907   0.29353   0.17698   0.01267  Uiso   1.00
V24    V     0.97739   0.39122   0.18321   0.01267  Uiso   1.00
V25    V     0.10761   0.29728   0.24773   0.01267  Uiso   1.00
V26    V     0.07278   0.25077   0.17443   0.01267  Uiso   1.00
V27    V     0.01623   0.13308   0.29107   0.01267  Uiso   1.00
V28    V     0.05646   0.35906   0.13828   0.01267  Uiso   1.00
V29    V     0.90723   0.16923   0.45622   0.01267  Uiso   1.00
V30    V     0.83080   0.21148   0.41156   0.01267  Uiso   1.00
V31    V     0.82875   0.25543   0.29358   0.01267  Uiso   1.00
V32    V     0.80196   0.10461   0.40205   0.01267  Uiso   1.00
V33    V     0.99711   0.19737   0.89770   0.01267  Uiso   1.00
V34    V     0.90081   0.09240   0.90065   0.01267  Uiso   1.00
V35    V     0.84758   0.08523   0.82329   0.01267  Uiso   1.00
V36    V     0.84553   0.17841   0.72452   0.01267  Uiso   1.00
V37    V     0.91209   0.30718   0.64961   0.01267  Uiso   1.00
V38    V     0.00260   0.41256   0.65012   0.01267  Uiso   1.00
V39    V     0.07302   0.42395   0.72051   0.01267  Uiso   1.00
V40    V     0.06679   0.33940   0.82443   0.01267  Uiso   1.00
V41    V     0.00227   0.14466   0.79501   0.01267  Uiso   1.00
V42    V     0.07557   0.25279   0.67520   0.01267  Uiso   1.00
V43    V     0.95893   0.19270   0.67415   0.01267  Uiso   1.00
V44    V     0.11172   0.30526   0.74734   0.01267  Uiso   1.00
V45    V     0.79378   0.13655   0.87545   0.01267  Uiso   1.00
V46    V     0.83844   0.25764   0.87304   0.01267  Uiso   1.00
V47    V     0.95642   0.37767   0.79901   0.01267  Uiso   1.00
V48    V     0.84795   0.29599   0.75666   0.01267  Uiso   1.00
V49    V     0.90493   0.80263   0.20026   0.01267  Uiso   1.00
V50    V     0.00695   0.90760   0.19159   0.01267  Uiso   1.00
V51    V     0.09148   0.91477   0.23765   0.01267  Uiso   1.00
V52    V     0.09707   0.82159   0.33288   0.01267  Uiso   1.00
V53    V     0.04321   0.69282   0.39509   0.01267  Uiso   1.00
V54    V     0.93732   0.58744   0.40996   0.01267  Uiso   1.00
V55    V     0.85554   0.57605   0.35093   0.01267  Uiso   1.00
V56    V     0.83617   0.66060   0.27261   0.01267  Uiso   1.00
V57    V     0.06033   0.85534   0.14239   0.01267  Uiso   1.00
V58    V     0.07201   0.74721   0.17722   0.01267  Uiso   1.00
V59    V     0.13315   0.80730   0.23377   0.01267  Uiso   1.00
V60    V     0.94740   0.69474   0.19354   0.01267  Uiso   1.00
V61    V     0.98800   0.86345   0.34277   0.01267  Uiso   1.00
V62    V     0.86932   0.74236   0.41920   0.01267  Uiso   1.00
V63    V     0.82332   0.62233   0.42125   0.01267  Uiso   1.00
V64    V     0.94735   0.70401   0.44804   0.01267  Uiso   1.00
V65    V     0.54974   0.30263   0.84507   0.01267  Uiso   1.00
V66    V     0.55841   0.40760   0.74305   0.01267  Uiso   1.00
V67    V     0.51235   0.41477   0.65852   0.01267  Uiso   1.00
V68    V     0.41712   0.32159   0.65293   0.01267  Uiso   1.00
V69    V     0.35491   0.19282   0.70679   0.01267  Uiso   1.00
V70    V     0.34004   0.08744   0.81268   0.01267  Uiso   1.00
V71    V     0.39907   0.07605   0.89446   0.01267  Uiso   1.00
V72    V     0.47739   0.16060   0.91383   0.01267  Uiso   1.00
V73    V     0.60761   0.35534   0.68967   0.01267  Uiso   1.00
V74    V     0.57278   0.24721   0.67799   0.01267  Uiso   1.00
V75    V     0.51623   0.30730   0.61685   0.01267  Uiso   1.00
V76    V     0.55646   0.19474   0.80260   0.01267  Uiso   1.00
V77    V     0.40723   0.36345   0.76200   0.01267  Uiso   1.00
V78    V     0.33080   0.24236   0.88068   0.01267  Uiso   1.00
V79    V     0.32875   0.12233   0.92668   0.01267  Uiso   1.00
V80    V     0.30196   0.20401   0.80265   0.01267  Uiso   1.00
V81    V     0.85230   0.69737   0.75289   0.01267  Uiso   1.00
V82    V     0.84935   0.59240   0.84919   0.01267  Uiso   1.00
V83    V     0.92671   0.58523   0.90242   0.01267  Uiso   1.00
V84    V     0.02548   0.67841   0.90447   0.01267  Uiso   1.00
V85    V     0.10039   0.80718   0.83791   0.01267  Uiso   1.00
V86    V     0.09988   0.91256   0.74740   0.01267  Uiso   1.00
V87    V     0.02949   0.92395   0.67698   0.01267  Uiso   1.00
V88    V     0.92557   0.83940   0.68321   0.01267  Uiso   1.00
V89    V     0.95499   0.64466   0.74773   0.01267  Uiso   1.00
V90    V     0.07480   0.75279   0.67443   0.01267  Uiso   1.00
V91    V     0.07585   0.69270   0.79107   0.01267  Uiso   1.00
V92    V     0.00266   0.80526   0.63828   0.01267  Uiso   1.00
V93    V     0.87455   0.63655   0.95622   0.01267  Uiso   1.00
V94    V     0.87696   0.75764   0.91156   0.01267  Uiso   1.00
V95    V     0.95099   0.87767   0.79358   0.01267  Uiso   1.00
V96    V     0.99334   0.79599   0.90205   0.01267  Uiso   1.00
V97    V     0.40493   0.10519   0.39770   0.01267  Uiso   1.00
V98    V     0.50695   0.19854   0.40065   0.01267  Uiso   1.00
V99    V     0.59148   0.32913   0.32329   0.01267  Uiso   1.00
V100   V     0.59707   0.42995   0.22452   0.01267  Uiso   1.00
V101   V     0.54321   0.43830   0.14961   0.01267  Uiso   1.00
V102   V     0.43732   0.34728   0.15012   0.01267  Uiso   1.00
V103   V     0.35554   0.20647   0.22051   0.01267  Uiso   1.00
V104   V     0.33617   0.10878   0.32443   0.01267  Uiso   1.00
V105   V     0.56033   0.20272   0.29501   0.01267  Uiso   1.00
V106   V     0.57201   0.24923   0.17520   0.01267  Uiso   1.00
V107   V     0.63315   0.36692   0.17415   0.01267  Uiso   1.00
V108   V     0.44740   0.14094   0.24734   0.01267  Uiso   1.00
V109   V     0.48800   0.33077   0.37545   0.01267  Uiso   1.00
V110   V     0.36932   0.28852   0.37304   0.01267  Uiso   1.00
V111   V     0.32332   0.24457   0.29901   0.01267  Uiso   1.00
V112   V     0.44735   0.39539   0.25666   0.01267  Uiso   1.00
V113   V     0.49711   0.89481   0.70026   0.01267  Uiso   1.00
V114   V     0.40081   0.80146   0.69159   0.01267  Uiso   1.00
V115   V     0.34758   0.67087   0.73765   0.01267  Uiso   1.00
V116   V     0.34553   0.57005   0.83288   0.01267  Uiso   1.00
V117   V     0.41209   0.56170   0.89509   0.01267  Uiso   1.00
V118   V     0.50260   0.65272   0.90996   0.01267  Uiso   1.00
V119   V     0.57302   0.79353   0.85093   0.01267  Uiso   1.00
V120   V     0.56679   0.89122   0.77261   0.01267  Uiso   1.00
V121   V     0.50227   0.79728   0.64239   0.01267  Uiso   1.00
V122   V     0.57557   0.75077   0.67722   0.01267  Uiso   1.00
V123   V     0.45893   0.63308   0.73377   0.01267  Uiso   1.00
V124   V     0.61172   0.85906   0.69354   0.01267  Uiso   1.00
V125   V     0.29378   0.66923   0.84277   0.01267  Uiso   1.00
V126   V     0.33844   0.71148   0.91920   0.01267  Uiso   1.00
V127   V     0.45642   0.75543   0.92125   0.01267  Uiso   1.00
V128   V     0.34795   0.60461   0.94804   0.01267  Uiso   1.00
Co1    Co    0.20581   0.66239   0.27964   0.01267  Uiso   1.00
Co2    Co    0.73379   0.04386   0.09661   0.01267  Uiso   1.00
Co3    Co    0.44768   0.70899   0.06431   0.01267  Uiso   1.00
Co4    Co    0.05797   0.33761   0.45658   0.01267  Uiso   1.00
Co5    Co    0.85953   0.95614   0.31007   0.01267  Uiso   1.00
Co6    Co    0.22670   0.29101   0.26131   0.01267  Uiso   1.00
Co7    Co    0.79342   0.98545   0.04419   0.01267  Uiso   1.00
Co8    Co    0.93993   0.33040   0.51621   0.01267  Uiso   1.00
Co9    Co    0.98869   0.01199   0.80232   0.01267  Uiso   1.00
Co10   Co    0.97036   0.01455   0.19203   0.01267  Uiso   1.00
Co11   Co    0.15339   0.66960   0.39047   0.01267  Uiso   1.00
Co12   Co    0.18569   0.98801   0.02330   0.01267  Uiso   1.00
Co13   Co    0.55797   0.51455   0.77964   0.01267  Uiso   1.00
Co14   Co    0.35953   0.16960   0.59661   0.01267  Uiso   1.00
Co15   Co    0.72670   0.48801   0.56431   0.01267  Uiso   1.00
Co16   Co    0.70581   0.48545   0.95658   0.01267  Uiso   1.00
Co17   Co    0.23379   0.83040   0.81007   0.01267  Uiso   1.00
Co18   Co    0.94768   0.51199   0.76131   0.01267  Uiso   1.00
Co19   Co    0.47036   0.16239   0.54419   0.01267  Uiso   1.00
Co20   Co    0.65339   0.54386   0.01621   0.01267  Uiso   1.00
Co21   Co    0.68569   0.20899   0.30232   0.01267  Uiso   1.00
Co22   Co    0.29342   0.83761   0.69203   0.01267  Uiso   1.00
Co23   Co    0.43993   0.45614   0.89047   0.01267  Uiso   1.00
Co24   Co    0.48869   0.79101   0.52330   0.01267  Uiso   1.00
Ge1    Ge    0.28138   0.67955   0.36271   0.01267  Uiso   1.00
Ge2    Ge    0.32184   0.63322   0.45328   0.01267  Uiso   1.00
Ge3    Ge    0.66977   0.88126   0.17267   0.01267  Uiso   1.00
Ge4    Ge    0.63320   0.75765   0.27199   0.01267  Uiso   1.00
Ge5    Ge    0.95774   0.32045   0.39817   0.01267  Uiso   1.00
Ge6    Ge    0.91350   0.36678   0.31138   0.01267  Uiso   1.00
Ge7    Ge    0.94607   0.11874   0.21149   0.01267  Uiso   1.00
Ge8    Ge    0.97036   0.24235   0.12445   0.01267  Uiso   1.00
Ge9    Ge    0.85183   0.14409   0.96862   0.01267  Uiso   1.00
Ge10   Ge    0.93862   0.27512   0.92816   0.01267  Uiso   1.00
Ge11   Ge    0.03851   0.34244   0.58023   0.01267  Uiso   1.00
Ge12   Ge    0.12555   0.40519   0.61680   0.01267  Uiso   1.00
Ge13   Ge    0.88729   0.85591   0.29226   0.01267  Uiso   1.00
Ge14   Ge    0.79672   0.72488   0.33650   0.01267  Uiso   1.00
Ge15   Ge    0.07733   0.65756   0.30393   0.01267  Uiso   1.00
Ge16   Ge    0.97801   0.59481   0.27964   0.01267  Uiso   1.00
Ge17   Ge    0.45774   0.35591   0.86271   0.01267  Uiso   1.00
Ge18   Ge    0.41350   0.22488   0.95328   0.01267  Uiso   1.00
Ge19   Ge    0.44607   0.15756   0.67267   0.01267  Uiso   1.00
Ge20   Ge    0.47036   0.09481   0.77199   0.01267  Uiso   1.00
Ge21   Ge    0.78138   0.64409   0.89817   0.01267  Uiso   1.00
Ge22   Ge    0.82184   0.77512   0.81138   0.01267  Uiso   1.00
Ge23   Ge    0.16977   0.84244   0.71149   0.01267  Uiso   1.00
Ge24   Ge    0.13320   0.90519   0.62445   0.01267  Uiso   1.00
Ge25   Ge    0.38729   0.17955   0.46862   0.01267  Uiso   1.00
Ge26   Ge    0.29672   0.13322   0.42816   0.01267  Uiso   1.00
Ge27   Ge    0.57733   0.38126   0.08023   0.01267  Uiso   1.00
Ge28   Ge    0.47801   0.25765   0.11680   0.01267  Uiso   1.00
Ge29   Ge    0.35183   0.82045   0.79226   0.01267  Uiso   1.00
Ge30   Ge    0.43862   0.86678   0.83650   0.01267  Uiso   1.00
Ge31   Ge    0.53851   0.61874   0.80393   0.01267  Uiso   1.00
Ge32   Ge    0.62555   0.74235   0.77964   0.01267  Uiso   1.00
H1     H     0.23330   0.77460   0.22550   0.01267  Uiso   1.00
H2     H     0.28720   0.77620   0.21620   0.01267  Uiso   1.00
H3     H     0.21030   0.64670   0.19380   0.01267  Uiso   1.00
H4     H     0.15150   0.63000   0.22210   0.01267  Uiso   1.00
H5     H     0.19520   0.56540   0.35040   0.01267  Uiso   1.00
H6     H     0.14070   0.54860   0.34710   0.01267  Uiso   1.00
H7     H     0.69790   0.04130   0.01940   0.01267  Uiso   1.00
H8     H     0.64740   0.01470   0.07090   0.01267  Uiso   1.00
H9     H     0.74150   0.13890   0.10200   0.01267  Uiso   1.00
H10    H     0.77740   0.16430   0.04190   0.01267  Uiso   1.00
H11    H     0.81620   0.07510   0.12810   0.01267  Uiso   1.00
H12    H     0.76970   0.07250   0.16500   0.01267  Uiso   1.00
H13    H     0.38670   0.73430   0.11720   0.01267  Uiso   1.00
H14    H     0.40410   0.77410   0.05580   0.01267  Uiso   1.00
H15    H     0.36980   0.63150   0.05290   0.01267  Uiso   1.00
H16    H     0.37170   0.59550   0.10660   0.01267  Uiso   1.00
H17    H     0.53000   0.82470   0.00930   0.01267  Uiso   1.00
H18    H     0.52890   0.79530   0.06640   0.01267  Uiso   1.00
H19    H     0.48930   0.64280   0.06310   0.01267  Uiso   1.00
H20    H     0.50990   0.69000   0.00290   0.01267  Uiso   1.00
H21    H     0.29310   0.76870   0.14460   0.01267  Uiso   1.00
H22    H     0.26650   0.80970   0.13760   0.01267  Uiso   1.00
H23    H     0.17110   0.72280   0.17530   0.01267  Uiso   1.00
H24    H     0.21050   0.72050   0.12860   0.01267  Uiso   1.00
H25    H     0.22630   0.55500   0.28210   0.01267  Uiso   1.00
H26    H     0.16720   0.53700   0.27820   0.01267  Uiso   1.00
H27    H     0.64900   0.09600   0.01940   0.01267  Uiso   1.00
H28    H     0.71610   0.13310   0.98300   0.01267  Uiso   1.00
H29    H     0.65940   0.10650   0.09250   0.01267  Uiso   1.00
H30    H     0.70210   0.17240   0.03650   0.01267  Uiso   1.00
H31    H     0.76910   0.96960   0.18470   0.01267  Uiso   1.00
H32    H     0.72640   0.97290   0.22690   0.01267  Uiso   1.00
H33    H     0.33280   0.70650   0.05290   0.01267  Uiso   1.00
H34    H     0.30380   0.69370   0.11450   0.01267  Uiso   1.00
H35    H     0.31730   0.61250   0.15780   0.01267  Uiso   1.00
H36    H     0.28740   0.60070   0.11830   0.01267  Uiso   1.00
H37    H     0.60710   0.80790   0.01940   0.01267  Uiso   1.00
H38    H     0.58770   0.80570   0.97100   0.01267  Uiso   1.00
H39    H     0.58950   0.71870   0.01500   0.01267  Uiso   1.00
H40    H     0.55660   0.70290   0.07690   0.01267  Uiso   1.00
H41    H     0.99990   0.22540   0.54130   0.01267  Uiso   1.00
H42    H     0.00760   0.22380   0.48900   0.01267  Uiso   1.00
H43    H     0.15950   0.35330   0.43640   0.01267  Uiso   1.00
H44    H     0.14790   0.37000   0.47850   0.01267  Uiso   1.00
H45    H     0.08420   0.43460   0.37020   0.01267  Uiso   1.00
H46    H     0.10430   0.45140   0.40790   0.01267  Uiso   1.00
H47    H     0.93930   0.95870   0.34340   0.01267  Uiso   1.00
H48    H     0.91440   0.98530   0.36730   0.01267  Uiso   1.00
H49    H     0.75910   0.86110   0.39740   0.01267  Uiso   1.00
H50    H     0.79380   0.83570   0.38690   0.01267  Uiso   1.00
H51    H     0.79680   0.92490   0.25890   0.01267  Uiso   1.00
H52    H     0.76250   0.92750   0.30280   0.01267  Uiso   1.00
H53    H     0.14850   0.26570   0.34760   0.01267  Uiso   1.00
H54    H     0.17010   0.22590   0.37000   0.01267  Uiso   1.00
H55    H     0.31560   0.36850   0.26170   0.01267  Uiso   1.00
H56    H     0.29790   0.40450   0.22380   0.01267  Uiso   1.00
H57    H     0.16600   0.17530   0.29470   0.01267  Uiso   1.00
H58    H     0.13830   0.20470   0.26640   0.01267  Uiso   1.00
H59    H     0.29410   0.35720   0.15350   0.01267  Uiso   1.00
H60    H     0.30710   0.31000   0.18010   0.01267  Uiso   1.00
H61    H     0.08670   0.23130   0.47560   0.01267  Uiso   1.00
H62    H     0.05270   0.19030   0.54320   0.01267  Uiso   1.00
H63    H     0.10190   0.27720   0.55170   0.01267  Uiso   1.00
H64    H     0.15090   0.27950   0.51000   0.01267  Uiso   1.00
H65    H     0.16290   0.44500   0.32870   0.01267  Uiso   1.00
H66    H     0.18480   0.46300   0.36980   0.01267  Uiso   1.00
H67    H     0.88460   0.90400   0.44700   0.01267  Uiso   1.00
H68    H     0.88390   0.86690   0.41700   0.01267  Uiso   1.00
H69    H     0.80100   0.89350   0.44710   0.01267  Uiso   1.00
H70    H     0.79110   0.82760   0.47030   0.01267  Uiso   1.00
H71    H     0.84570   0.03040   0.20050   0.01267  Uiso   1.00
H72    H     0.80020   0.02710   0.24650   0.01267  Uiso   1.00
H73    H     0.24060   0.29350   0.37370   0.01267  Uiso   1.00
H74    H     0.19180   0.30630   0.38990   0.01267  Uiso   1.00
H75    H     0.22970   0.38750   0.29520   0.01267  Uiso   1.00
H76    H     0.28100   0.39930   0.31330   0.01267  Uiso   1.00
H77    H     0.17270   0.19210   0.20080   0.01267  Uiso   1.00
H78    H     0.22330   0.19430   0.21800   0.01267  Uiso   1.00
H79    H     0.26630   0.28130   0.12920   0.01267  Uiso   1.00
H80    H     0.22020   0.29710   0.14630   0.01267  Uiso   1.00
H81    H     0.70870   0.95880   0.01670   0.01267  Uiso   1.00
H82    H     0.76100   0.00340   0.96280   0.01267  Uiso   1.00
H83    H     0.81360   0.90410   0.03970   0.01267  Uiso   1.00
H84    H     0.77150   0.87360   0.09850   0.01267  Uiso   1.00
H85    H     0.87980   0.04560   0.05480   0.01267  Uiso   1.00
H86    H     0.84210   0.98780   0.10930   0.01267  Uiso   1.00
H87    H     0.90660   0.21730   0.55210   0.01267  Uiso   1.00
H88    H     0.88270   0.21830   0.60260   0.01267  Uiso   1.00
H89    H     0.85260   0.34350   0.50850   0.01267  Uiso   1.00
H90    H     0.86310   0.31930   0.47260   0.01267  Uiso   1.00
H91    H     0.99110   0.44430   0.43380   0.01267  Uiso   1.00
H92    H     0.94720   0.43470   0.48030   0.01267  Uiso   1.00
H93    H     0.90240   0.00390   0.86330   0.01267  Uiso   1.00
H94    H     0.88000   0.95990   0.84590   0.01267  Uiso   1.00
H95    H     0.98830   0.92270   0.88020   0.01267  Uiso   1.00
H96    H     0.02620   0.97830   0.87830   0.01267  Uiso   1.00
H97    H     0.95530   0.03930   0.72000   0.01267  Uiso   1.00
H98    H     0.98360   0.09530   0.72110   0.01267  Uiso   1.00
H99    H     0.09650   0.05240   0.76070   0.01267  Uiso   1.00
H100   H     0.06990   0.01280   0.74010   0.01267  Uiso   1.00
H101   H     0.77440   0.93770   0.95690   0.01267  Uiso   1.00
H102   H     0.70680   0.90410   0.98350   0.01267  Uiso   1.00
H103   H     0.69830   0.84640   0.07890   0.01267  Uiso   1.00
H104   H     0.74000   0.83910   0.03950   0.01267  Uiso   1.00
H105   H     0.92130   0.00840   0.02370   0.01267  Uiso   1.00
H106   H     0.88020   0.94540   0.08280   0.01267  Uiso   1.00
H107   H     0.80300   0.16840   0.60100   0.01267  Uiso   1.00
H108   H     0.83300   0.19910   0.53390   0.01267  Uiso   1.00
H109   H     0.80290   0.25190   0.59060   0.01267  Uiso   1.00
H110   H     0.77970   0.23860   0.54790   0.01267  Uiso   1.00
H111   H     0.04950   0.45380   0.48090   0.01267  Uiso   1.00
H112   H     0.00350   0.45330   0.52360   0.01267  Uiso   1.00
H113   H     0.87630   0.88570   0.91720   0.01267  Uiso   1.00
H114   H     0.86010   0.91830   0.94620   0.01267  Uiso   1.00
H115   H     0.95480   0.97510   0.93270   0.01267  Uiso   1.00
H116   H     0.93670   0.90570   0.96260   0.01267  Uiso   1.00
H117   H     0.04920   0.12650   0.64290   0.01267  Uiso   1.00
H118   H     0.03200   0.05870   0.66230   0.01267  Uiso   1.00
H119   H     0.12080   0.10450   0.66050   0.01267  Uiso   1.00
H120   H     0.10370   0.13350   0.69340   0.01267  Uiso   1.00
H121   H     0.02450   0.04120   0.25010   0.01267  Uiso   1.00
H122   H     0.03380   0.99660   0.24240   0.01267  Uiso   1.00
H123   H     0.05620   0.09590   0.09050   0.01267  Uiso   1.00
H124   H     0.02790   0.12640   0.10210   0.01267  Uiso   1.00
H125   H     0.89960   0.95440   0.16580   0.01267  Uiso   1.00
H126   H     0.90290   0.01220   0.14570   0.01267  Uiso   1.00
H127   H     0.23060   0.78270   0.31070   0.01267  Uiso   1.00
H128   H     0.17910   0.78170   0.33560   0.01267  Uiso   1.00
H129   H     0.14800   0.65650   0.49090   0.01267  Uiso   1.00
H130   H     0.20810   0.68070   0.45620   0.01267  Uiso   1.00
H131   H     0.12190   0.55570   0.45320   0.01267  Uiso   1.00
H132   H     0.08500   0.56530   0.48750   0.01267  Uiso   1.00
H133   H     0.13280   0.99610   0.10150   0.01267  Uiso   1.00
H134   H     0.19420   0.04010   0.07990   0.01267  Uiso   1.00
H135   H     0.19710   0.07730   0.93440   0.01267  Uiso   1.00
H136   H     0.14340   0.02170   0.95210   0.01267  Uiso   1.00
H137   H     0.24070   0.96070   0.08400   0.01267  Uiso   1.00
H138   H     0.18360   0.90470   0.11170   0.01267  Uiso   1.00
H139   H     0.18690   0.94760   0.95590   0.01267  Uiso   1.00
H140   H     0.24710   0.98720   0.94290   0.01267  Uiso   1.00
H141   H     0.10540   0.06230   0.16330   0.01267  Uiso   1.00
H142   H     0.11240   0.09590   0.19730   0.01267  Uiso   1.00
H143   H     0.07470   0.15360   0.14810   0.01267  Uiso   1.00
H144   H     0.12140   0.16090   0.09910   0.01267  Uiso   1.00
H145   H     0.96790   0.99160   0.08710   0.01267  Uiso   1.00
H146   H     0.97180   0.05460   0.06520   0.01267  Uiso   1.00
H147   H     0.23060   0.83160   0.36540   0.01267  Uiso   1.00
H148   H     0.26700   0.80090   0.36610   0.01267  Uiso   1.00
H149   H     0.15750   0.74810   0.44900   0.01267  Uiso   1.00
H150   H     0.21350   0.76140   0.45890   0.01267  Uiso   1.00
H151   H     0.06530   0.54620   0.40430   0.01267  Uiso   1.00
H152   H     0.02310   0.54670   0.44980   0.01267  Uiso   1.00
H153   H     0.19710   0.11430   0.00940   0.01267  Uiso   1.00
H154   H     0.13550   0.08170   0.05820   0.01267  Uiso   1.00
H155   H     0.09220   0.02490   0.02030   0.01267  Uiso   1.00
H156   H     0.13170   0.09430   0.96900   0.01267  Uiso   1.00
H157   H     0.23060   0.87350   0.07730   0.01267  Uiso   1.00
H158   H     0.27900   0.94130   0.02670   0.01267  Uiso   1.00
H159   H     0.23500   0.89550   0.98370   0.01267  Uiso   1.00
H160   H     0.17310   0.86650   0.02980   0.01267  Uiso   1.00
H161   H     0.49990   0.54120   0.72550   0.01267  Uiso   1.00
H162   H     0.50760   0.49660   0.71620   0.01267  Uiso   1.00
H163   H     0.65950   0.59590   0.69380   0.01267  Uiso   1.00
H164   H     0.64790   0.62640   0.72210   0.01267  Uiso   1.00
H165   H     0.58420   0.45440   0.85040   0.01267  Uiso   1.00
H166   H     0.60430   0.51220   0.84710   0.01267  Uiso   1.00
H167   H     0.43930   0.28270   0.51940   0.01267  Uiso   1.00
H168   H     0.41440   0.28170   0.57090   0.01267  Uiso   1.00
H169   H     0.25910   0.15650   0.60200   0.01267  Uiso   1.00
H170   H     0.29380   0.18070   0.54190   0.01267  Uiso   1.00
H171   H     0.29680   0.05570   0.62810   0.01267  Uiso   1.00
H172   H     0.26250   0.06530   0.66500   0.01267  Uiso   1.00
H173   H     0.64850   0.49610   0.61720   0.01267  Uiso   1.00
H174   H     0.67010   0.54010   0.55580   0.01267  Uiso   1.00
H175   H     0.81560   0.57730   0.55290   0.01267  Uiso   1.00
H176   H     0.79790   0.52170   0.60660   0.01267  Uiso   1.00
H177   H     0.66600   0.46070   0.50930   0.01267  Uiso   1.00
H178   H     0.63830   0.40470   0.56640   0.01267  Uiso   1.00
H179   H     0.79410   0.44760   0.56310   0.01267  Uiso   1.00
H180   H     0.80710   0.48720   0.50290   0.01267  Uiso   1.00
H181   H     0.58670   0.56230   0.64460   0.01267  Uiso   1.00
H182   H     0.55270   0.59590   0.63760   0.01267  Uiso   1.00
H183   H     0.60190   0.65360   0.67530   0.01267  Uiso   1.00
H184   H     0.65090   0.66090   0.62860   0.01267  Uiso   1.00
H185   H     0.66290   0.49160   0.78210   0.01267  Uiso   1.00
H186   H     0.68480   0.55460   0.77820   0.01267  Uiso   1.00
H187   H     0.38460   0.33160   0.51940   0.01267  Uiso   1.00
H188   H     0.38390   0.30090   0.48300   0.01267  Uiso   1.00
H189   H     0.30100   0.24810   0.59250   0.01267  Uiso   1.00
H190   H     0.29110   0.26140   0.53650   0.01267  Uiso   1.00
H191   H     0.34570   0.04620   0.68470   0.01267  Uiso   1.00
H192   H     0.30020   0.04670   0.72690   0.01267  Uiso   1.00
H193   H     0.74060   0.61430   0.55290   0.01267  Uiso   1.00
H194   H     0.69180   0.58170   0.61450   0.01267  Uiso   1.00
H195   H     0.72970   0.52490   0.65780   0.01267  Uiso   1.00
H196   H     0.78100   0.59430   0.61830   0.01267  Uiso   1.00
H197   H     0.67270   0.37350   0.51940   0.01267  Uiso   1.00
H198   H     0.72330   0.44130   0.47100   0.01267  Uiso   1.00
H199   H     0.76630   0.39550   0.51500   0.01267  Uiso   1.00
H200   H     0.72020   0.36650   0.57690   0.01267  Uiso   1.00
H201   H     0.73330   0.45880   0.04130   0.01267  Uiso   1.00
H202   H     0.78720   0.50340   0.98900   0.01267  Uiso   1.00
H203   H     0.71030   0.40410   0.93640   0.01267  Uiso   1.00
H204   H     0.65150   0.37360   0.97850   0.01267  Uiso   1.00
H205   H     0.69520   0.54560   0.87020   0.01267  Uiso   1.00
H206   H     0.64070   0.48780   0.90790   0.01267  Uiso   1.00
H207   H     0.19790   0.71730   0.84340   0.01267  Uiso   1.00
H208   H     0.14740   0.71830   0.86730   0.01267  Uiso   1.00
H209   H     0.24150   0.84350   0.89740   0.01267  Uiso   1.00
H210   H     0.27740   0.81930   0.88690   0.01267  Uiso   1.00
H211   H     0.31620   0.94430   0.75890   0.01267  Uiso   1.00
H212   H     0.26970   0.93470   0.80280   0.01267  Uiso   1.00
H213   H     0.88670   0.50390   0.84760   0.01267  Uiso   1.00
H214   H     0.90410   0.45990   0.87000   0.01267  Uiso   1.00
H215   H     0.86980   0.42270   0.76170   0.01267  Uiso   1.00
H216   H     0.87170   0.47830   0.72380   0.01267  Uiso   1.00
H217   H     0.03000   0.53930   0.79470   0.01267  Uiso   1.00
H218   H     0.02890   0.59530   0.76640   0.01267  Uiso   1.00
H219   H     0.98930   0.55240   0.65350   0.01267  Uiso   1.00
H220   H     0.00990   0.51280   0.68010   0.01267  Uiso   1.00
H221   H     0.79310   0.43770   0.97560   0.01267  Uiso   1.00
H222   H     0.76650   0.40410   0.04320   0.01267  Uiso   1.00
H223   H     0.67110   0.34640   0.05170   0.01267  Uiso   1.00
H224   H     0.71050   0.33910   0.01000   0.01267  Uiso   1.00
H225   H     0.72630   0.50840   0.82870   0.01267  Uiso   1.00
H226   H     0.66720   0.44540   0.86980   0.01267  Uiso   1.00
H227   H     0.14900   0.66840   0.94700   0.01267  Uiso   1.00
H228   H     0.21610   0.69910   0.91700   0.01267  Uiso   1.00
H229   H     0.15940   0.75190   0.94710   0.01267  Uiso   1.00
H230   H     0.20210   0.73860   0.97030   0.01267  Uiso   1.00
H231   H     0.26910   0.95380   0.70050   0.01267  Uiso   1.00
H232   H     0.22640   0.95330   0.74650   0.01267  Uiso   1.00
H233   H     0.83280   0.38570   0.87370   0.01267  Uiso   1.00
H234   H     0.80380   0.41830   0.88990   0.01267  Uiso   1.00
H235   H     0.81730   0.47510   0.79520   0.01267  Uiso   1.00
H236   H     0.78740   0.40570   0.81330   0.01267  Uiso   1.00
H237   H     0.10710   0.62650   0.70080   0.01267  Uiso   1.00
H238   H     0.08770   0.55870   0.71800   0.01267  Uiso   1.00
H239   H     0.08950   0.60450   0.62920   0.01267  Uiso   1.00
H240   H     0.05660   0.63350   0.64630   0.01267  Uiso   1.00
H241   H     0.52450   0.27460   0.51670   0.01267  Uiso   1.00
H242   H     0.53380   0.27620   0.46280   0.01267  Uiso   1.00
H243   H     0.55620   0.14670   0.53970   0.01267  Uiso   1.00
H244   H     0.52790   0.13000   0.59850   0.01267  Uiso   1.00
H245   H     0.39960   0.06540   0.55480   0.01267  Uiso   1.00
H246   H     0.40290   0.04860   0.60930   0.01267  Uiso   1.00
H247   H     0.73060   0.54130   0.05210   0.01267  Uiso   1.00
H248   H     0.67910   0.51470   0.10260   0.01267  Uiso   1.00
H249   H     0.64800   0.63890   0.00850   0.01267  Uiso   1.00
H250   H     0.70810   0.66430   0.97260   0.01267  Uiso   1.00
H251   H     0.62190   0.57510   0.93380   0.01267  Uiso   1.00
H252   H     0.58500   0.57250   0.98030   0.01267  Uiso   1.00
H253   H     0.63280   0.23430   0.36330   0.01267  Uiso   1.00
H254   H     0.69420   0.27410   0.34590   0.01267  Uiso   1.00
H255   H     0.69710   0.13150   0.38020   0.01267  Uiso   1.00
H256   H     0.64340   0.09550   0.37830   0.01267  Uiso   1.00
H257   H     0.74070   0.32470   0.22000   0.01267  Uiso   1.00
H258   H     0.68360   0.29530   0.22110   0.01267  Uiso   1.00
H259   H     0.68690   0.14280   0.26070   0.01267  Uiso   1.00
H260   H     0.74710   0.19000   0.24010   0.01267  Uiso   1.00
H261   H     0.60540   0.26870   0.45690   0.01267  Uiso   1.00
H262   H     0.61240   0.30970   0.48350   0.01267  Uiso   1.00
H263   H     0.57470   0.22280   0.57890   0.01267  Uiso   1.00
H264   H     0.62140   0.22050   0.53950   0.01267  Uiso   1.00
H265   H     0.46790   0.05500   0.52370   0.01267  Uiso   1.00
H266   H     0.47180   0.03700   0.58280   0.01267  Uiso   1.00
H267   H     0.73060   0.59600   0.10100   0.01267  Uiso   1.00
H268   H     0.76700   0.63310   0.03390   0.01267  Uiso   1.00
H269   H     0.65750   0.60650   0.09060   0.01267  Uiso   1.00
H270   H     0.71350   0.67240   0.04790   0.01267  Uiso   1.00
H271   H     0.56530   0.46960   0.98090   0.01267  Uiso   1.00
H272   H     0.52310   0.47290   0.02360   0.01267  Uiso   1.00
H273   H     0.69710   0.20650   0.41720   0.01267  Uiso   1.00
H274   H     0.63550   0.19370   0.44620   0.01267  Uiso   1.00
H275   H     0.59220   0.11250   0.43270   0.01267  Uiso   1.00
H276   H     0.63170   0.10070   0.46260   0.01267  Uiso   1.00
H277   H     0.73060   0.30790   0.14290   0.01267  Uiso   1.00
H278   H     0.77900   0.30570   0.16230   0.01267  Uiso   1.00
H279   H     0.73500   0.21870   0.16050   0.01267  Uiso   1.00
H280   H     0.67310   0.20290   0.19340   0.01267  Uiso   1.00
H281   H     0.20870   0.72540   0.75010   0.01267  Uiso   1.00
H282   H     0.26100   0.72380   0.74240   0.01267  Uiso   1.00
H283   H     0.31360   0.85330   0.59050   0.01267  Uiso   1.00
H284   H     0.27150   0.87000   0.60210   0.01267  Uiso   1.00
H285   H     0.37980   0.93460   0.66580   0.01267  Uiso   1.00
H286   H     0.34210   0.95140   0.64570   0.01267  Uiso   1.00
H287   H     0.40660   0.45870   0.81070   0.01267  Uiso   1.00
H288   H     0.38270   0.48530   0.83560   0.01267  Uiso   1.00
H289   H     0.35260   0.36110   0.99090   0.01267  Uiso   1.00
H290   H     0.36310   0.33570   0.95620   0.01267  Uiso   1.00
H291   H     0.49110   0.42490   0.95320   0.01267  Uiso   1.00
H292   H     0.44720   0.42750   0.98750   0.01267  Uiso   1.00
H293   H     0.40240   0.76570   0.60150   0.01267  Uiso   1.00
H294   H     0.38000   0.72590   0.57990   0.01267  Uiso   1.00
H295   H     0.48830   0.86850   0.43440   0.01267  Uiso   1.00
H296   H     0.52620   0.90450   0.45210   0.01267  Uiso   1.00
H297   H     0.45530   0.67530   0.58400   0.01267  Uiso   1.00
H298   H     0.48360   0.70470   0.61170   0.01267  Uiso   1.00
H299   H     0.59650   0.85720   0.45590   0.01267  Uiso   1.00
H300   H     0.56990   0.81000   0.44290   0.01267  Uiso   1.00
H301   H     0.27440   0.73130   0.66330   0.01267  Uiso   1.00
H302   H     0.20680   0.69030   0.69730   0.01267  Uiso   1.00
H303   H     0.19830   0.77720   0.64810   0.01267  Uiso   1.00
H304   H     0.24000   0.77950   0.59910   0.01267  Uiso   1.00
H305   H     0.42130   0.94500   0.58710   0.01267  Uiso   1.00
H306   H     0.38020   0.96300   0.56520   0.01267  Uiso   1.00
H307   H     0.30300   0.40400   0.86540   0.01267  Uiso   1.00
H308   H     0.33300   0.36690   0.86610   0.01267  Uiso   1.00
H309   H     0.30290   0.39350   0.94900   0.01267  Uiso   1.00
H310   H     0.27970   0.32760   0.95890   0.01267  Uiso   1.00
H311   H     0.54950   0.53040   0.90430   0.01267  Uiso   1.00
H312   H     0.50350   0.52710   0.94980   0.01267  Uiso   1.00
H313   H     0.37630   0.79350   0.50940   0.01267  Uiso   1.00
H314   H     0.36010   0.80630   0.55820   0.01267  Uiso   1.00
H315   H     0.45480   0.88750   0.52030   0.01267  Uiso   1.00
H316   H     0.43670   0.89930   0.46900   0.01267  Uiso   1.00
H317   H     0.54920   0.69210   0.57730   0.01267  Uiso   1.00
H318   H     0.53200   0.69430   0.52670   0.01267  Uiso   1.00
H319   H     0.62080   0.78130   0.48370   0.01267  Uiso   1.00
H320   H     0.60370   0.79710   0.52980   0.01267  Uiso   1.00
C1     C     0.25960   0.76910   0.16190   0.01267  Uiso   1.00
C2     C     0.20290   0.71720   0.16550   0.01267  Uiso   1.00
C3     C     0.18530   0.53530   0.30460   0.01267  Uiso   1.00
C4     C     0.68520   0.10410   0.02190   0.01267  Uiso   1.00
C5     C     0.69440   0.13090   0.05730   0.01267  Uiso   1.00
C6     C     0.76600   0.99530   0.19870   0.01267  Uiso   1.00
C7     C     0.33350   0.69320   0.09050   0.01267  Uiso   1.00
C8     C     0.32240   0.62810   0.11810   0.01267  Uiso   1.00
C9     C     0.57500   0.78590   0.01250   0.01267  Uiso   1.00
C10    C     0.55960   0.71990   0.03790   0.01267  Uiso   1.00
C11    C     0.06900   0.23090   0.50950   0.01267  Uiso   1.00
C12    C     0.11730   0.28280   0.51430   0.01267  Uiso   1.00
C13    C     0.16010   0.46470   0.35000   0.01267  Uiso   1.00
C14    C     0.87400   0.89590   0.41890   0.01267  Uiso   1.00
C15    C     0.81180   0.86910   0.43650   0.01267  Uiso   1.00
C16    C     0.80600   0.00470   0.22930   0.01267  Uiso   1.00
C17    C     0.21630   0.30680   0.35970   0.01267  Uiso   1.00
C18    C     0.25380   0.37190   0.30570   0.01267  Uiso   1.00
C19    C     0.20160   0.21410   0.21090   0.01267  Uiso   1.00
C20    C     0.24220   0.28010   0.16030   0.01267  Uiso   1.00
C21    C     0.74050   0.92150   0.99040   0.01267  Uiso   1.00
C22    C     0.73570   0.86840   0.04710   0.01267  Uiso   1.00
C23    C     0.90000   0.98990   0.06470   0.01267  Uiso   1.00
C24    C     0.83110   0.20710   0.56480   0.01267  Uiso   1.00
C25    C     0.81350   0.25170   0.55560   0.01267  Uiso   1.00
C26    C     0.02070   0.46470   0.48400   0.01267  Uiso   1.00
C27    C     0.89030   0.92400   0.91650   0.01267  Uiso   1.00
C28    C     0.94430   0.94050   0.92760   0.01267  Uiso   1.00
C29    C     0.03910   0.08750   0.67500   0.01267  Uiso   1.00
C30    C     0.08970   0.09750   0.69040   0.01267  Uiso   1.00
C31    C     0.08810   0.07850   0.18100   0.01267  Uiso   1.00
C32    C     0.08450   0.13160   0.13270   0.01267  Uiso   1.00
C33    C     0.94540   0.01010   0.08990   0.01267  Uiso   1.00
C34    C     0.22810   0.79290   0.37600   0.01267  Uiso   1.00
C35    C     0.19270   0.74830   0.43820   0.01267  Uiso   1.00
C36    C     0.05130   0.53530   0.44400   0.01267  Uiso   1.00
C37    C     0.15950   0.07600   0.03370   0.01267  Uiso   1.00
C38    C     0.13190   0.05950   0.99620   0.01267  Uiso   1.00
C39    C     0.23750   0.91250   0.04840   0.01267  Uiso   1.00
C40    C     0.21210   0.90250   0.00780   0.01267  Uiso   1.00
C41    C     0.56900   0.57850   0.66190   0.01267  Uiso   1.00
C42    C     0.61730   0.63160   0.66550   0.01267  Uiso   1.00
C43    C     0.66010   0.51010   0.80460   0.01267  Uiso   1.00
C44    C     0.37400   0.29290   0.52190   0.01267  Uiso   1.00
C45    C     0.31180   0.24830   0.55730   0.01267  Uiso   1.00
C46    C     0.30600   0.03530   0.69870   0.01267  Uiso   1.00
C47    C     0.71630   0.57600   0.59050   0.01267  Uiso   1.00
C48    C     0.75380   0.55950   0.61810   0.01267  Uiso   1.00
C49    C     0.70160   0.41250   0.51250   0.01267  Uiso   1.00
C50    C     0.74220   0.40250   0.53790   0.01267  Uiso   1.00
C51    C     0.75960   0.42150   0.00950   0.01267  Uiso   1.00
C52    C     0.70290   0.36840   0.01430   0.01267  Uiso   1.00
C53    C     0.68530   0.48990   0.85000   0.01267  Uiso   1.00
C54    C     0.18520   0.70710   0.91890   0.01267  Uiso   1.00
C55    C     0.19440   0.75170   0.93650   0.01267  Uiso   1.00
C56    C     0.26600   0.96470   0.72930   0.01267  Uiso   1.00
C57    C     0.83350   0.42400   0.85970   0.01267  Uiso   1.00
C58    C     0.82240   0.44050   0.80570   0.01267  Uiso   1.00
C59    C     0.07500   0.58750   0.71090   0.01267  Uiso   1.00
C60    C     0.05960   0.59750   0.66030   0.01267  Uiso   1.00
C61    C     0.58810   0.26910   0.49040   0.01267  Uiso   1.00
C62    C     0.58450   0.21720   0.54710   0.01267  Uiso   1.00
C63    C     0.44540   0.03530   0.56470   0.01267  Uiso   1.00
C64    C     0.72810   0.60410   0.06480   0.01267  Uiso   1.00
C65    C     0.69270   0.63090   0.05560   0.01267  Uiso   1.00
C66    C     0.55130   0.49530   0.98400   0.01267  Uiso   1.00
C67    C     0.65950   0.19320   0.41650   0.01267  Uiso   1.00
C68    C     0.63190   0.12810   0.42760   0.01267  Uiso   1.00
C69    C     0.73750   0.28590   0.17500   0.01267  Uiso   1.00
C70    C     0.71210   0.21990   0.19040   0.01267  Uiso   1.00
C71    C     0.24050   0.73090   0.68100   0.01267  Uiso   1.00
C72    C     0.23570   0.78280   0.63270   0.01267  Uiso   1.00
C73    C     0.40000   0.96470   0.58990   0.01267  Uiso   1.00
C74    C     0.33110   0.39590   0.87600   0.01267  Uiso   1.00
C75    C     0.31350   0.36910   0.93820   0.01267  Uiso   1.00
C76    C     0.52070   0.50470   0.94400   0.01267  Uiso   1.00
C77    C     0.39030   0.80680   0.53370   0.01267  Uiso   1.00
C78    C     0.44430   0.87190   0.49620   0.01267  Uiso   1.00
C79    C     0.53910   0.71410   0.54840   0.01267  Uiso   1.00
C80    C     0.58970   0.78010   0.50780   0.01267  Uiso   1.00
N1     N     0.25230   0.75780   0.21630   0.01267  Uiso   1.00
N2     N     0.18900   0.65840   0.20900   0.01267  Uiso   1.00
N3     N     0.17890   0.56910   0.32540   0.01267  Uiso   1.00
N4     N     0.68420   0.04650   0.04770   0.01267  Uiso   1.00
N5     N     0.74340   0.13330   0.07230   0.01267  Uiso   1.00
N6     N     0.77800   0.05170   0.15070   0.01267  Uiso   1.00
N7     N     0.39030   0.73520   0.08410   0.01267  Uiso   1.00
N8     N     0.37180   0.62970   0.08530   0.01267  Uiso   1.00
N9     N     0.52740   0.79120   0.03640   0.01267  Uiso   1.00
N10    N     0.50450   0.68330   0.03840   0.01267  Uiso   1.00
N11    N     0.02590   0.24220   0.50550   0.01267  Uiso   1.00
N12    N     0.13260   0.34160   0.46940   0.01267  Uiso   1.00
N13    N     0.10550   0.43090   0.39020   0.01267  Uiso   1.00
N14    N     0.90580   0.95350   0.36230   0.01267  Uiso   1.00
N15    N     0.79440   0.86670   0.38990   0.01267  Uiso   1.00
N16    N     0.79760   0.94830   0.27370   0.01267  Uiso   1.00
N17    N     0.18070   0.26480   0.34490   0.01267  Uiso   1.00
N18    N     0.28500   0.37030   0.25790   0.01267  Uiso   1.00
N19    N     0.17240   0.20880   0.26380   0.01267  Uiso   1.00
N20    N     0.27830   0.31670   0.17880   0.01267  Uiso   1.00
N21    N     0.74450   0.96860   0.99770   0.01267  Uiso   1.00
N22    N     0.78060   0.89800   0.06100   0.01267  Uiso   1.00
N23    N     0.85980   0.00430   0.07110   0.01267  Uiso   1.00
N24    N     0.88770   0.23190   0.56580   0.01267  Uiso   1.00
N25    N     0.86010   0.31570   0.50660   0.01267  Uiso   1.00
N26    N     0.97630   0.42870   0.47200   0.01267  Uiso   1.00
N27    N     0.90510   0.97440   0.85970   0.01267  Uiso   1.00
N28    N     0.99210   0.95710   0.87820   0.01267  Uiso   1.00
N29    N     0.98620   0.06380   0.72260   0.01267  Uiso   1.00
N30    N     0.07120   0.04290   0.74550   0.01267  Uiso   1.00
N31    N     0.03370   0.03140   0.22410   0.01267  Uiso   1.00
N32    N     0.04100   0.10200   0.11740   0.01267  Uiso   1.00
N33    N     0.92460   0.99570   0.14450   0.01267  Uiso   1.00
N34    N     0.20230   0.76810   0.34420   0.01267  Uiso   1.00
N35    N     0.17770   0.68430   0.45560   0.01267  Uiso   1.00
N36    N     0.09930   0.57130   0.45240   0.01267  Uiso   1.00
N37    N     0.16590   0.02560   0.06930   0.01267  Uiso   1.00
N38    N     0.16470   0.04290   0.96500   0.01267  Uiso   1.00
N39    N     0.21360   0.93620   0.07760   0.01267  Uiso   1.00
N40    N     0.21160   0.95710   0.97170   0.01267  Uiso   1.00
N41    N     0.52590   0.53140   0.71630   0.01267  Uiso   1.00
N42    N     0.63260   0.60200   0.70900   0.01267  Uiso   1.00
N43    N     0.60550   0.49570   0.82540   0.01267  Uiso   1.00
N44    N     0.40580   0.26810   0.54770   0.01267  Uiso   1.00
N45    N     0.29440   0.18430   0.57230   0.01267  Uiso   1.00
N46    N     0.29760   0.07130   0.65070   0.01267  Uiso   1.00
N47    N     0.68070   0.52560   0.58410   0.01267  Uiso   1.00
N48    N     0.78500   0.54290   0.58530   0.01267  Uiso   1.00
N49    N     0.67240   0.43620   0.53640   0.01267  Uiso   1.00
N50    N     0.77830   0.45710   0.53840   0.01267  Uiso   1.00
N51    N     0.75230   0.46860   0.00550   0.01267  Uiso   1.00
N52    N     0.68900   0.39800   0.96940   0.01267  Uiso   1.00
N53    N     0.67890   0.50430   0.89020   0.01267  Uiso   1.00
N54    N     0.18420   0.73190   0.86230   0.01267  Uiso   1.00
N55    N     0.24340   0.81570   0.88990   0.01267  Uiso   1.00
N56    N     0.27800   0.92870   0.77370   0.01267  Uiso   1.00
N57    N     0.89030   0.47440   0.84490   0.01267  Uiso   1.00
N58    N     0.87180   0.45710   0.75790   0.01267  Uiso   1.00
N59    N     0.02740   0.56380   0.76380   0.01267  Uiso   1.00
N60    N     0.00450   0.54290   0.67880   0.01267  Uiso   1.00
N61    N     0.53370   0.25780   0.49770   0.01267  Uiso   1.00
N62    N     0.54100   0.15840   0.56100   0.01267  Uiso   1.00
N63    N     0.42460   0.06910   0.57110   0.01267  Uiso   1.00
N64    N     0.70230   0.54650   0.06580   0.01267  Uiso   1.00
N65    N     0.67770   0.63330   0.00660   0.01267  Uiso   1.00
N66    N     0.59930   0.55170   0.97200   0.01267  Uiso   1.00
N67    N     0.66590   0.23520   0.35970   0.01267  Uiso   1.00
N68    N     0.66470   0.12970   0.37820   0.01267  Uiso   1.00
N69    N     0.71360   0.29120   0.22260   0.01267  Uiso   1.00
N70    N     0.71160   0.18330   0.24550   0.01267  Uiso   1.00
N71    N     0.24450   0.74220   0.72410   0.01267  Uiso   1.00
N72    N     0.28060   0.84160   0.61740   0.01267  Uiso   1.00
N73    N     0.35980   0.93090   0.64450   0.01267  Uiso   1.00
N74    N     0.38770   0.45350   0.84420   0.01267  Uiso   1.00
N75    N     0.36010   0.36670   0.95560   0.01267  Uiso   1.00
N76    N     0.47630   0.44830   0.95240   0.01267  Uiso   1.00
N77    N     0.40510   0.76480   0.56930   0.01267  Uiso   1.00
N78    N     0.49210   0.87030   0.46500   0.01267  Uiso   1.00
N79    N     0.48620   0.70880   0.57760   0.01267  Uiso   1.00
N80    N     0.57120   0.81670   0.47170   0.01267  Uiso   1.00
O1     O     0.32080   0.65900   0.32780   0.01267  Uiso   1.00
O2     O     0.38560   0.65130   0.26210   0.01267  Uiso   1.00
O3     O     0.35360   0.60850   0.41610   0.01267  Uiso   1.00
O4     O     0.42210   0.60770   0.34500   0.01267  Uiso   1.00
O5     O     0.36010   0.77460   0.23450   0.01267  Uiso   1.00
O6     O     0.42090   0.75290   0.17480   0.01267  Uiso   1.00
O7     O     0.44230   0.88310   0.18860   0.01267  Uiso   1.00
O8     O     0.50840   0.87240   0.12620   0.01267  Uiso   1.00
O9     O     0.52900   0.93560   0.21920   0.01267  Uiso   1.00
O10    O     0.58970   0.91760   0.15110   0.01267  Uiso   1.00
O11    O     0.56520   0.89580   0.29020   0.01267  Uiso   1.00
O12    O     0.63040   0.88370   0.22870   0.01267  Uiso   1.00
O13    O     0.53060   0.77970   0.38250   0.01267  Uiso   1.00
O14    O     0.60110   0.77230   0.32000   0.01267  Uiso   1.00
O15    O     0.44710   0.67070   0.43300   0.01267  Uiso   1.00
O16    O     0.50700   0.65130   0.36630   0.01267  Uiso   1.00
O17    O     0.49840   0.67690   0.23090   0.01267  Uiso   1.00
O18    O     0.53100   0.77910   0.14530   0.01267  Uiso   1.00
O19    O     0.44500   0.67190   0.15130   0.01267  Uiso   1.00
O20    O     0.58230   0.71870   0.25180   0.01267  Uiso   1.00
O21    O     0.62110   0.83750   0.15420   0.01267  Uiso   1.00
O22    O     0.32920   0.75470   0.34450   0.01267  Uiso   1.00
O23    O     0.41840   0.85660   0.30160   0.01267  Uiso   1.00
O24    O     0.37000   0.70880   0.43120   0.01267  Uiso   1.00
O25    O     0.45390   0.81750   0.37700   0.01267  Uiso   1.00
O26    O     0.44750   0.74230   0.48580   0.01267  Uiso   1.00
O27    O     0.26280   0.63130   0.43790   0.01267  Uiso   1.00
O28    O     0.22200   0.66800   0.35020   0.01267  Uiso   1.00
O29    O     0.69000   0.82910   0.20950   0.01267  Uiso   1.00
O30    O     0.72460   0.95370   0.11830   0.01267  Uiso   1.00
O31    O     0.01320   0.34100   0.33820   0.01267  Uiso   1.00
O32    O     0.08660   0.34870   0.26570   0.01267  Uiso   1.00
O33    O     0.97540   0.39150   0.25490   0.01267  Uiso   1.00
O34    O     0.04730   0.39230   0.18560   0.01267  Uiso   1.00
O35    O     0.99090   0.22540   0.41450   0.01267  Uiso   1.00
O36    O     0.07230   0.24710   0.33200   0.01267  Uiso   1.00
O37    O     0.92830   0.11690   0.44080   0.01267  Uiso   1.00
O38    O     0.00140   0.12760   0.36400   0.01267  Uiso   1.00
O39    O     0.84520   0.06440   0.40660   0.01267  Uiso   1.00
O40    O     0.93130   0.08240   0.32790   0.01267  Uiso   1.00
O41    O     0.81400   0.10420   0.33060   0.01267  Uiso   1.00
O42    O     0.88760   0.11630   0.25330   0.01267  Uiso   1.00
O43    O     0.83780   0.22030   0.24910   0.01267  Uiso   1.00
O44    O     0.90770   0.22770   0.17120   0.01267  Uiso   1.00
O45    O     0.89630   0.32930   0.22360   0.01267  Uiso   1.00
O46    O     0.98240   0.34870   0.14430   0.01267  Uiso   1.00
O47    O     0.09220   0.32310   0.17850   0.01267  Uiso   1.00
O48    O     0.07560   0.22090   0.24810   0.01267  Uiso   1.00
O49    O     0.17680   0.32810   0.22690   0.01267  Uiso   1.00
O50    O     0.02950   0.28130   0.13640   0.01267  Uiso   1.00
O51    O     0.00830   0.16250   0.21640   0.01267  Uiso   1.00
O52    O     0.90080   0.24530   0.42550   0.01267  Uiso   1.00
O53    O     0.84180   0.14340   0.43820   0.01267  Uiso   1.00
O54    O     0.86000   0.29120   0.33880   0.01267  Uiso   1.00
O55    O     0.80550   0.18250   0.36360   0.01267  Uiso   1.00
O56    O     0.77190   0.25770   0.29480   0.01267  Uiso   1.00
O57    O     0.93080   0.36870   0.36850   0.01267  Uiso   1.00
O58    O     0.98180   0.33200   0.44600   0.01267  Uiso   1.00
O59    O     0.96140   0.17090   0.13910   0.01267  Uiso   1.00
O60    O     0.92800   0.04630   0.22910   0.01267  Uiso   1.00
O61    O     0.91180   0.14860   0.92920   0.01267  Uiso   1.00
O62    O     0.98430   0.14770   0.86440   0.01267  Uiso   1.00
O63    O     0.99510   0.26970   0.89640   0.01267  Uiso   1.00
O64    O     0.06440   0.26710   0.82790   0.01267  Uiso   1.00
O65    O     0.83550   0.09460   0.88990   0.01267  Uiso   1.00
O66    O     0.91800   0.09570   0.82910   0.01267  Uiso   1.00
O67    O     0.80920   0.13090   0.80770   0.01267  Uiso   1.00
O68    O     0.88600   0.13460   0.74160   0.01267  Uiso   1.00
O69    O     0.84340   0.24820   0.72100   0.01267  Uiso   1.00
O70    O     0.92210   0.24080   0.66030   0.01267  Uiso   1.00
O71    O     0.91940   0.35540   0.68480   0.01267  Uiso   1.00
O72    O     0.99670   0.35910   0.61960   0.01267  Uiso   1.00
O73    O     0.00090   0.41310   0.71940   0.01267  Uiso   1.00
O74    O     0.07880   0.42110   0.64890   0.01267  Uiso   1.00
O75    O     0.02640   0.38010   0.80290   0.01267  Uiso   1.00
O76    O     0.10570   0.37330   0.74300   0.01267  Uiso   1.00
O77    O     0.07150   0.22930   0.75160   0.01267  Uiso   1.00
O78    O     0.00190   0.17630   0.71900   0.01267  Uiso   1.00
O79    O     0.02310   0.09630   0.80500   0.01267  Uiso   1.00
O80    O     0.11360   0.33410   0.66770   0.01267  Uiso   1.00
O81    O     0.03360   0.27530   0.62890   0.01267  Uiso   1.00
O82    O     0.82450   0.17370   0.92080   0.01267  Uiso   1.00
O83    O     0.81180   0.22000   0.83160   0.01267  Uiso   1.00
O84    O     0.91120   0.30120   0.88000   0.01267  Uiso   1.00
O85    O     0.88640   0.33090   0.79610   0.01267  Uiso   1.00
O86    O     0.95520   0.43330   0.80250   0.01267  Uiso   1.00
O87    O     0.88150   0.20070   0.98720   0.01267  Uiso   1.00
O88    O     0.80400   0.07220   0.02800   0.01267  Uiso   1.00
O89    O     0.11090   0.39950   0.56000   0.01267  Uiso   1.00
O90    O     0.02090   0.34290   0.52540   0.01267  Uiso   1.00
O91    O     0.92220   0.85140   0.23680   0.01267  Uiso   1.00
O92    O     0.98790   0.85230   0.16340   0.01267  Uiso   1.00
O93    O     0.83390   0.73030   0.27460   0.01267  Uiso   1.00
O94    O     0.90500   0.73290   0.20270   0.01267  Uiso   1.00
O95    O     0.01550   0.90540   0.25910   0.01267  Uiso   1.00
O96    O     0.07520   0.90430   0.17770   0.01267  Uiso   1.00
O97    O     0.06140   0.86910   0.32170   0.01267  Uiso   1.00
O98    O     0.12380   0.86540   0.24860   0.01267  Uiso   1.00
O99    O     0.03080   0.75180   0.40480   0.01267  Uiso   1.00
O100   O     0.09890   0.75920   0.31870   0.01267  Uiso   1.00
O101   O     0.95980   0.64460   0.43600   0.01267  Uiso   1.00
O102   O     0.02130   0.64090   0.36240   0.01267  Uiso   1.00
O103   O     0.86750   0.58690   0.41220   0.01267  Uiso   1.00
O104   O     0.93000   0.57890   0.34230   0.01267  Uiso   1.00
O105   O     0.81700   0.61990   0.35370   0.01267  Uiso   1.00
O106   O     0.88370   0.62670   0.26760   0.01267  Uiso   1.00
O107   O     0.01910   0.77070   0.15780   0.01267  Uiso   1.00
O108   O     0.10470   0.82370   0.17440   0.01267  Uiso   1.00
O109   O     0.09870   0.90370   0.07320   0.01267  Uiso   1.00
O110   O     0.99820   0.66590   0.22050   0.01267  Uiso   1.00
O111   O     0.09580   0.72470   0.24170   0.01267  Uiso   1.00
O112   O     0.90550   0.82630   0.34920   0.01267  Uiso   1.00
O113   O     0.94840   0.78000   0.40820   0.01267  Uiso   1.00
O114   O     0.81880   0.69880   0.39000   0.01267  Uiso   1.00
O115   O     0.87300   0.66910   0.44450   0.01267  Uiso   1.00
O116   O     0.76420   0.56670   0.47810   0.01267  Uiso   1.00
O117   O     0.81210   0.79930   0.31920   0.01267  Uiso   1.00
O118   O     0.89980   0.92780   0.26820   0.01267  Uiso   1.00
O119   O     0.04050   0.60050   0.28860   0.01267  Uiso   1.00
O120   O     0.13170   0.65710   0.32200   0.01267  Uiso   1.00
O121   O     0.51320   0.35140   0.82780   0.01267  Uiso   1.00
O122   O     0.58660   0.35230   0.76210   0.01267  Uiso   1.00
O123   O     0.47540   0.23030   0.91610   0.01267  Uiso   1.00
O124   O     0.54730   0.23290   0.84500   0.01267  Uiso   1.00
O125   O     0.49090   0.40540   0.73450   0.01267  Uiso   1.00
O126   O     0.57230   0.40430   0.67480   0.01267  Uiso   1.00
O127   O     0.42830   0.36910   0.68860   0.01267  Uiso   1.00
O128   O     0.50140   0.36540   0.62620   0.01267  Uiso   1.00
O129   O     0.34520   0.25180   0.71920   0.01267  Uiso   1.00
O130   O     0.43130   0.25920   0.65110   0.01267  Uiso   1.00
O131   O     0.31400   0.14460   0.79020   0.01267  Uiso   1.00
O132   O     0.38760   0.14090   0.72870   0.01267  Uiso   1.00
O133   O     0.33780   0.08690   0.88250   0.01267  Uiso   1.00
O134   O     0.40770   0.07890   0.82000   0.01267  Uiso   1.00
O135   O     0.39630   0.11990   0.93300   0.01267  Uiso   1.00
O136   O     0.48240   0.12670   0.86630   0.01267  Uiso   1.00
O137   O     0.59220   0.27070   0.73090   0.01267  Uiso   1.00
O138   O     0.57560   0.32370   0.64530   0.01267  Uiso   1.00
O139   O     0.67680   0.40370   0.65130   0.01267  Uiso   1.00
O140   O     0.52950   0.16590   0.75180   0.01267  Uiso   1.00
O141   O     0.50830   0.22470   0.65420   0.01267  Uiso   1.00
O142   O     0.40080   0.32630   0.84450   0.01267  Uiso   1.00
O143   O     0.34180   0.28000   0.80160   0.01267  Uiso   1.00
O144   O     0.36000   0.19880   0.93120   0.01267  Uiso   1.00
O145   O     0.30550   0.16910   0.87700   0.01267  Uiso   1.00
O146   O     0.27190   0.06670   0.98580   0.01267  Uiso   1.00
O147   O     0.43080   0.29930   0.93790   0.01267  Uiso   1.00
O148   O     0.48180   0.42780   0.85020   0.01267  Uiso   1.00
O149   O     0.46140   0.10050   0.70950   0.01267  Uiso   1.00
O150   O     0.42800   0.15710   0.61830   0.01267  Uiso   1.00
O151   O     0.82080   0.64860   0.83820   0.01267  Uiso   1.00
O152   O     0.88560   0.64770   0.76570   0.01267  Uiso   1.00
O153   O     0.85360   0.76970   0.75490   0.01267  Uiso   1.00
O154   O     0.92210   0.76710   0.68560   0.01267  Uiso   1.00
O155   O     0.86010   0.59460   0.91450   0.01267  Uiso   1.00
O156   O     0.92090   0.59570   0.83200   0.01267  Uiso   1.00
O157   O     0.94230   0.63090   0.94080   0.01267  Uiso   1.00
O158   O     0.00840   0.63460   0.86400   0.01267  Uiso   1.00
O159   O     0.02900   0.74820   0.90660   0.01267  Uiso   1.00
O160   O     0.08970   0.74080   0.82790   0.01267  Uiso   1.00
O161   O     0.06520   0.85540   0.83060   0.01267  Uiso   1.00
O162   O     0.13040   0.85910   0.75330   0.01267  Uiso   1.00
O163   O     0.03060   0.91310   0.74910   0.01267  Uiso   1.00
O164   O     0.10110   0.92110   0.67120   0.01267  Uiso   1.00
O165   O     0.94710   0.88010   0.72360   0.01267  Uiso   1.00
O166   O     0.00700   0.87330   0.64430   0.01267  Uiso   1.00
O167   O     0.99840   0.72930   0.67850   0.01267  Uiso   1.00
O168   O     0.03100   0.67630   0.74810   0.01267  Uiso   1.00
O169   O     0.94500   0.59630   0.72690   0.01267  Uiso   1.00
O170   O     0.08230   0.83410   0.63640   0.01267  Uiso   1.00
O171   O     0.12110   0.77530   0.71640   0.01267  Uiso   1.00
O172   O     0.82920   0.67370   0.92550   0.01267  Uiso   1.00
O173   O     0.91840   0.72000   0.93820   0.01267  Uiso   1.00
O174   O     0.87000   0.80120   0.83880   0.01267  Uiso   1.00
O175   O     0.95390   0.83090   0.86360   0.01267  Uiso   1.00
O176   O     0.94750   0.93330   0.79480   0.01267  Uiso   1.00
O177   O     0.76280   0.70070   0.86850   0.01267  Uiso   1.00
O178   O     0.72200   0.57220   0.94600   0.01267  Uiso   1.00
O179   O     0.19000   0.89950   0.63910   0.01267  Uiso   1.00
O180   O     0.22460   0.84290   0.72910   0.01267  Uiso   1.00
O181   O     0.42220   0.15900   0.42920   0.01267  Uiso   1.00
O182   O     0.48790   0.15130   0.36440   0.01267  Uiso   1.00
O183   O     0.33390   0.10850   0.39640   0.01267  Uiso   1.00
O184   O     0.40500   0.10770   0.32790   0.01267  Uiso   1.00
O185   O     0.51550   0.27460   0.38990   0.01267  Uiso   1.00
O186   O     0.57520   0.25290   0.32910   0.01267  Uiso   1.00
O187   O     0.56140   0.38310   0.30770   0.01267  Uiso   1.00
O188   O     0.62380   0.37240   0.24160   0.01267  Uiso   1.00
O189   O     0.53080   0.43560   0.22100   0.01267  Uiso   1.00
O190   O     0.59890   0.41760   0.16030   0.01267  Uiso   1.00
O191   O     0.45980   0.39580   0.18480   0.01267  Uiso   1.00
O192   O     0.52130   0.38370   0.11960   0.01267  Uiso   1.00
O193   O     0.36750   0.27970   0.21940   0.01267  Uiso   1.00
O194   O     0.43000   0.27230   0.14890   0.01267  Uiso   1.00
O195   O     0.31700   0.17070   0.30290   0.01267  Uiso   1.00
O196   O     0.38370   0.15130   0.24300   0.01267  Uiso   1.00
O197   O     0.51910   0.17690   0.25160   0.01267  Uiso   1.00
O198   O     0.60470   0.27910   0.21900   0.01267  Uiso   1.00
O199   O     0.59870   0.17190   0.30500   0.01267  Uiso   1.00
O200   O     0.49820   0.21870   0.16770   0.01267  Uiso   1.00
O201   O     0.59580   0.33750   0.12890   0.01267  Uiso   1.00
O202   O     0.40550   0.25470   0.42080   0.01267  Uiso   1.00
O203   O     0.44840   0.35660   0.33160   0.01267  Uiso   1.00
O204   O     0.31880   0.20880   0.38000   0.01267  Uiso   1.00
O205   O     0.37300   0.31750   0.29610   0.01267  Uiso   1.00
O206   O     0.26420   0.24230   0.30250   0.01267  Uiso   1.00
O207   O     0.31210   0.13130   0.48720   0.01267  Uiso   1.00
O208   O     0.39980   0.16800   0.52800   0.01267  Uiso   1.00
O209   O     0.54050   0.32910   0.06000   0.01267  Uiso   1.00
O210   O     0.63170   0.45370   0.02540   0.01267  Uiso   1.00
O211   O     0.41180   0.84100   0.73680   0.01267  Uiso   1.00
O212   O     0.48430   0.84870   0.66340   0.01267  Uiso   1.00
O213   O     0.49510   0.89150   0.77460   0.01267  Uiso   1.00
O214   O     0.56440   0.89230   0.70270   0.01267  Uiso   1.00
O215   O     0.33550   0.72540   0.75910   0.01267  Uiso   1.00
O216   O     0.41800   0.74710   0.67770   0.01267  Uiso   1.00
O217   O     0.30920   0.61690   0.82170   0.01267  Uiso   1.00
O218   O     0.38600   0.62760   0.74860   0.01267  Uiso   1.00
O219   O     0.34340   0.56440   0.90480   0.01267  Uiso   1.00
O220   O     0.42210   0.58240   0.81870   0.01267  Uiso   1.00
O221   O     0.41940   0.60420   0.93600   0.01267  Uiso   1.00
O222   O     0.49670   0.61630   0.86240   0.01267  Uiso   1.00
O223   O     0.50090   0.72030   0.91220   0.01267  Uiso   1.00
O224   O     0.57880   0.72770   0.84230   0.01267  Uiso   1.00
O225   O     0.52640   0.82930   0.85370   0.01267  Uiso   1.00
O226   O     0.60570   0.84870   0.76760   0.01267  Uiso   1.00
O227   O     0.57150   0.82310   0.65780   0.01267  Uiso   1.00
O228   O     0.50190   0.72090   0.67440   0.01267  Uiso   1.00
O229   O     0.52310   0.82810   0.57320   0.01267  Uiso   1.00
O230   O     0.61360   0.78130   0.72050   0.01267  Uiso   1.00
O231   O     0.53360   0.66250   0.74170   0.01267  Uiso   1.00
O232   O     0.32450   0.74530   0.84920   0.01267  Uiso   1.00
O233   O     0.31180   0.64340   0.90820   0.01267  Uiso   1.00
O234   O     0.41120   0.79120   0.89000   0.01267  Uiso   1.00
O235   O     0.38640   0.68250   0.94450   0.01267  Uiso   1.00
O236   O     0.45520   0.75770   0.97810   0.01267  Uiso   1.00
O237   O     0.38150   0.86870   0.81920   0.01267  Uiso   1.00
O238   O     0.30400   0.83200   0.76820   0.01267  Uiso   1.00
O239   O     0.61090   0.67090   0.78860   0.01267  Uiso   1.00
O240   O     0.52090   0.54630   0.82200   0.01267  Uiso   1.00
