data_FERGUG_charged
_audit_creation_date              2014-07-02
_audit_creation_method            'Materials Studio'
_symmetry_space_group_name_H-M    'P1'
_symmetry_Int_Tables_number       1
_symmetry_cell_setting            triclinic
loop_
_symmetry_equiv_pos_as_xyz
  x,y,z
_cell_length_a                    22.3139
_cell_length_b                    22.3139
_cell_length_c                    26.7498
_cell_angle_alpha                 65.3492
_cell_angle_beta                  65.3492
_cell_angle_gamma                 89.9999
loop_
_atom_site_label
_atom_site_type_symbol
_atom_site_fract_x
_atom_site_fract_y
_atom_site_fract_z
_atom_site_U_iso_or_equiv
_atom_site_adp_type
_atom_site_occupancy
Cd1    Cd    0.80801   0.81038   0.64780   0.01267  Uiso   1.00
Cd2    Cd    0.54419   0.54181   0.64781   0.01267  Uiso   1.00
Cd3    Cd    0.18962   0.45581   0.35220   0.01267  Uiso   1.00
Cd4    Cd    0.45818   0.19199   0.35220   0.01267  Uiso   1.00
Cd5    Cd    0.20581   0.43962   0.85220   0.01267  Uiso   1.00
Cd6    Cd    0.94199   0.70818   0.85220   0.01267  Uiso   1.00
Cd7    Cd    0.29181   0.79419   0.14781   0.01267  Uiso   1.00
Cd8    Cd    0.56038   0.05801   0.14780   0.01267  Uiso   1.00
Cd9    Cd    0.87500   0.76164   0.75000   0.01267  Uiso   1.00
Cd10   Cd    0.37500   0.48836   0.75000   0.01267  Uiso   1.00
Cd11   Cd    0.23836   0.62500   0.25000   0.01267  Uiso   1.00
Cd12   Cd    0.51164   0.12500   0.25000   0.01267  Uiso   1.00
H1     H     0.70150   0.79050   0.53460   0.01267  Uiso   1.00
H2     H     0.76290   0.01280   0.38580   0.01267  Uiso   1.00
H3     H     0.80030   0.97850   0.46100   0.01267  Uiso   1.00
H4     H     0.61230   0.06430   0.30420   0.01267  Uiso   1.00
H5     H     0.68090   0.91790   0.25840   0.01267  Uiso   1.00
H6     H     0.71970   0.88350   0.33160   0.01267  Uiso   1.00
H7     H     0.59690   0.71960   0.49140   0.01267  Uiso   1.00
H8     H     0.60450   0.73460   0.54220   0.01267  Uiso   1.00
H9     H     0.66810   0.72330   0.49220   0.01267  Uiso   1.00
H10    H     0.60320   0.09820   0.42280   0.01267  Uiso   1.00
H11    H     0.56410   0.07150   0.39520   0.01267  Uiso   1.00
H12    H     0.63550   0.12300   0.34980   0.01267  Uiso   1.00
H13    H     0.07300   0.87960   0.60260   0.01267  Uiso   1.00
H14    H     0.13760   0.86010   0.42360   0.01267  Uiso   1.00
H15    H     0.02290   0.83100   0.49440   0.01267  Uiso   1.00
H16    H     0.35110   0.06790   0.30600   0.01267  Uiso   1.00
H17    H     0.36850   0.87760   0.33600   0.01267  Uiso   1.00
H18    H     0.26110   0.83720   0.41940   0.01267  Uiso   1.00
H19    H     0.21420   0.96080   0.58320   0.01267  Uiso   1.00
H20    H     0.15350   0.89700   0.61860   0.01267  Uiso   1.00
H21    H     0.14370   0.97100   0.58200   0.01267  Uiso   1.00
H22    H     0.22800   0.13040   0.39320   0.01267  Uiso   1.00
H23    H     0.27200   0.13160   0.32760   0.01267  Uiso   1.00
H24    H     0.30170   0.11380   0.37600   0.01267  Uiso   1.00
H25    H     0.76390   0.67490   0.53460   0.01267  Uiso   1.00
H26    H     0.85130   0.60140   0.38580   0.01267  Uiso   1.00
H27    H     0.73870   0.56050   0.46100   0.01267  Uiso   1.00
H28    H     0.08350   0.63150   0.30420   0.01267  Uiso   1.00
H29    H     0.06070   0.82370   0.25840   0.01267  Uiso   1.00
H30    H     0.94870   0.78490   0.33160   0.01267  Uiso   1.00
H31    H     0.91170   0.78900   0.49140   0.01267  Uiso   1.00
H32    H     0.85330   0.72320   0.54220   0.01267  Uiso   1.00
H33    H     0.83970   0.78450   0.49220   0.01267  Uiso   1.00
H34    H     0.97400   0.47900   0.42280   0.01267  Uiso   1.00
H35    H     0.04070   0.53330   0.39520   0.01267  Uiso   1.00
H36    H     0.01470   0.52720   0.34980   0.01267  Uiso   1.00
H37    H     0.32440   0.51780   0.60260   0.01267  Uiso   1.00
H38    H     0.43880   0.71630   0.42360   0.01267  Uiso   1.00
H39    H     0.48270   0.67460   0.49440   0.01267  Uiso   1.00
H40    H     0.34290   0.62610   0.30600   0.01267  Uiso   1.00
H41    H     0.29550   0.78640   0.33600   0.01267  Uiso   1.00
H42    H     0.31950   0.74340   0.41940   0.01267  Uiso   1.00
H43    H     0.20260   0.45600   0.58320   0.01267  Uiso   1.00
H44    H     0.22790   0.48440   0.61860   0.01267  Uiso   1.00
H45    H     0.27430   0.44700   0.58200   0.01267  Uiso   1.00
H46    H     0.37880   0.47640   0.39320   0.01267  Uiso   1.00
H47    H     0.40040   0.54080   0.32760   0.01267  Uiso   1.00
H48    H     0.32230   0.51020   0.37600   0.01267  Uiso   1.00
H49    H     0.20950   0.23610   0.46540   0.01267  Uiso   1.00
H50    H     0.98720   0.14870   0.61420   0.01267  Uiso   1.00
H51    H     0.02150   0.26130   0.53900   0.01267  Uiso   1.00
H52    H     0.93570   0.91650   0.69580   0.01267  Uiso   1.00
H53    H     0.08210   0.93930   0.74160   0.01267  Uiso   1.00
H54    H     0.11650   0.05130   0.66840   0.01267  Uiso   1.00
H55    H     0.28040   0.08830   0.50860   0.01267  Uiso   1.00
H56    H     0.26540   0.14670   0.45780   0.01267  Uiso   1.00
H57    H     0.27670   0.16030   0.50780   0.01267  Uiso   1.00
H58    H     0.90180   0.02600   0.57720   0.01267  Uiso   1.00
H59    H     0.92850   0.95930   0.60480   0.01267  Uiso   1.00
H60    H     0.87700   0.98530   0.65020   0.01267  Uiso   1.00
H61    H     0.12040   0.67560   0.39740   0.01267  Uiso   1.00
H62    H     0.13990   0.56120   0.57640   0.01267  Uiso   1.00
H63    H     0.16900   0.51730   0.50560   0.01267  Uiso   1.00
H64    H     0.93210   0.65710   0.69400   0.01267  Uiso   1.00
H65    H     0.12240   0.70450   0.66400   0.01267  Uiso   1.00
H66    H     0.16280   0.68050   0.58060   0.01267  Uiso   1.00
H67    H     0.03920   0.79740   0.41680   0.01267  Uiso   1.00
H68    H     0.10300   0.77210   0.38140   0.01267  Uiso   1.00
H69    H     0.02900   0.72570   0.41800   0.01267  Uiso   1.00
H70    H     0.86960   0.62120   0.60680   0.01267  Uiso   1.00
H71    H     0.86840   0.59960   0.67240   0.01267  Uiso   1.00
H72    H     0.88620   0.67770   0.62400   0.01267  Uiso   1.00
H73    H     0.32510   0.29850   0.46540   0.01267  Uiso   1.00
H74    H     0.39860   0.23710   0.61420   0.01267  Uiso   1.00
H75    H     0.43950   0.19970   0.53900   0.01267  Uiso   1.00
H76    H     0.36850   0.38770   0.69580   0.01267  Uiso   1.00
H77    H     0.17630   0.31910   0.74160   0.01267  Uiso   1.00
H78    H     0.21510   0.28030   0.66840   0.01267  Uiso   1.00
H79    H     0.21100   0.40310   0.50860   0.01267  Uiso   1.00
H80    H     0.27680   0.39550   0.45780   0.01267  Uiso   1.00
H81    H     0.21550   0.33190   0.50780   0.01267  Uiso   1.00
H82    H     0.52100   0.39680   0.57720   0.01267  Uiso   1.00
H83    H     0.46670   0.43590   0.60480   0.01267  Uiso   1.00
H84    H     0.47280   0.36450   0.65020   0.01267  Uiso   1.00
H85    H     0.48220   0.92700   0.39740   0.01267  Uiso   1.00
H86    H     0.28370   0.86240   0.57640   0.01267  Uiso   1.00
H87    H     0.32540   0.97710   0.50560   0.01267  Uiso   1.00
H88    H     0.37390   0.64890   0.69400   0.01267  Uiso   1.00
H89    H     0.21360   0.63150   0.66400   0.01267  Uiso   1.00
H90    H     0.25660   0.73890   0.58060   0.01267  Uiso   1.00
H91    H     0.54400   0.78580   0.41680   0.01267  Uiso   1.00
H92    H     0.51560   0.84650   0.38140   0.01267  Uiso   1.00
H93    H     0.55300   0.85630   0.41800   0.01267  Uiso   1.00
H94    H     0.52360   0.77200   0.60680   0.01267  Uiso   1.00
H95    H     0.45920   0.72800   0.67240   0.01267  Uiso   1.00
H96    H     0.48980   0.69830   0.62400   0.01267  Uiso   1.00
H97    H     0.98610   0.45950   0.96540   0.01267  Uiso   1.00
H98    H     0.89870   0.23720   0.11420   0.01267  Uiso   1.00
H99    H     0.01130   0.27150   0.03900   0.01267  Uiso   1.00
H100   H     0.66650   0.18570   0.19580   0.01267  Uiso   1.00
H101   H     0.68930   0.33210   0.24160   0.01267  Uiso   1.00
H102   H     0.80130   0.36650   0.16840   0.01267  Uiso   1.00
H103   H     0.83830   0.53040   0.00860   0.01267  Uiso   1.00
H104   H     0.89670   0.51540   0.95780   0.01267  Uiso   1.00
H105   H     0.91030   0.52670   0.00780   0.01267  Uiso   1.00
H106   H     0.77600   0.15180   0.07720   0.01267  Uiso   1.00
H107   H     0.70930   0.17850   0.10480   0.01267  Uiso   1.00
H108   H     0.73530   0.12700   0.15020   0.01267  Uiso   1.00
H109   H     0.42560   0.37040   0.89740   0.01267  Uiso   1.00
H110   H     0.31120   0.38990   0.07640   0.01267  Uiso   1.00
H111   H     0.26730   0.41900   0.00560   0.01267  Uiso   1.00
H112   H     0.40710   0.18210   0.19400   0.01267  Uiso   1.00
H113   H     0.45450   0.37240   0.16400   0.01267  Uiso   1.00
H114   H     0.43050   0.41280   0.08060   0.01267  Uiso   1.00
H115   H     0.54740   0.28920   0.91680   0.01267  Uiso   1.00
H116   H     0.52210   0.35300   0.88140   0.01267  Uiso   1.00
H117   H     0.47570   0.27900   0.91800   0.01267  Uiso   1.00
H118   H     0.37120   0.11960   0.10680   0.01267  Uiso   1.00
H119   H     0.34960   0.11840   0.17240   0.01267  Uiso   1.00
H120   H     0.42770   0.13620   0.12400   0.01267  Uiso   1.00
H121   H     0.04850   0.57510   0.96540   0.01267  Uiso   1.00
H122   H     0.98710   0.64860   0.11420   0.01267  Uiso   1.00
H123   H     0.94970   0.68950   0.03900   0.01267  Uiso   1.00
H124   H     0.13770   0.61850   0.19580   0.01267  Uiso   1.00
H125   H     0.06910   0.42630   0.24160   0.01267  Uiso   1.00
H126   H     0.03030   0.46510   0.16840   0.01267  Uiso   1.00
H127   H     0.15310   0.46100   0.00860   0.01267  Uiso   1.00
H128   H     0.14550   0.52680   0.95780   0.01267  Uiso   1.00
H129   H     0.08190   0.46550   0.00780   0.01267  Uiso   1.00
H130   H     0.14680   0.77100   0.07720   0.01267  Uiso   1.00
H131   H     0.18590   0.71670   0.10480   0.01267  Uiso   1.00
H132   H     0.11450   0.72280   0.15020   0.01267  Uiso   1.00
H133   H     0.67700   0.73220   0.89740   0.01267  Uiso   1.00
H134   H     0.61240   0.53370   0.07640   0.01267  Uiso   1.00
H135   H     0.72710   0.57540   0.00560   0.01267  Uiso   1.00
H136   H     0.39890   0.62390   0.19400   0.01267  Uiso   1.00
H137   H     0.38150   0.46360   0.16400   0.01267  Uiso   1.00
H138   H     0.48890   0.50660   0.08060   0.01267  Uiso   1.00
H139   H     0.53580   0.79400   0.91680   0.01267  Uiso   1.00
H140   H     0.59650   0.76560   0.88140   0.01267  Uiso   1.00
H141   H     0.60630   0.80300   0.91800   0.01267  Uiso   1.00
H142   H     0.52200   0.77360   0.10680   0.01267  Uiso   1.00
H143   H     0.47800   0.70920   0.17240   0.01267  Uiso   1.00
H144   H     0.44830   0.73980   0.12400   0.01267  Uiso   1.00
H145   H     0.42490   0.01390   0.03460   0.01267  Uiso   1.00
H146   H     0.35140   0.10130   0.88580   0.01267  Uiso   1.00
H147   H     0.31050   0.98870   0.96100   0.01267  Uiso   1.00
H148   H     0.38150   0.33350   0.80420   0.01267  Uiso   1.00
H149   H     0.57370   0.31070   0.75840   0.01267  Uiso   1.00
H150   H     0.53490   0.19870   0.83160   0.01267  Uiso   1.00
H151   H     0.53900   0.16170   0.99140   0.01267  Uiso   1.00
H152   H     0.47320   0.10330   0.04220   0.01267  Uiso   1.00
H153   H     0.53450   0.08970   0.99220   0.01267  Uiso   1.00
H154   H     0.22900   0.22400   0.92280   0.01267  Uiso   1.00
H155   H     0.28330   0.29070   0.89520   0.01267  Uiso   1.00
H156   H     0.27720   0.26470   0.84980   0.01267  Uiso   1.00
H157   H     0.26780   0.57440   0.10260   0.01267  Uiso   1.00
H158   H     0.46630   0.68880   0.92360   0.01267  Uiso   1.00
H159   H     0.42460   0.73270   0.99440   0.01267  Uiso   1.00
H160   H     0.37610   0.59290   0.80600   0.01267  Uiso   1.00
H161   H     0.53640   0.54550   0.83600   0.01267  Uiso   1.00
H162   H     0.49340   0.56950   0.91940   0.01267  Uiso   1.00
H163   H     0.20600   0.45260   0.08320   0.01267  Uiso   1.00
H164   H     0.23440   0.47790   0.11860   0.01267  Uiso   1.00
H165   H     0.19700   0.52430   0.08200   0.01267  Uiso   1.00
H166   H     0.22640   0.62880   0.89320   0.01267  Uiso   1.00
H167   H     0.29080   0.65040   0.82760   0.01267  Uiso   1.00
H168   H     0.26020   0.57230   0.87600   0.01267  Uiso   1.00
H169   H     0.54050   0.95150   0.03460   0.01267  Uiso   1.00
H170   H     0.76280   0.01290   0.88580   0.01267  Uiso   1.00
H171   H     0.72850   0.05030   0.96100   0.01267  Uiso   1.00
H172   H     0.81430   0.86230   0.80420   0.01267  Uiso   1.00
H173   H     0.66790   0.93090   0.75840   0.01267  Uiso   1.00
H174   H     0.63350   0.96970   0.83160   0.01267  Uiso   1.00
H175   H     0.46960   0.84690   0.99140   0.01267  Uiso   1.00
H176   H     0.48460   0.85450   0.04220   0.01267  Uiso   1.00
H177   H     0.47330   0.91810   0.99220   0.01267  Uiso   1.00
H178   H     0.84820   0.85320   0.92280   0.01267  Uiso   1.00
H179   H     0.82150   0.81410   0.89520   0.01267  Uiso   1.00
H180   H     0.87300   0.88550   0.84980   0.01267  Uiso   1.00
H181   H     0.62960   0.32300   0.10260   0.01267  Uiso   1.00
H182   H     0.61010   0.38760   0.92360   0.01267  Uiso   1.00
H183   H     0.58100   0.27290   0.99440   0.01267  Uiso   1.00
H184   H     0.81790   0.60110   0.80600   0.01267  Uiso   1.00
H185   H     0.62760   0.61850   0.83600   0.01267  Uiso   1.00
H186   H     0.58720   0.51110   0.91940   0.01267  Uiso   1.00
H187   H     0.71080   0.46420   0.08320   0.01267  Uiso   1.00
H188   H     0.64700   0.40350   0.11860   0.01267  Uiso   1.00
H189   H     0.72100   0.39370   0.08200   0.01267  Uiso   1.00
H190   H     0.88040   0.47800   0.89320   0.01267  Uiso   1.00
H191   H     0.88160   0.52200   0.82760   0.01267  Uiso   1.00
H192   H     0.86380   0.55170   0.87600   0.01267  Uiso   1.00
C1     C     0.77440   0.85570   0.55520   0.01267  Uiso   1.00
C2     C     0.75440   0.88240   0.50500   0.01267  Uiso   1.00
C3     C     0.71340   0.83660   0.50480   0.01267  Uiso   1.00
C4     C     0.68860   0.85760   0.46060   0.01267  Uiso   1.00
C5     C     0.70747   0.92327   0.41546   0.01267  Uiso   1.00
C6     C     0.74900   0.96700   0.41640   0.01267  Uiso   1.00
C7     C     0.77190   0.94630   0.46160   0.01267  Uiso   1.00
C8     C     0.68404   0.94694   0.36672   0.01267  Uiso   1.00
C9     C     0.65180   0.00270   0.35740   0.01267  Uiso   1.00
C10    C     0.63216   0.02586   0.31128   0.01267  Uiso   1.00
C11    C     0.64133   0.99263   0.27474   0.01267  Uiso   1.00
C12    C     0.67350   0.94010   0.28340   0.01267  Uiso   1.00
C13    C     0.69570   0.91890   0.32780   0.01267  Uiso   1.00
C14    C     0.61699   0.01709   0.22722   0.01267  Uiso   1.00
C15    C     0.62730   0.74200   0.49920   0.01267  Uiso   1.00
C16    C     0.60850   0.08490   0.39080   0.01267  Uiso   1.00
C17    C     0.96540   0.82700   0.60600   0.01267  Uiso   1.00
C18    C     0.03704   0.85244   0.55572   0.01267  Uiso   1.00
C19    C     0.08511   0.87841   0.56458   0.01267  Uiso   1.00
C20    C     0.15030   0.90270   0.51940   0.01267  Uiso   1.00
C21    C     0.16970   0.89910   0.46560   0.01267  Uiso   1.00
C22    C     0.12340   0.86810   0.45860   0.01267  Uiso   1.00
C23    C     0.05560   0.84780   0.50200   0.01267  Uiso   1.00
C24    C     0.24120   0.92800   0.41120   0.01267  Uiso   1.00
C25    C     0.26880   0.99690   0.37760   0.01267  Uiso   1.00
C26    C     0.33209   0.02079   0.32802   0.01267  Uiso   1.00
C27    C     0.36794   0.97784   0.30992   0.01267  Uiso   1.00
C28    C     0.34230   0.90830   0.34580   0.01267  Uiso   1.00
C29    C     0.27890   0.88450   0.39560   0.01267  Uiso   1.00
C30    C     0.43590   0.00780   0.25200   0.01267  Uiso   1.00
C31    C     0.17590   0.94110   0.58200   0.01267  Uiso   1.00
C32    C     0.26070   0.10930   0.37160   0.01267  Uiso   1.00
C33    C     0.67040   0.58910   0.55520   0.01267  Uiso   1.00
C34    C     0.74060   0.61260   0.50500   0.01267  Uiso   1.00
C35    C     0.78180   0.65860   0.50480   0.01267  Uiso   1.00
C36    C     0.85080   0.68180   0.46060   0.01267  Uiso   1.00
C37    C     0.87707   0.66127   0.41546   0.01267  Uiso   1.00
C38    C     0.83460   0.61660   0.41640   0.01267  Uiso   1.00
C39    C     0.76650   0.59210   0.46160   0.01267  Uiso   1.00
C40    C     0.94924   0.68634   0.36672   0.01267  Uiso   1.00
C41    C     0.99080   0.63990   0.35740   0.01267  Uiso   1.00
C42    C     0.05656   0.66286   0.31128   0.01267  Uiso   1.00
C43    C     0.08393   0.73263   0.27474   0.01267  Uiso   1.00
C44    C     0.04310   0.77650   0.28340   0.01267  Uiso   1.00
C45    C     0.97650   0.75330   0.32780   0.01267  Uiso   1.00
C46    C     0.15579   0.75569   0.22722   0.01267  Uiso   1.00
C47    C     0.87350   0.75880   0.49920   0.01267  Uiso   1.00
C48    C     0.00070   0.52430   0.39080   0.01267  Uiso   1.00
C49    C     0.42860   0.56700   0.60600   0.01267  Uiso   1.00
C50    C     0.40724   0.59184   0.55572   0.01267  Uiso   1.00
C51    C     0.35031   0.55701   0.56458   0.01267  Uiso   1.00
C52    C     0.33030   0.57790   0.51940   0.01267  Uiso   1.00
C53    C     0.36470   0.63530   0.46560   0.01267  Uiso   1.00
C54    C     0.41800   0.67330   0.45860   0.01267  Uiso   1.00
C55    C     0.44240   0.65020   0.50200   0.01267  Uiso   1.00
C56    C     0.34760   0.66080   0.41120   0.01267  Uiso   1.00
C57    C     0.35360   0.62550   0.37760   0.01267  Uiso   1.00
C58    C     0.33989   0.65119   0.32802   0.01267  Uiso   1.00
C59    C     0.32214   0.71224   0.30992   0.01267  Uiso   1.00
C60    C     0.31190   0.74590   0.34580   0.01267  Uiso   1.00
C61    C     0.32550   0.71990   0.39560   0.01267  Uiso   1.00
C62    C     0.31210   0.74020   0.25200   0.01267  Uiso   1.00
C63    C     0.24210   0.47690   0.58200   0.01267  Uiso   1.00
C64    C     0.36770   0.51910   0.37160   0.01267  Uiso   1.00
C65    C     0.14430   0.32960   0.44480   0.01267  Uiso   1.00
C66    C     0.11760   0.25940   0.49500   0.01267  Uiso   1.00
C67    C     0.16340   0.21820   0.49520   0.01267  Uiso   1.00
C68    C     0.14240   0.14920   0.53940   0.01267  Uiso   1.00
C69    C     0.07673   0.12293   0.58454   0.01267  Uiso   1.00
C70    C     0.03300   0.16540   0.58360   0.01267  Uiso   1.00
C71    C     0.05370   0.23350   0.53840   0.01267  Uiso   1.00
C72    C     0.05306   0.05076   0.63328   0.01267  Uiso   1.00
C73    C     0.99730   0.00920   0.64260   0.01267  Uiso   1.00
C74    C     0.97414   0.94344   0.68872   0.01267  Uiso   1.00
C75    C     0.00737   0.91607   0.72526   0.01267  Uiso   1.00
C76    C     0.05990   0.95690   0.71660   0.01267  Uiso   1.00
C77    C     0.08110   0.02350   0.67220   0.01267  Uiso   1.00
C78    C     0.98291   0.84421   0.77278   0.01267  Uiso   1.00
C79    C     0.25800   0.12650   0.50080   0.01267  Uiso   1.00
C80    C     0.91510   0.99930   0.60920   0.01267  Uiso   1.00
C81    C     0.17300   0.57140   0.39400   0.01267  Uiso   1.00
C82    C     0.14756   0.59276   0.44428   0.01267  Uiso   1.00
C83    C     0.12159   0.64969   0.43542   0.01267  Uiso   1.00
C84    C     0.09730   0.66970   0.48060   0.01267  Uiso   1.00
C85    C     0.10090   0.63530   0.53440   0.01267  Uiso   1.00
C86    C     0.13190   0.58200   0.54140   0.01267  Uiso   1.00
C87    C     0.15220   0.55760   0.49800   0.01267  Uiso   1.00
C88    C     0.07200   0.65240   0.58880   0.01267  Uiso   1.00
C89    C     0.00310   0.64640   0.62240   0.01267  Uiso   1.00
C90    C     0.97921   0.66011   0.67198   0.01267  Uiso   1.00
C91    C     0.02216   0.67786   0.69008   0.01267  Uiso   1.00
C92    C     0.09170   0.68810   0.65420   0.01267  Uiso   1.00
C93    C     0.11550   0.67450   0.60440   0.01267  Uiso   1.00
C94    C     0.99220   0.68790   0.74800   0.01267  Uiso   1.00
C95    C     0.05890   0.75790   0.41800   0.01267  Uiso   1.00
C96    C     0.89070   0.63230   0.62840   0.01267  Uiso   1.00
C97    C     0.41090   0.22560   0.44480   0.01267  Uiso   1.00
C98    C     0.38740   0.24560   0.49500   0.01267  Uiso   1.00
C99    C     0.34140   0.28660   0.49520   0.01267  Uiso   1.00
C100   C     0.31820   0.31140   0.53940   0.01267  Uiso   1.00
C101   C     0.33873   0.29253   0.58454   0.01267  Uiso   1.00
C102   C     0.38340   0.25100   0.58360   0.01267  Uiso   1.00
C103   C     0.40790   0.22810   0.53840   0.01267  Uiso   1.00
C104   C     0.31366   0.31596   0.63328   0.01267  Uiso   1.00
C105   C     0.36010   0.34820   0.64260   0.01267  Uiso   1.00
C106   C     0.33714   0.36784   0.68872   0.01267  Uiso   1.00
C107   C     0.26737   0.35867   0.72526   0.01267  Uiso   1.00
C108   C     0.22350   0.32650   0.71660   0.01267  Uiso   1.00
C109   C     0.24670   0.30430   0.67220   0.01267  Uiso   1.00
C110   C     0.24431   0.38301   0.77278   0.01267  Uiso   1.00
C111   C     0.24120   0.37270   0.50080   0.01267  Uiso   1.00
C112   C     0.47570   0.39150   0.60920   0.01267  Uiso   1.00
C113   C     0.43300   0.03460   0.39400   0.01267  Uiso   1.00
C114   C     0.40816   0.96296   0.44428   0.01267  Uiso   1.00
C115   C     0.44299   0.91489   0.43542   0.01267  Uiso   1.00
C116   C     0.42210   0.84970   0.48060   0.01267  Uiso   1.00
C117   C     0.36470   0.83030   0.53440   0.01267  Uiso   1.00
C118   C     0.32670   0.87660   0.54140   0.01267  Uiso   1.00
C119   C     0.34980   0.94440   0.49800   0.01267  Uiso   1.00
C120   C     0.33920   0.75880   0.58880   0.01267  Uiso   1.00
C121   C     0.37450   0.73120   0.62240   0.01267  Uiso   1.00
C122   C     0.34881   0.66791   0.67198   0.01267  Uiso   1.00
C123   C     0.28776   0.63206   0.69008   0.01267  Uiso   1.00
C124   C     0.25410   0.65770   0.65420   0.01267  Uiso   1.00
C125   C     0.28010   0.72110   0.60440   0.01267  Uiso   1.00
C126   C     0.25980   0.56410   0.74800   0.01267  Uiso   1.00
C127   C     0.52310   0.82410   0.41800   0.01267  Uiso   1.00
C128   C     0.48090   0.73930   0.62840   0.01267  Uiso   1.00
C129   C     0.07960   0.39430   0.94480   0.01267  Uiso   1.00
C130   C     0.00940   0.36760   0.99500   0.01267  Uiso   1.00
C131   C     0.96820   0.41340   0.99520   0.01267  Uiso   1.00
C132   C     0.89920   0.39240   0.03940   0.01267  Uiso   1.00
C133   C     0.87293   0.32673   0.08454   0.01267  Uiso   1.00
C134   C     0.91540   0.28300   0.08360   0.01267  Uiso   1.00
C135   C     0.98350   0.30370   0.03840   0.01267  Uiso   1.00
C136   C     0.80076   0.30306   0.13328   0.01267  Uiso   1.00
C137   C     0.75920   0.24730   0.14260   0.01267  Uiso   1.00
C138   C     0.69344   0.22414   0.18872   0.01267  Uiso   1.00
C139   C     0.66607   0.25737   0.22526   0.01267  Uiso   1.00
C140   C     0.70690   0.30990   0.21660   0.01267  Uiso   1.00
C141   C     0.77350   0.33110   0.17220   0.01267  Uiso   1.00
C142   C     0.59421   0.23291   0.27278   0.01267  Uiso   1.00
C143   C     0.87650   0.50800   0.00080   0.01267  Uiso   1.00
C144   C     0.74930   0.16510   0.10920   0.01267  Uiso   1.00
C145   C     0.32140   0.42300   0.89400   0.01267  Uiso   1.00
C146   C     0.34276   0.39756   0.94428   0.01267  Uiso   1.00
C147   C     0.39969   0.37159   0.93542   0.01267  Uiso   1.00
C148   C     0.41970   0.34730   0.98060   0.01267  Uiso   1.00
C149   C     0.38530   0.35090   0.03440   0.01267  Uiso   1.00
C150   C     0.33200   0.38190   0.04140   0.01267  Uiso   1.00
C151   C     0.30760   0.40220   0.99800   0.01267  Uiso   1.00
C152   C     0.40240   0.32200   0.08880   0.01267  Uiso   1.00
C153   C     0.39640   0.25310   0.12240   0.01267  Uiso   1.00
C154   C     0.41011   0.22921   0.17198   0.01267  Uiso   1.00
C155   C     0.42786   0.27216   0.19008   0.01267  Uiso   1.00
C156   C     0.43810   0.34170   0.15420   0.01267  Uiso   1.00
C157   C     0.42450   0.36550   0.10440   0.01267  Uiso   1.00
C158   C     0.43790   0.24220   0.24800   0.01267  Uiso   1.00
C159   C     0.50790   0.30890   0.91800   0.01267  Uiso   1.00
C160   C     0.38230   0.14070   0.12840   0.01267  Uiso   1.00
C161   C     0.97560   0.66090   0.94480   0.01267  Uiso   1.00
C162   C     0.99560   0.63740   0.99500   0.01267  Uiso   1.00
C163   C     0.03660   0.59140   0.99520   0.01267  Uiso   1.00
C164   C     0.06140   0.56820   0.03940   0.01267  Uiso   1.00
C165   C     0.04253   0.58873   0.08454   0.01267  Uiso   1.00
C166   C     0.00100   0.63340   0.08360   0.01267  Uiso   1.00
C167   C     0.97810   0.65790   0.03840   0.01267  Uiso   1.00
C168   C     0.06596   0.56366   0.13328   0.01267  Uiso   1.00
C169   C     0.09820   0.61010   0.14260   0.01267  Uiso   1.00
C170   C     0.11784   0.58714   0.18872   0.01267  Uiso   1.00
C171   C     0.10867   0.51737   0.22526   0.01267  Uiso   1.00
C172   C     0.07650   0.47350   0.21660   0.01267  Uiso   1.00
C173   C     0.05430   0.49670   0.17220   0.01267  Uiso   1.00
C174   C     0.13301   0.49431   0.27278   0.01267  Uiso   1.00
C175   C     0.12270   0.49120   0.00080   0.01267  Uiso   1.00
C176   C     0.14150   0.72570   0.10920   0.01267  Uiso   1.00
C177   C     0.78460   0.68300   0.89400   0.01267  Uiso   1.00
C178   C     0.71296   0.65816   0.94428   0.01267  Uiso   1.00
C179   C     0.66489   0.69299   0.93542   0.01267  Uiso   1.00
C180   C     0.59970   0.67210   0.98060   0.01267  Uiso   1.00
C181   C     0.58030   0.61470   0.03440   0.01267  Uiso   1.00
C182   C     0.62660   0.57670   0.04140   0.01267  Uiso   1.00
C183   C     0.69440   0.59980   0.99800   0.01267  Uiso   1.00
C184   C     0.50880   0.58920   0.08880   0.01267  Uiso   1.00
C185   C     0.48120   0.62450   0.12240   0.01267  Uiso   1.00
C186   C     0.41791   0.59881   0.17198   0.01267  Uiso   1.00
C187   C     0.38206   0.53776   0.19008   0.01267  Uiso   1.00
C188   C     0.40770   0.50410   0.15420   0.01267  Uiso   1.00
C189   C     0.47110   0.53010   0.10440   0.01267  Uiso   1.00
C190   C     0.31410   0.50980   0.24800   0.01267  Uiso   1.00
C191   C     0.57410   0.77310   0.91800   0.01267  Uiso   1.00
C192   C     0.48930   0.73090   0.12840   0.01267  Uiso   1.00
C193   C     0.33910   0.92040   0.05520   0.01267  Uiso   1.00
C194   C     0.36260   0.99060   0.00500   0.01267  Uiso   1.00
C195   C     0.40860   0.03180   0.00480   0.01267  Uiso   1.00
C196   C     0.43180   0.10080   0.96060   0.01267  Uiso   1.00
C197   C     0.41127   0.12707   0.91546   0.01267  Uiso   1.00
C198   C     0.36660   0.08460   0.91640   0.01267  Uiso   1.00
C199   C     0.34210   0.01650   0.96160   0.01267  Uiso   1.00
C200   C     0.43634   0.19924   0.86672   0.01267  Uiso   1.00
C201   C     0.38990   0.24080   0.85740   0.01267  Uiso   1.00
C202   C     0.41286   0.30656   0.81128   0.01267  Uiso   1.00
C203   C     0.48263   0.33393   0.77474   0.01267  Uiso   1.00
C204   C     0.52650   0.29310   0.78340   0.01267  Uiso   1.00
C205   C     0.50330   0.22650   0.82780   0.01267  Uiso   1.00
C206   C     0.50569   0.40579   0.72722   0.01267  Uiso   1.00
C207   C     0.50880   0.12350   0.99920   0.01267  Uiso   1.00
C208   C     0.27430   0.25070   0.89080   0.01267  Uiso   1.00
C209   C     0.31700   0.67860   0.10600   0.01267  Uiso   1.00
C210   C     0.34184   0.65724   0.05572   0.01267  Uiso   1.00
C211   C     0.30701   0.60031   0.06458   0.01267  Uiso   1.00
C212   C     0.32790   0.58030   0.01940   0.01267  Uiso   1.00
C213   C     0.38530   0.61470   0.96560   0.01267  Uiso   1.00
C214   C     0.42330   0.66800   0.95860   0.01267  Uiso   1.00
C215   C     0.40020   0.69240   0.00200   0.01267  Uiso   1.00
C216   C     0.41080   0.59760   0.91120   0.01267  Uiso   1.00
C217   C     0.37550   0.60360   0.87760   0.01267  Uiso   1.00
C218   C     0.40119   0.58989   0.82802   0.01267  Uiso   1.00
C219   C     0.46224   0.57214   0.80992   0.01267  Uiso   1.00
C220   C     0.49590   0.56190   0.84580   0.01267  Uiso   1.00
C221   C     0.46990   0.57550   0.89560   0.01267  Uiso   1.00
C222   C     0.49020   0.56210   0.75200   0.01267  Uiso   1.00
C223   C     0.22690   0.49210   0.08200   0.01267  Uiso   1.00
C224   C     0.26910   0.61770   0.87160   0.01267  Uiso   1.00
C225   C     0.60570   0.02440   0.05520   0.01267  Uiso   1.00
C226   C     0.63240   0.00440   0.00500   0.01267  Uiso   1.00
C227   C     0.58660   0.96340   0.00480   0.01267  Uiso   1.00
C228   C     0.60760   0.93860   0.96060   0.01267  Uiso   1.00
C229   C     0.67327   0.95747   0.91546   0.01267  Uiso   1.00
C230   C     0.71700   0.99900   0.91640   0.01267  Uiso   1.00
C231   C     0.69630   0.02190   0.96160   0.01267  Uiso   1.00
C232   C     0.69694   0.93404   0.86672   0.01267  Uiso   1.00
C233   C     0.75270   0.90180   0.85740   0.01267  Uiso   1.00
C234   C     0.77586   0.88216   0.81128   0.01267  Uiso   1.00
C235   C     0.74263   0.89133   0.77474   0.01267  Uiso   1.00
C236   C     0.69010   0.92350   0.78340   0.01267  Uiso   1.00
C237   C     0.66890   0.94570   0.82780   0.01267  Uiso   1.00
C238   C     0.76709   0.86699   0.72722   0.01267  Uiso   1.00
C239   C     0.49200   0.87730   0.99920   0.01267  Uiso   1.00
C240   C     0.83490   0.85850   0.89080   0.01267  Uiso   1.00
C241   C     0.57700   0.21540   0.10600   0.01267  Uiso   1.00
C242   C     0.60244   0.28704   0.05572   0.01267  Uiso   1.00
C243   C     0.62841   0.33511   0.06458   0.01267  Uiso   1.00
C244   C     0.65270   0.40030   0.01940   0.01267  Uiso   1.00
C245   C     0.64910   0.41970   0.96560   0.01267  Uiso   1.00
C246   C     0.61810   0.37340   0.95860   0.01267  Uiso   1.00
C247   C     0.59780   0.30560   0.00200   0.01267  Uiso   1.00
C248   C     0.67800   0.49120   0.91120   0.01267  Uiso   1.00
C249   C     0.74690   0.51880   0.87760   0.01267  Uiso   1.00
C250   C     0.77079   0.58209   0.82802   0.01267  Uiso   1.00
C251   C     0.72784   0.61794   0.80992   0.01267  Uiso   1.00
C252   C     0.65830   0.59230   0.84580   0.01267  Uiso   1.00
C253   C     0.63450   0.52890   0.89560   0.01267  Uiso   1.00
C254   C     0.75780   0.68590   0.75200   0.01267  Uiso   1.00
C255   C     0.69110   0.42590   0.08200   0.01267  Uiso   1.00
C256   C     0.85930   0.51070   0.87160   0.01267  Uiso   1.00
O1     O     0.81161   0.89801   0.55418   0.01267  Uiso   1.00
O2     O     0.75525   0.79875   0.59450   0.01267  Uiso   1.00
O3     O     0.61808   0.98318   0.20004   0.01267  Uiso   1.00
O4     O     0.59782   0.07242   0.21356   0.01267  Uiso   1.00
O5     O     0.64554   0.81364   0.45772   0.01267  Uiso   1.00
O6     O     0.64121   0.03051   0.39738   0.01267  Uiso   1.00
O7     O     0.91958   0.82078   0.59144   0.01267  Uiso   1.00
O8     O     0.95776   0.81536   0.65768   0.01267  Uiso   1.00
O9     O     0.46681   0.96511   0.23698   0.01267  Uiso   1.00
O10    O     0.45720   0.06760   0.22200   0.01267  Uiso   1.00
O11    O     0.19877   0.93287   0.52886   0.01267  Uiso   1.00
O12    O     0.23168   0.03868   0.39824   0.01267  Uiso   1.00
O13    O     0.63421   0.54781   0.55418   0.01267  Uiso   1.00
O14    O     0.65025   0.60675   0.59450   0.01267  Uiso   1.00
O15    O     0.18188   0.81678   0.20004   0.01267  Uiso   1.00
O16    O     0.18862   0.71402   0.21356   0.01267  Uiso   1.00
O17    O     0.89674   0.72864   0.45772   0.01267  Uiso   1.00
O18    O     0.96141   0.57211   0.39738   0.01267  Uiso   1.00
O19    O     0.48898   0.58778   0.59144   0.01267  Uiso   1.00
O20    O     0.38456   0.52696   0.65768   0.01267  Uiso   1.00
O21    O     0.29621   0.79791   0.23698   0.01267  Uiso   1.00
O22    O     0.32080   0.71040   0.22200   0.01267  Uiso   1.00
O23    O     0.27237   0.53827   0.52886   0.01267  Uiso   1.00
O24    O     0.37008   0.56308   0.39824   0.01267  Uiso   1.00
O25    O     0.10199   0.36579   0.44582   0.01267  Uiso   1.00
O26    O     0.20125   0.34975   0.40550   0.01267  Uiso   1.00
O27    O     0.01682   0.81812   0.79996   0.01267  Uiso   1.00
O28    O     0.92758   0.81138   0.78644   0.01267  Uiso   1.00
O29    O     0.18636   0.10326   0.54228   0.01267  Uiso   1.00
O30    O     0.96949   0.03859   0.60262   0.01267  Uiso   1.00
O31    O     0.17922   0.51102   0.40856   0.01267  Uiso   1.00
O32    O     0.18464   0.61544   0.34232   0.01267  Uiso   1.00
O33    O     0.03489   0.70379   0.76302   0.01267  Uiso   1.00
O34    O     0.93240   0.67920   0.77800   0.01267  Uiso   1.00
O35    O     0.06713   0.72763   0.47114   0.01267  Uiso   1.00
O36    O     0.96132   0.62992   0.60176   0.01267  Uiso   1.00
O37    O     0.45219   0.18839   0.44582   0.01267  Uiso   1.00
O38    O     0.39325   0.24475   0.40550   0.01267  Uiso   1.00
O39    O     0.18322   0.38192   0.79996   0.01267  Uiso   1.00
O40    O     0.28598   0.40218   0.78644   0.01267  Uiso   1.00
O41    O     0.27136   0.35446   0.54228   0.01267  Uiso   1.00
O42    O     0.42789   0.35879   0.60262   0.01267  Uiso   1.00
O43    O     0.41222   0.08042   0.40856   0.01267  Uiso   1.00
O44    O     0.47304   0.04224   0.34232   0.01267  Uiso   1.00
O45    O     0.20209   0.53319   0.76302   0.01267  Uiso   1.00
O46    O     0.28960   0.54280   0.77800   0.01267  Uiso   1.00
O47    O     0.46173   0.80123   0.47114   0.01267  Uiso   1.00
O48    O     0.43692   0.76832   0.60176   0.01267  Uiso   1.00
O49    O     0.11579   0.35199   0.94582   0.01267  Uiso   1.00
O50    O     0.09975   0.45125   0.90550   0.01267  Uiso   1.00
O51    O     0.56812   0.26682   0.29996   0.01267  Uiso   1.00
O52    O     0.56138   0.17758   0.28644   0.01267  Uiso   1.00
O53    O     0.85326   0.43636   0.04228   0.01267  Uiso   1.00
O54    O     0.78859   0.21949   0.10262   0.01267  Uiso   1.00
O55    O     0.26102   0.42922   0.90856   0.01267  Uiso   1.00
O56    O     0.36544   0.43464   0.84232   0.01267  Uiso   1.00
O57    O     0.45379   0.28489   0.26302   0.01267  Uiso   1.00
O58    O     0.42920   0.18240   0.27800   0.01267  Uiso   1.00
O59    O     0.47763   0.31713   0.97114   0.01267  Uiso   1.00
O60    O     0.37992   0.21132   0.10176   0.01267  Uiso   1.00
O61    O     0.93839   0.70219   0.94582   0.01267  Uiso   1.00
O62    O     0.99475   0.64325   0.90550   0.01267  Uiso   1.00
O63    O     0.13192   0.43322   0.29996   0.01267  Uiso   1.00
O64    O     0.15218   0.53598   0.28644   0.01267  Uiso   1.00
O65    O     0.10446   0.52136   0.04228   0.01267  Uiso   1.00
O66    O     0.10879   0.67789   0.10262   0.01267  Uiso   1.00
O67    O     0.83042   0.66222   0.90856   0.01267  Uiso   1.00
O68    O     0.79224   0.72304   0.84232   0.01267  Uiso   1.00
O69    O     0.28319   0.45209   0.26302   0.01267  Uiso   1.00
O70    O     0.29280   0.53960   0.27800   0.01267  Uiso   1.00
O71    O     0.55123   0.71173   0.97114   0.01267  Uiso   1.00
O72    O     0.51832   0.68692   0.10176   0.01267  Uiso   1.00
O73    O     0.29781   0.88421   0.05418   0.01267  Uiso   1.00
O74    O     0.35675   0.90025   0.09450   0.01267  Uiso   1.00
O75    O     0.56678   0.43188   0.70004   0.01267  Uiso   1.00
O76    O     0.46402   0.43862   0.71356   0.01267  Uiso   1.00
O77    O     0.47864   0.14674   0.95772   0.01267  Uiso   1.00
O78    O     0.32211   0.21141   0.89738   0.01267  Uiso   1.00
O79    O     0.33778   0.73898   0.09144   0.01267  Uiso   1.00
O80    O     0.27696   0.63456   0.15768   0.01267  Uiso   1.00
O81    O     0.54791   0.54621   0.73698   0.01267  Uiso   1.00
O82    O     0.46040   0.57080   0.72200   0.01267  Uiso   1.00
O83    O     0.28827   0.52237   0.02886   0.01267  Uiso   1.00
O84    O     0.31308   0.62008   0.89824   0.01267  Uiso   1.00
O85    O     0.64801   0.06161   0.05418   0.01267  Uiso   1.00
O86    O     0.54875   0.00525   0.09450   0.01267  Uiso   1.00
O87    O     0.73318   0.86808   0.70004   0.01267  Uiso   1.00
O88    O     0.82242   0.84782   0.71356   0.01267  Uiso   1.00
O89    O     0.56364   0.89554   0.95772   0.01267  Uiso   1.00
O90    O     0.78051   0.89121   0.89738   0.01267  Uiso   1.00
O91    O     0.57078   0.16958   0.09144   0.01267  Uiso   1.00
O92    O     0.56536   0.20776   0.15768   0.01267  Uiso   1.00
O93    O     0.71511   0.71681   0.73698   0.01267  Uiso   1.00
O94    O     0.81760   0.70720   0.72200   0.01267  Uiso   1.00
O95    O     0.68287   0.44877   0.02886   0.01267  Uiso   1.00
O96    O     0.78868   0.48168   0.89824   0.01267  Uiso   1.00
Cd13   Cd    0.75000   0.25000   0.50000   0.01267  Uiso   1.00
Cd14   Cd    0.00000   0.00000   0.00000   0.01267  Uiso   1.00
H193   H     0.87550   0.13340   0.38900   0.01267  Uiso   1.00
H194   H     0.78640   0.18270   0.24960   0.01267  Uiso   1.00
H195   H     0.74890   0.22140   0.32240   0.01267  Uiso   1.00
H196   H     0.99570   0.05370   0.33760   0.01267  Uiso   1.00
H197   H     0.93770   0.07510   0.38320   0.01267  Uiso   1.00
H198   H     0.99460   0.13170   0.31820   0.01267  Uiso   1.00
H199   H     0.73550   0.47760   0.38900   0.01267  Uiso   1.00
H200   H     0.96400   0.56770   0.24960   0.01267  Uiso   1.00
H201   H     0.92870   0.45620   0.32240   0.01267  Uiso   1.00
H202   H     0.66670   0.60870   0.33760   0.01267  Uiso   1.00
H203   H     0.67910   0.54170   0.38320   0.01267  Uiso   1.00
H204   H     0.68720   0.55010   0.31820   0.01267  Uiso   1.00
H205   H     0.86660   0.26450   0.61100   0.01267  Uiso   1.00
H206   H     0.81730   0.03600   0.75040   0.01267  Uiso   1.00
H207   H     0.77860   0.07130   0.67760   0.01267  Uiso   1.00
H208   H     0.94630   0.33330   0.66240   0.01267  Uiso   1.00
H209   H     0.92490   0.32090   0.61680   0.01267  Uiso   1.00
H210   H     0.86830   0.31280   0.68180   0.01267  Uiso   1.00
H211   H     0.52240   0.12450   0.61100   0.01267  Uiso   1.00
H212   H     0.43230   0.21360   0.75040   0.01267  Uiso   1.00
H213   H     0.54380   0.25110   0.67760   0.01267  Uiso   1.00
H214   H     0.39130   0.00430   0.66240   0.01267  Uiso   1.00
H215   H     0.45830   0.06230   0.61680   0.01267  Uiso   1.00
H216   H     0.44990   0.00540   0.68180   0.01267  Uiso   1.00
H217   H     0.01450   0.11660   0.11100   0.01267  Uiso   1.00
H218   H     0.78600   0.06730   0.25040   0.01267  Uiso   1.00
H219   H     0.82130   0.02860   0.17760   0.01267  Uiso   1.00
H220   H     0.08330   0.19630   0.16240   0.01267  Uiso   1.00
H221   H     0.07090   0.17490   0.11680   0.01267  Uiso   1.00
H222   H     0.06280   0.11830   0.18180   0.01267  Uiso   1.00
H223   H     0.87450   0.77240   0.11100   0.01267  Uiso   1.00
H224   H     0.96360   0.68230   0.25040   0.01267  Uiso   1.00
H225   H     0.00110   0.79380   0.17760   0.01267  Uiso   1.00
H226   H     0.75430   0.64130   0.16240   0.01267  Uiso   1.00
H227   H     0.81230   0.70830   0.11680   0.01267  Uiso   1.00
H228   H     0.75540   0.69990   0.18180   0.01267  Uiso   1.00
H229   H     0.22760   0.98550   0.88900   0.01267  Uiso   1.00
H230   H     0.31770   0.21400   0.74960   0.01267  Uiso   1.00
H231   H     0.20620   0.17870   0.82240   0.01267  Uiso   1.00
H232   H     0.35870   0.91670   0.83760   0.01267  Uiso   1.00
H233   H     0.29170   0.92910   0.88320   0.01267  Uiso   1.00
H234   H     0.30010   0.93720   0.81820   0.01267  Uiso   1.00
H235   H     0.88340   0.12550   0.88900   0.01267  Uiso   1.00
H236   H     0.93270   0.03640   0.74960   0.01267  Uiso   1.00
H237   H     0.97140   0.99890   0.82240   0.01267  Uiso   1.00
H238   H     0.80370   0.24570   0.83760   0.01267  Uiso   1.00
H239   H     0.82510   0.18770   0.88320   0.01267  Uiso   1.00
H240   H     0.88170   0.24460   0.81820   0.01267  Uiso   1.00
C257   C     0.78160   0.20470   0.41240   0.01267  Uiso   1.00
C258   C     0.80770   0.18020   0.36280   0.01267  Uiso   1.00
C259   C     0.85760   0.14450   0.36040   0.01267  Uiso   1.00
C260   C     0.88160   0.12460   0.31120   0.01267  Uiso   1.00
C261   C     0.85276   0.13746   0.27208   0.01267  Uiso   1.00
C262   C     0.80550   0.17250   0.27720   0.01267  Uiso   1.00
C263   C     0.78250   0.19520   0.32100   0.01267  Uiso   1.00
C264   C     0.96660   0.08630   0.33980   0.01267  Uiso   1.00
C265   C     0.80600   0.38290   0.41240   0.01267  Uiso   1.00
C266   C     0.82950   0.45700   0.36280   0.01267  Uiso   1.00
C267   C     0.78200   0.49510   0.36040   0.01267  Uiso   1.00
C268   C     0.80720   0.56420   0.31120   0.01267  Uiso   1.00
C269   C     0.87516   0.59046   0.27208   0.01267  Uiso   1.00
C270   C     0.91730   0.55030   0.27720   0.01267  Uiso   1.00
C271   C     0.89650   0.48380   0.32100   0.01267  Uiso   1.00
C272   C     0.69360   0.57390   0.33980   0.01267  Uiso   1.00
C273   C     0.79530   0.19400   0.58760   0.01267  Uiso   1.00
C274   C     0.81980   0.17050   0.63720   0.01267  Uiso   1.00
C275   C     0.85550   0.21800   0.63960   0.01267  Uiso   1.00
C276   C     0.87540   0.19280   0.68880   0.01267  Uiso   1.00
C277   C     0.86254   0.12484   0.72792   0.01267  Uiso   1.00
C278   C     0.82750   0.08270   0.72280   0.01267  Uiso   1.00
C279   C     0.80480   0.10350   0.67900   0.01267  Uiso   1.00
C280   C     0.91370   0.30640   0.66020   0.01267  Uiso   1.00
C281   C     0.61710   0.21840   0.58760   0.01267  Uiso   1.00
C282   C     0.54300   0.19230   0.63720   0.01267  Uiso   1.00
C283   C     0.50490   0.14240   0.63960   0.01267  Uiso   1.00
C284   C     0.43580   0.11840   0.68880   0.01267  Uiso   1.00
C285   C     0.40954   0.14724   0.72792   0.01267  Uiso   1.00
C286   C     0.44970   0.19450   0.72280   0.01267  Uiso   1.00
C287   C     0.51620   0.21750   0.67900   0.01267  Uiso   1.00
C288   C     0.42610   0.03340   0.66020   0.01267  Uiso   1.00
C289   C     0.94400   0.04530   0.08760   0.01267  Uiso   1.00
C290   C     0.92050   0.06980   0.13720   0.01267  Uiso   1.00
C291   C     0.96800   0.10550   0.13960   0.01267  Uiso   1.00
C292   C     0.94280   0.12540   0.18880   0.01267  Uiso   1.00
C293   C     0.87484   0.11254   0.22792   0.01267  Uiso   1.00
C294   C     0.83270   0.07750   0.22280   0.01267  Uiso   1.00
C295   C     0.85350   0.05480   0.17900   0.01267  Uiso   1.00
C296   C     0.05640   0.16370   0.16020   0.01267  Uiso   1.00
C297   C     0.96840   0.86710   0.08760   0.01267  Uiso   1.00
C298   C     0.94230   0.79300   0.13720   0.01267  Uiso   1.00
C299   C     0.89240   0.75490   0.13960   0.01267  Uiso   1.00
C300   C     0.86840   0.68580   0.18880   0.01267  Uiso   1.00
C301   C     0.89724   0.65954   0.22792   0.01267  Uiso   1.00
C302   C     0.94450   0.69970   0.22280   0.01267  Uiso   1.00
C303   C     0.96750   0.76620   0.17900   0.01267  Uiso   1.00
C304   C     0.78340   0.67610   0.16020   0.01267  Uiso   1.00
C305   C     0.13290   0.05600   0.91240   0.01267  Uiso   1.00
C306   C     0.20700   0.07950   0.86280   0.01267  Uiso   1.00
C307   C     0.24510   0.03200   0.86040   0.01267  Uiso   1.00
C308   C     0.31420   0.05720   0.81120   0.01267  Uiso   1.00
C309   C     0.34046   0.12516   0.77208   0.01267  Uiso   1.00
C310   C     0.30030   0.16730   0.77720   0.01267  Uiso   1.00
C311   C     0.23380   0.14650   0.82100   0.01267  Uiso   1.00
C312   C     0.32390   0.94360   0.83980   0.01267  Uiso   1.00
C313   C     0.95470   0.03160   0.91240   0.01267  Uiso   1.00
C314   C     0.93020   0.05770   0.86280   0.01267  Uiso   1.00
C315   C     0.89450   0.10760   0.86040   0.01267  Uiso   1.00
C316   C     0.87460   0.13160   0.81120   0.01267  Uiso   1.00
C317   C     0.88746   0.10276   0.77208   0.01267  Uiso   1.00
C318   C     0.92250   0.05550   0.77720   0.01267  Uiso   1.00
C319   C     0.94520   0.03250   0.82100   0.01267  Uiso   1.00
C320   C     0.83630   0.21660   0.83980   0.01267  Uiso   1.00
O97    O     0.80271   0.18541   0.45298   0.01267  Uiso   1.00
O98    O     0.74372   0.24472   0.41016   0.01267  Uiso   1.00
O99    O     0.92636   0.08426   0.31168   0.01267  Uiso   1.00
O100   O     0.74431   0.36161   0.45298   0.01267  Uiso   1.00
O101   O     0.84612   0.34512   0.41016   0.01267  Uiso   1.00
O102   O     0.76196   0.60406   0.31168   0.01267  Uiso   1.00
O103   O     0.81459   0.25569   0.54702   0.01267  Uiso   1.00
O104   O     0.75528   0.15388   0.58984   0.01267  Uiso   1.00
O105   O     0.91574   0.23804   0.68832   0.01267  Uiso   1.00
O106   O     0.63839   0.19729   0.54702   0.01267  Uiso   1.00
O107   O     0.65488   0.25628   0.58984   0.01267  Uiso   1.00
O108   O     0.39594   0.07364   0.68832   0.01267  Uiso   1.00
O109   O     0.00569   0.06459   0.04702   0.01267  Uiso   1.00
O110   O     0.90388   0.00528   0.08984   0.01267  Uiso   1.00
O111   O     0.98804   0.16574   0.18832   0.01267  Uiso   1.00
O112   O     0.94729   0.88839   0.04702   0.01267  Uiso   1.00
O113   O     0.00628   0.90488   0.08984   0.01267  Uiso   1.00
O114   O     0.82364   0.64594   0.18832   0.01267  Uiso   1.00
O115   O     0.11161   0.99431   0.95298   0.01267  Uiso   1.00
O116   O     0.09512   0.09612   0.91016   0.01267  Uiso   1.00
O117   O     0.35406   0.01196   0.81168   0.01267  Uiso   1.00
O118   O     0.93541   0.05271   0.95298   0.01267  Uiso   1.00
O119   O     0.99472   0.99372   0.91016   0.01267  Uiso   1.00
O120   O     0.83426   0.17636   0.81168   0.01267  Uiso   1.00
H241   H     0.65370   0.34300   0.38860   0.01267  Uiso   1.00
H242   H     0.65640   0.28880   0.44340   0.01267  Uiso   1.00
H243   H     0.62200   0.24140   0.40000   0.01267  Uiso   1.00
H244   H     0.56280   0.28250   0.40520   0.01267  Uiso   1.00
H245   H     0.56180   0.22490   0.46660   0.01267  Uiso   1.00
H246   H     0.61140   0.37630   0.46460   0.01267  Uiso   1.00
H247   H     0.56100   0.30440   0.51180   0.01267  Uiso   1.00
H248   H     0.54940   0.35620   0.45520   0.01267  Uiso   1.00
C321   C     0.59090   0.26080   0.42460   0.01267  Uiso   1.00
C322   C     0.58340   0.33910   0.46860   0.01267  Uiso   1.00
N1     N     0.62770   0.30880   0.42800   0.01267  Uiso   1.00
H249   H     0.57190   0.85830   0.17740   0.01267  Uiso   1.00
H250   H     0.53670   0.90060   0.20620   0.01267  Uiso   1.00
H251   H     0.48460   0.87740   0.15480   0.01267  Uiso   1.00
H252   H     0.43400   0.85250   0.22640   0.01267  Uiso   1.00
H253   H     0.46750   0.79940   0.20360   0.01267  Uiso   1.00
H254   H     0.56790   0.82130   0.27220   0.01267  Uiso   1.00
H255   H     0.52610   0.76380   0.27120   0.01267  Uiso   1.00
H256   H     0.48730   0.80890   0.30260   0.01267  Uiso   1.00
C323   C     0.47470   0.84580   0.19740   0.01267  Uiso   1.00
C324   C     0.52810   0.80890   0.26880   0.01267  Uiso   1.00
N2     N     0.53300   0.85830   0.20860   0.01267  Uiso   1.00
H257   H     0.95770   0.26840   0.38860   0.01267  Uiso   1.00
H258   H     0.90020   0.26780   0.44340   0.01267  Uiso   1.00
H259   H     0.97800   0.35860   0.40000   0.01267  Uiso   1.00
H260   H     0.03200   0.31230   0.40520   0.01267  Uiso   1.00
H261   H     0.97160   0.30850   0.46660   0.01267  Uiso   1.00
H262   H     0.92400   0.15910   0.46460   0.01267  Uiso   1.00
H263   H     0.92720   0.18380   0.51180   0.01267  Uiso   1.00
H264   H     0.99540   0.18860   0.45520   0.01267  Uiso   1.00
C325   C     0.98450   0.31460   0.42460   0.01267  Uiso   1.00
C326   C     0.94800   0.19230   0.46860   0.01267  Uiso   1.00
N3     N     0.94430   0.26320   0.42800   0.01267  Uiso   1.00
H265   H     0.25070   0.96430   0.17740   0.01267  Uiso   1.00
H266   H     0.25710   0.89320   0.20620   0.01267  Uiso   1.00
H267   H     0.36060   0.96780   0.15480   0.01267  Uiso   1.00
H268   H     0.33960   0.92110   0.22640   0.01267  Uiso   1.00
H269   H     0.32890   0.99700   0.20360   0.01267  Uiso   1.00
H270   H     0.15990   0.90650   0.27220   0.01267  Uiso   1.00
H271   H     0.20270   0.96500   0.27120   0.01267  Uiso   1.00
H272   H     0.21010   0.88850   0.30260   0.01267  Uiso   1.00
C327   C     0.32790   0.95680   0.19740   0.01267  Uiso   1.00
C328   C     0.20310   0.92230   0.26880   0.01267  Uiso   1.00
N4     N     0.25840   0.93310   0.20860   0.01267  Uiso   1.00
H273   H     0.65700   0.04230   0.61140   0.01267  Uiso   1.00
H274   H     0.71120   0.09980   0.55660   0.01267  Uiso   1.00
H275   H     0.75860   0.02200   0.60000   0.01267  Uiso   1.00
H276   H     0.71750   0.96800   0.59480   0.01267  Uiso   1.00
H277   H     0.77510   0.02840   0.53340   0.01267  Uiso   1.00
H278   H     0.62370   0.07600   0.53540   0.01267  Uiso   1.00
H279   H     0.69560   0.07280   0.48820   0.01267  Uiso   1.00
H280   H     0.64380   0.00460   0.54480   0.01267  Uiso   1.00
C329   C     0.73920   0.01550   0.57540   0.01267  Uiso   1.00
C330   C     0.66090   0.05200   0.53140   0.01267  Uiso   1.00
N5     N     0.69120   0.05570   0.57200   0.01267  Uiso   1.00
H281   H     0.14170   0.74930   0.82260   0.01267  Uiso   1.00
H282   H     0.09940   0.74290   0.79380   0.01267  Uiso   1.00
H283   H     0.12260   0.63940   0.84520   0.01267  Uiso   1.00
H284   H     0.14750   0.66040   0.77360   0.01267  Uiso   1.00
H285   H     0.20060   0.67110   0.79640   0.01267  Uiso   1.00
H286   H     0.17870   0.84010   0.72780   0.01267  Uiso   1.00
H287   H     0.23620   0.79730   0.72880   0.01267  Uiso   1.00
H288   H     0.19110   0.78990   0.69740   0.01267  Uiso   1.00
C331   C     0.15420   0.67210   0.80260   0.01267  Uiso   1.00
C332   C     0.19110   0.79690   0.73120   0.01267  Uiso   1.00
N6     N     0.14170   0.74160   0.79140   0.01267  Uiso   1.00
H289   H     0.73160   0.34630   0.61140   0.01267  Uiso   1.00
H290   H     0.73220   0.34360   0.55660   0.01267  Uiso   1.00
H291   H     0.64140   0.37800   0.60000   0.01267  Uiso   1.00
H292   H     0.68770   0.43720   0.59480   0.01267  Uiso   1.00
H293   H     0.69150   0.43820   0.53340   0.01267  Uiso   1.00
H294   H     0.84090   0.38860   0.53540   0.01267  Uiso   1.00
H295   H     0.81620   0.43900   0.48820   0.01267  Uiso   1.00
H296   H     0.81140   0.45060   0.54480   0.01267  Uiso   1.00
C333   C     0.68540   0.40910   0.57540   0.01267  Uiso   1.00
C334   C     0.80770   0.41660   0.53140   0.01267  Uiso   1.00
N7     N     0.73680   0.37230   0.57200   0.01267  Uiso   1.00
H297   H     0.03570   0.42810   0.82260   0.01267  Uiso   1.00
H298   H     0.10680   0.46330   0.79380   0.01267  Uiso   1.00
H299   H     0.03220   0.51540   0.84520   0.01267  Uiso   1.00
H300   H     0.07890   0.56600   0.77360   0.01267  Uiso   1.00
H301   H     0.00300   0.53250   0.79640   0.01267  Uiso   1.00
H302   H     0.09350   0.43210   0.72780   0.01267  Uiso   1.00
H303   H     0.03500   0.47390   0.72880   0.01267  Uiso   1.00
H304   H     0.11150   0.51270   0.69740   0.01267  Uiso   1.00
C335   C     0.04320   0.52530   0.80260   0.01267  Uiso   1.00
C336   C     0.07770   0.47190   0.73120   0.01267  Uiso   1.00
N8     N     0.06690   0.46700   0.79140   0.01267  Uiso   1.00
H305   H     0.79230   0.90700   0.11140   0.01267  Uiso   1.00
H306   H     0.84980   0.96120   0.05660   0.01267  Uiso   1.00
H307   H     0.77200   0.00860   0.10000   0.01267  Uiso   1.00
H308   H     0.71800   0.96750   0.09480   0.01267  Uiso   1.00
H309   H     0.77840   0.02510   0.03340   0.01267  Uiso   1.00
H310   H     0.82600   0.87370   0.03540   0.01267  Uiso   1.00
H311   H     0.82280   0.94560   0.98820   0.01267  Uiso   1.00
H312   H     0.75460   0.89380   0.04480   0.01267  Uiso   1.00
C337   C     0.76550   0.98920   0.07540   0.01267  Uiso   1.00
C338   C     0.80200   0.91090   0.03140   0.01267  Uiso   1.00
N9     N     0.80570   0.94120   0.07200   0.01267  Uiso   1.00
H313   H     0.49930   0.39170   0.32260   0.01267  Uiso   1.00
H314   H     0.49290   0.34940   0.29380   0.01267  Uiso   1.00
H315   H     0.38940   0.37260   0.34520   0.01267  Uiso   1.00
H316   H     0.41040   0.39750   0.27360   0.01267  Uiso   1.00
H317   H     0.42110   0.45060   0.29640   0.01267  Uiso   1.00
H318   H     0.59010   0.42870   0.22780   0.01267  Uiso   1.00
H319   H     0.54730   0.48620   0.22880   0.01267  Uiso   1.00
H320   H     0.53990   0.44110   0.19740   0.01267  Uiso   1.00
C339   C     0.42210   0.40420   0.30260   0.01267  Uiso   1.00
C340   C     0.54690   0.44110   0.23120   0.01267  Uiso   1.00
N10    N     0.49160   0.39170   0.29140   0.01267  Uiso   1.00
H321   H     0.09630   0.98160   0.11140   0.01267  Uiso   1.00
H322   H     0.09360   0.98220   0.05660   0.01267  Uiso   1.00
H323   H     0.12800   0.89140   0.10000   0.01267  Uiso   1.00
H324   H     0.18720   0.93770   0.09480   0.01267  Uiso   1.00
H325   H     0.18820   0.94150   0.03340   0.01267  Uiso   1.00
H326   H     0.13860   0.09090   0.03540   0.01267  Uiso   1.00
H327   H     0.18900   0.06620   0.98820   0.01267  Uiso   1.00
H328   H     0.20060   0.06140   0.04480   0.01267  Uiso   1.00
C341   C     0.15910   0.93540   0.07540   0.01267  Uiso   1.00
C342   C     0.16660   0.05770   0.03140   0.01267  Uiso   1.00
N11    N     0.12230   0.98680   0.07200   0.01267  Uiso   1.00
H329   H     0.17810   0.28570   0.32260   0.01267  Uiso   1.00
H330   H     0.21330   0.35680   0.29380   0.01267  Uiso   1.00
H331   H     0.26540   0.28220   0.34520   0.01267  Uiso   1.00
H332   H     0.31600   0.32890   0.27360   0.01267  Uiso   1.00
H333   H     0.28250   0.25300   0.29640   0.01267  Uiso   1.00
H334   H     0.18210   0.34350   0.22780   0.01267  Uiso   1.00
H335   H     0.22390   0.28500   0.22880   0.01267  Uiso   1.00
H336   H     0.26270   0.36150   0.19740   0.01267  Uiso   1.00
C343   C     0.27530   0.29320   0.30260   0.01267  Uiso   1.00
C344   C     0.22190   0.32770   0.23120   0.01267  Uiso   1.00
N12    N     0.21700   0.31690   0.29140   0.01267  Uiso   1.00
H337   H     0.01840   0.20770   0.88860   0.01267  Uiso   1.00
H338   H     0.01780   0.15020   0.94340   0.01267  Uiso   1.00
H339   H     0.10860   0.22800   0.90000   0.01267  Uiso   1.00
H340   H     0.06230   0.28200   0.90520   0.01267  Uiso   1.00
H341   H     0.05850   0.22160   0.96660   0.01267  Uiso   1.00
H342   H     0.90910   0.17400   0.96460   0.01267  Uiso   1.00
H343   H     0.93380   0.17720   0.01180   0.01267  Uiso   1.00
H344   H     0.93860   0.24540   0.95520   0.01267  Uiso   1.00
C345   C     0.06460   0.23450   0.92460   0.01267  Uiso   1.00
C346   C     0.94230   0.19800   0.96860   0.01267  Uiso   1.00
N13    N     0.01320   0.19430   0.92800   0.01267  Uiso   1.00
H345   H     0.71430   0.50070   0.67740   0.01267  Uiso   1.00
H346   H     0.64320   0.50710   0.70620   0.01267  Uiso   1.00
H347   H     0.71780   0.61060   0.65480   0.01267  Uiso   1.00
H348   H     0.67110   0.58960   0.72640   0.01267  Uiso   1.00
H349   H     0.74700   0.57890   0.70360   0.01267  Uiso   1.00
H350   H     0.65650   0.40990   0.77220   0.01267  Uiso   1.00
H351   H     0.71500   0.45270   0.77120   0.01267  Uiso   1.00
H352   H     0.63850   0.46010   0.80260   0.01267  Uiso   1.00
C347   C     0.70680   0.57790   0.69740   0.01267  Uiso   1.00
C348   C     0.67230   0.45310   0.76880   0.01267  Uiso   1.00
N14    N     0.68310   0.50840   0.70860   0.01267  Uiso   1.00
H353   H     0.09300   0.90370   0.88860   0.01267  Uiso   1.00
H354   H     0.03880   0.90640   0.94340   0.01267  Uiso   1.00
H355   H     0.99140   0.87200   0.90000   0.01267  Uiso   1.00
H356   H     0.03250   0.81280   0.90520   0.01267  Uiso   1.00
H357   H     0.97490   0.81180   0.96660   0.01267  Uiso   1.00
H358   H     0.12630   0.86140   0.96460   0.01267  Uiso   1.00
H359   H     0.05440   0.81100   0.01180   0.01267  Uiso   1.00
H360   H     0.10620   0.79940   0.95520   0.01267  Uiso   1.00
C349   C     0.01080   0.84090   0.92460   0.01267  Uiso   1.00
C350   C     0.08910   0.83340   0.96860   0.01267  Uiso   1.00
N15    N     0.05880   0.87770   0.92800   0.01267  Uiso   1.00
H361   H     0.60830   0.82190   0.67740   0.01267  Uiso   1.00
H362   H     0.65060   0.78670   0.70620   0.01267  Uiso   1.00
H363   H     0.62740   0.73460   0.65480   0.01267  Uiso   1.00
H364   H     0.60250   0.68400   0.72640   0.01267  Uiso   1.00
H365   H     0.54940   0.71750   0.70360   0.01267  Uiso   1.00
H366   H     0.57130   0.81790   0.77220   0.01267  Uiso   1.00
H367   H     0.51380   0.77610   0.77120   0.01267  Uiso   1.00
H368   H     0.55890   0.73730   0.80260   0.01267  Uiso   1.00
C351   C     0.59580   0.72470   0.69740   0.01267  Uiso   1.00
C352   C     0.55890   0.77810   0.76880   0.01267  Uiso   1.00
N16    N     0.60830   0.78300   0.70860   0.01267  Uiso   1.00
Cl1    Cl    0.95510   0.93960   0.46300   0.01267  Uiso   1.00
Cl2    Cl    0.58190   0.59740   0.46300   0.01267  Uiso   1.00
Cl3    Cl    0.06040   0.41810   0.53700   0.01267  Uiso   1.00
Cl4    Cl    0.40260   0.04490   0.53700   0.01267  Uiso   1.00
Cl5    Cl    0.16810   0.31040   0.03700   0.01267  Uiso   1.00
Cl6    Cl    0.79490   0.65260   0.03700   0.01267  Uiso   1.00
Cl7    Cl    0.34740   0.83190   0.96300   0.01267  Uiso   1.00
Cl8    Cl    0.68960   0.20510   0.96300   0.01267  Uiso   1.00
