data_FEWQIJ_clean_b
_audit_creation_date              2014-07-02
_audit_creation_method            'Materials Studio'
_symmetry_space_group_name_H-M    'P1'
_symmetry_Int_Tables_number       1
_symmetry_cell_setting            triclinic
loop_
_symmetry_equiv_pos_as_xyz
  x,y,z
_cell_length_a                    27.3934
_cell_length_b                    27.3934
_cell_length_c                    14.0108
_cell_angle_alpha                 90.0000
_cell_angle_beta                  90.0000
_cell_angle_gamma                 120.0000
loop_
_atom_site_label
_atom_site_type_symbol
_atom_site_fract_x
_atom_site_fract_y
_atom_site_fract_z
_atom_site_U_iso_or_equiv
_atom_site_adp_type
_atom_site_occupancy
Dy1    Dy    0.73911   0.41371   0.02451   0.00000  Uiso   1.00
C2     C     0.77160   0.55520   0.13520   0.00000  Uiso   1.00
N3     N     0.78460   0.60550   0.17175   0.00000  Uiso   1.00
C4     C     0.76750   0.60970   0.25800   0.00000  Uiso   1.00
H5     H     0.77810   0.64490   0.28385   0.00000  Uiso   1.00
C6     C     0.79460   0.55720   0.03795   0.00000  Uiso   1.00
N7     N     0.71850   0.51020   0.27570   0.00000  Uiso   1.00
O8     O     0.72360   0.45520   0.16295   0.00000  Uiso   1.00
C9     C     0.73340   0.56110   0.30850   0.00000  Uiso   1.00
H10    H     0.72050   0.56420   0.36855   0.00000  Uiso   1.00
C11    C     0.73860   0.50590   0.18795   0.00000  Uiso   1.00
O12    O     0.78250   0.51290   0.49455   0.00000  Uiso   1.00
O13    O     0.82380   0.60550   0.00100   0.00000  Uiso   1.00
O14    O     0.65900   0.41740   0.47340   0.00000  Uiso   1.00
H15    H     0.53952   0.32289   0.33657   0.00000  Uiso   1.00
Dy16   Dy    0.40578   0.74704   0.19118   0.00000  Uiso   1.00
C17    C     0.43827   0.88853   0.30187   0.00000  Uiso   1.00
N18    N     0.45127   0.93883   0.33842   0.00000  Uiso   1.00
C19    C     0.43417   0.94303   0.42467   0.00000  Uiso   1.00
H20    H     0.44477   0.97823   0.45052   0.00000  Uiso   1.00
C21    C     0.46127   0.89053   0.20462   0.00000  Uiso   1.00
N22    N     0.38517   0.84353   0.44237   0.00000  Uiso   1.00
O23    O     0.39027   0.78853   0.32962   0.00000  Uiso   1.00
C24    C     0.40007   0.89443   0.47517   0.00000  Uiso   1.00
H25    H     0.38717   0.89753   0.03522   0.00000  Uiso   1.00
C26    C     0.40527   0.83923   0.35462   0.00000  Uiso   1.00
O27    O     0.44917   0.84623   0.16122   0.00000  Uiso   1.00
O28    O     0.49047   0.93883   0.16767   0.00000  Uiso   1.00
O29    O     0.32567   0.75073   0.14007   0.00000  Uiso   1.00
H30    H     0.20619   0.65623   0.00324   0.00000  Uiso   1.00
Dy31   Dy    0.07244   0.08038   0.35784   0.00000  Uiso   1.00
C32    C     0.10493   0.22187   0.46853   0.00000  Uiso   1.00
N33    N     0.11793   0.27217   0.00508   0.00000  Uiso   1.00
C34    C     0.10083   0.27637   0.09133   0.00000  Uiso   1.00
H35    H     0.11143   0.31157   0.11718   0.00000  Uiso   1.00
C36    C     0.12793   0.22387   0.37128   0.00000  Uiso   1.00
N37    N     0.05183   0.17687   0.10903   0.00000  Uiso   1.00
O38    O     0.05693   0.12187   0.49628   0.00000  Uiso   1.00
C39    C     0.06673   0.22777   0.14183   0.00000  Uiso   1.00
H40    H     0.05383   0.23087   0.20188   0.00000  Uiso   1.00
C41    C     0.07193   0.17257   0.02128   0.00000  Uiso   1.00
O42    O     0.11583   0.17957   0.32788   0.00000  Uiso   1.00
O43    O     0.15713   0.27217   0.33433   0.00000  Uiso   1.00
O44    O     0.99233   0.08407   0.30673   0.00000  Uiso   1.00
H45    H     0.87286  -0.01044   0.16990   0.00000  Uiso   1.00
Dy46   Dy    0.58629   0.32540   0.02451   0.00000  Uiso   1.00
C47    C     0.44480   0.21640   0.13520   0.00000  Uiso   1.00
N48    N     0.39450   0.17910   0.17175   0.00000  Uiso   1.00
C49    C     0.39030   0.15780   0.25800   0.00000  Uiso   1.00
H50    H     0.35510   0.13320   0.28385   0.00000  Uiso   1.00
C51    C     0.44280   0.23740   0.03795   0.00000  Uiso   1.00
N52    N     0.48980   0.20830   0.27570   0.00000  Uiso   1.00
O53    O     0.54480   0.26840   0.16295   0.00000  Uiso   1.00
C54    C     0.43890   0.17230   0.30850   0.00000  Uiso   1.00
H55    H     0.43580   0.15630   0.36855   0.00000  Uiso   1.00
C56    C     0.49410   0.23270   0.18795   0.00000  Uiso   1.00
O57    O     0.48710   0.26960   0.49455   0.00000  Uiso   1.00
O58    O     0.39450   0.21830   0.00100   0.00000  Uiso   1.00
O59    O     0.58260   0.24160   0.47340   0.00000  Uiso   1.00
H60    H     0.67711   0.21663   0.33657   0.00000  Uiso   1.00
Dy61   Dy    0.25296   0.65873   0.19118   0.00000  Uiso   1.00
C62    C     0.11147   0.54973   0.30187   0.00000  Uiso   1.00
N63    N     0.06117   0.51243   0.33842   0.00000  Uiso   1.00
C64    C     0.05697   0.49113   0.42467   0.00000  Uiso   1.00
H65    H     0.02177   0.46653   0.45052   0.00000  Uiso   1.00
C66    C     0.10947   0.57073   0.20462   0.00000  Uiso   1.00
N67    N     0.15647   0.54163   0.44237   0.00000  Uiso   1.00
O68    O     0.21147   0.60173   0.32962   0.00000  Uiso   1.00
C69    C     0.10557   0.50563   0.47517   0.00000  Uiso   1.00
H70    H     0.10247   0.48963   0.03522   0.00000  Uiso   1.00
C71    C     0.16077   0.56603   0.35462   0.00000  Uiso   1.00
O72    O     0.15377   0.60293   0.16122   0.00000  Uiso   1.00
O73    O     0.06117   0.55163   0.16767   0.00000  Uiso   1.00
O74    O     0.24927   0.57493   0.14007   0.00000  Uiso   1.00
H75    H     0.34377   0.54996   0.00324   0.00000  Uiso   1.00
Dy76   Dy    0.91962   0.99207   0.35784   0.00000  Uiso   1.00
C77    C     0.77813   0.88307   0.46853   0.00000  Uiso   1.00
N78    N     0.72783   0.84577   0.00508   0.00000  Uiso   1.00
C79    C     0.72363   0.82447   0.09133   0.00000  Uiso   1.00
H80    H     0.68843   0.79987   0.11718   0.00000  Uiso   1.00
C81    C     0.77613   0.90407   0.37128   0.00000  Uiso   1.00
N82    N     0.82313   0.87497   0.10903   0.00000  Uiso   1.00
O83    O     0.87813   0.93507   0.49628   0.00000  Uiso   1.00
C84    C     0.77223   0.83897   0.14183   0.00000  Uiso   1.00
H85    H     0.76913   0.82297   0.20188   0.00000  Uiso   1.00
C86    C     0.82743   0.89937   0.02128   0.00000  Uiso   1.00
O87    O     0.82043   0.93627   0.32788   0.00000  Uiso   1.00
O88    O     0.72783   0.88497   0.33433   0.00000  Uiso   1.00
O89    O     0.91593   0.90827   0.30673   0.00000  Uiso   1.00
H90    H     1.01044   0.88330   0.16990   0.00000  Uiso   1.00
Dy91   Dy    0.67460   0.26089   0.02451   0.00000  Uiso   1.00
C92    C     0.78360   0.22840   0.13520   0.00000  Uiso   1.00
N93    N     0.82090   0.21540   0.17175   0.00000  Uiso   1.00
C94    C     0.84220   0.23250   0.25800   0.00000  Uiso   1.00
H95    H     0.86680   0.22190   0.28385   0.00000  Uiso   1.00
C96    C     0.76260   0.20540   0.03795   0.00000  Uiso   1.00
N97    N     0.79170   0.28150   0.27570   0.00000  Uiso   1.00
O98    O     0.73160   0.27640   0.16295   0.00000  Uiso   1.00
C99    C     0.82770   0.26660   0.30850   0.00000  Uiso   1.00
H100   H     0.84370   0.27950   0.36855   0.00000  Uiso   1.00
C101   C     0.76730   0.26140   0.18795   0.00000  Uiso   1.00
O102   O     0.73040   0.21750   0.49455   0.00000  Uiso   1.00
O103   O     0.78170   0.17620   0.00100   0.00000  Uiso   1.00
O104   O     0.75840   0.34100   0.47340   0.00000  Uiso   1.00
H105   H     0.78337   0.46048   0.33657   0.00000  Uiso   1.00
Dy106  Dy    0.34127   0.59422   0.19118   0.00000  Uiso   1.00
C107   C     0.45027   0.56173   0.30187   0.00000  Uiso   1.00
N108   N     0.48757   0.54873   0.33842   0.00000  Uiso   1.00
C109   C     0.50887   0.56583   0.42467   0.00000  Uiso   1.00
H110   H     0.53347   0.55523   0.45052   0.00000  Uiso   1.00
C111   C     0.42927   0.53873   0.20462   0.00000  Uiso   1.00
N112   N     0.45837   0.61483   0.44237   0.00000  Uiso   1.00
O113   O     0.39827   0.60973   0.32962   0.00000  Uiso   1.00
C114   C     0.49437   0.59993   0.47517   0.00000  Uiso   1.00
H115   H     0.51037   0.61283   0.03522   0.00000  Uiso   1.00
C116   C     0.43397   0.59473   0.35462   0.00000  Uiso   1.00
O117   O     0.39707   0.55083   0.16122   0.00000  Uiso   1.00
O118   O     0.44837   0.50953   0.16767   0.00000  Uiso   1.00
O119   O     0.42507   0.67433   0.14007   0.00000  Uiso   1.00
H120   H     0.45004   0.79381   0.00324   0.00000  Uiso   1.00
Dy121  Dy    0.00793   0.92756   0.35784   0.00000  Uiso   1.00
C122   C     0.11693   0.89507   0.46853   0.00000  Uiso   1.00
N123   N     0.15423   0.88207   0.00508   0.00000  Uiso   1.00
C124   C     0.17553   0.89917   0.09133   0.00000  Uiso   1.00
H125   H     0.20013   0.88857   0.11718   0.00000  Uiso   1.00
C126   C     0.09593   0.87207   0.37128   0.00000  Uiso   1.00
N127   N     0.12503   0.94817   0.10903   0.00000  Uiso   1.00
O128   O     0.06493   0.94307   0.49628   0.00000  Uiso   1.00
C129   C     0.16103   0.93327   0.14183   0.00000  Uiso   1.00
H130   H     0.17703   0.94617   0.20188   0.00000  Uiso   1.00
C131   C     0.10063   0.92807   0.02128   0.00000  Uiso   1.00
O132   O     0.06373   0.88417   0.32788   0.00000  Uiso   1.00
O133   O     0.11503   0.84287   0.33433   0.00000  Uiso   1.00
O134   O     0.09173   0.00767   0.30673   0.00000  Uiso   1.00
H135   H     0.11670   0.12714   0.16990   0.00000  Uiso   1.00
Dy136  Dy    0.26089   0.58629   0.47549   0.00000  Uiso   1.00
C137   C     0.22840   0.44480   0.36480   0.00000  Uiso   1.00
N138   N     0.21540   0.39450   0.32825   0.00000  Uiso   1.00
C139   C     0.23250   0.39030   0.24200   0.00000  Uiso   1.00
H140   H     0.22190   0.35510   0.21615   0.00000  Uiso   1.00
C141   C     0.20540   0.44280   0.46205   0.00000  Uiso   1.00
N142   N     0.28150   0.48980   0.22430   0.00000  Uiso   1.00
O143   O     0.27640   0.54480   0.33705   0.00000  Uiso   1.00
C144   C     0.26660   0.43890   0.19150   0.00000  Uiso   1.00
H145   H     0.27950   0.43580   0.13145   0.00000  Uiso   1.00
C146   C     0.26140   0.49410   0.31205   0.00000  Uiso   1.00
O147   O     0.21750   0.48710   0.00545   0.00000  Uiso   1.00
O148   O     0.17620   0.39450   0.49900   0.00000  Uiso   1.00
O149   O     0.34100   0.58260   0.02660   0.00000  Uiso   1.00
H150   H     0.46048   0.67711   0.16343   0.00000  Uiso   1.00
Dy151  Dy    0.92756   0.91962   0.14216   0.00000  Uiso   1.00
C152   C     0.89507   0.77813   0.03147   0.00000  Uiso   1.00
N153   N     0.88207   0.72783   0.49492   0.00000  Uiso   1.00
C154   C     0.89917   0.72363   0.40867   0.00000  Uiso   1.00
H155   H     0.88857   0.68843   0.38282   0.00000  Uiso   1.00
C156   C     0.87207   0.77613   0.12872   0.00000  Uiso   1.00
N157   N     0.94817   0.82313   0.39097   0.00000  Uiso   1.00
O158   O     0.94307   0.87813   0.00372   0.00000  Uiso   1.00
C159   C     0.93327   0.77223   0.35817   0.00000  Uiso   1.00
H160   H     0.94617   0.76913   0.29812   0.00000  Uiso   1.00
C161   C     0.92807   0.82743   0.47872   0.00000  Uiso   1.00
O162   O     0.88417   0.82043   0.17212   0.00000  Uiso   1.00
O163   O     0.84287   0.72783   0.16567   0.00000  Uiso   1.00
O164   O     0.00767   0.91593   0.19327   0.00000  Uiso   1.00
H165   H     0.12714   1.01044   0.33010   0.00000  Uiso   1.00
Dy166  Dy    0.59422   0.25296   0.30882   0.00000  Uiso   1.00
C167   C     0.56173   0.11147   0.19813   0.00000  Uiso   1.00
N168   N     0.54873   0.06117   0.16158   0.00000  Uiso   1.00
C169   C     0.56583   0.05697   0.07533   0.00000  Uiso   1.00
H170   H     0.55523   0.02177   0.04948   0.00000  Uiso   1.00
C171   C     0.53873   0.10947   0.29538   0.00000  Uiso   1.00
N172   N     0.61483   0.15647   0.05763   0.00000  Uiso   1.00
O173   O     0.60973   0.21147   0.17038   0.00000  Uiso   1.00
C174   C     0.59993   0.10557   0.02483   0.00000  Uiso   1.00
H175   H     0.61283   0.10247   0.46478   0.00000  Uiso   1.00
C176   C     0.59473   0.16077   0.14538   0.00000  Uiso   1.00
O177   O     0.55083   0.15377   0.33878   0.00000  Uiso   1.00
O178   O     0.50953   0.06117   0.33233   0.00000  Uiso   1.00
O179   O     0.67433   0.24927   0.35993   0.00000  Uiso   1.00
H180   H     0.79381   0.34377   0.49676   0.00000  Uiso   1.00
Dy181  Dy    0.41371   0.67460   0.47549   0.00000  Uiso   1.00
C182   C     0.55520   0.78360   0.36480   0.00000  Uiso   1.00
N183   N     0.60550   0.82090   0.32825   0.00000  Uiso   1.00
C184   C     0.60970   0.84220   0.24200   0.00000  Uiso   1.00
H185   H     0.64490   0.86680   0.21615   0.00000  Uiso   1.00
C186   C     0.55720   0.76260   0.46205   0.00000  Uiso   1.00
N187   N     0.51020   0.79170   0.22430   0.00000  Uiso   1.00
O188   O     0.45520   0.73160   0.33705   0.00000  Uiso   1.00
C189   C     0.56110   0.82770   0.19150   0.00000  Uiso   1.00
H190   H     0.56420   0.84370   0.13145   0.00000  Uiso   1.00
C191   C     0.50590   0.76730   0.31205   0.00000  Uiso   1.00
O192   O     0.51290   0.73040   0.00545   0.00000  Uiso   1.00
O193   O     0.60550   0.78170   0.49900   0.00000  Uiso   1.00
O194   O     0.41740   0.75840   0.02660   0.00000  Uiso   1.00
H195   H     0.32289   0.78337   0.16343   0.00000  Uiso   1.00
Dy196  Dy    0.08038   0.00793   0.14216   0.00000  Uiso   1.00
C197   C     0.22187   0.11693   0.03147   0.00000  Uiso   1.00
N198   N     0.27217   0.15423   0.49492   0.00000  Uiso   1.00
C199   C     0.27637   0.17553   0.40867   0.00000  Uiso   1.00
H200   H     0.31157   0.20013   0.38282   0.00000  Uiso   1.00
C201   C     0.22387   0.09593   0.12872   0.00000  Uiso   1.00
N202   N     0.17687   0.12503   0.39097   0.00000  Uiso   1.00
O203   O     0.12187   0.06493   0.00372   0.00000  Uiso   1.00
C204   C     0.22777   0.16103   0.35817   0.00000  Uiso   1.00
H205   H     0.23087   0.17703   0.29812   0.00000  Uiso   1.00
C206   C     0.17257   0.10063   0.47872   0.00000  Uiso   1.00
O207   O     0.17957   0.06373   0.17212   0.00000  Uiso   1.00
O208   O     0.27217   0.11503   0.16567   0.00000  Uiso   1.00
O209   O     0.08407   0.09173   0.19327   0.00000  Uiso   1.00
H210   H    -0.01044   0.11670   0.33010   0.00000  Uiso   1.00
Dy211  Dy    0.74704   0.34127   0.30882   0.00000  Uiso   1.00
C212   C     0.88853   0.45027   0.19813   0.00000  Uiso   1.00
N213   N     0.93883   0.48757   0.16158   0.00000  Uiso   1.00
C214   C     0.94303   0.50887   0.07533   0.00000  Uiso   1.00
H215   H     0.97823   0.53347   0.04948   0.00000  Uiso   1.00
C216   C     0.89053   0.42927   0.29538   0.00000  Uiso   1.00
N217   N     0.84353   0.45837   0.05763   0.00000  Uiso   1.00
O218   O     0.78853   0.39827   0.17038   0.00000  Uiso   1.00
C219   C     0.89443   0.49437   0.02483   0.00000  Uiso   1.00
H220   H     0.89753   0.51037   0.46478   0.00000  Uiso   1.00
C221   C     0.83923   0.43397   0.14538   0.00000  Uiso   1.00
O222   O     0.84623   0.39707   0.33878   0.00000  Uiso   1.00
O223   O     0.93883   0.44837   0.33233   0.00000  Uiso   1.00
O224   O     0.75073   0.42507   0.35993   0.00000  Uiso   1.00
H225   H     0.65623   0.45004   0.49676   0.00000  Uiso   1.00
Dy226  Dy    0.32540   0.73911   0.47549   0.00000  Uiso   1.00
C227   C     0.21640   0.77160   0.36480   0.00000  Uiso   1.00
N228   N     0.17910   0.78460   0.32825   0.00000  Uiso   1.00
C229   C     0.15780   0.76750   0.24200   0.00000  Uiso   1.00
H230   H     0.13320   0.77810   0.21615   0.00000  Uiso   1.00
C231   C     0.23740   0.79460   0.46205   0.00000  Uiso   1.00
N232   N     0.20830   0.71850   0.22430   0.00000  Uiso   1.00
O233   O     0.26840   0.72360   0.33705   0.00000  Uiso   1.00
C234   C     0.17230   0.73340   0.19150   0.00000  Uiso   1.00
H235   H     0.15630   0.72050   0.13145   0.00000  Uiso   1.00
C236   C     0.23270   0.73860   0.31205   0.00000  Uiso   1.00
O237   O     0.26960   0.78250   0.00545   0.00000  Uiso   1.00
O238   O     0.21830   0.82380   0.49900   0.00000  Uiso   1.00
O239   O     0.24160   0.65900   0.02660   0.00000  Uiso   1.00
H240   H     0.21663   0.53952   0.16343   0.00000  Uiso   1.00
Dy241  Dy    0.99207   0.07244   0.14216   0.00000  Uiso   1.00
C242   C     0.88307   0.10493   0.03147   0.00000  Uiso   1.00
N243   N     0.84577   0.11793   0.49492   0.00000  Uiso   1.00
C244   C     0.82447   0.10083   0.40867   0.00000  Uiso   1.00
H245   H     0.79987   0.11143   0.38282   0.00000  Uiso   1.00
C246   C     0.90407   0.12793   0.12872   0.00000  Uiso   1.00
N247   N     0.87497   0.05183   0.39097   0.00000  Uiso   1.00
O248   O     0.93507   0.05693   0.00372   0.00000  Uiso   1.00
C249   C     0.83897   0.06673   0.35817   0.00000  Uiso   1.00
H250   H     0.82297   0.05383   0.29812   0.00000  Uiso   1.00
C251   C     0.89937   0.07193   0.47872   0.00000  Uiso   1.00
O252   O     0.93627   0.11583   0.17212   0.00000  Uiso   1.00
O253   O     0.88497   0.15713   0.16567   0.00000  Uiso   1.00
O254   O     0.90827   0.99233   0.19327   0.00000  Uiso   1.00
H255   H     0.88330   0.87286   0.33010   0.00000  Uiso   1.00
Dy256  Dy    0.65873   0.40578   0.30882   0.00000  Uiso   1.00
C257   C     0.54973   0.43827   0.19813   0.00000  Uiso   1.00
N258   N     0.51243   0.45127   0.16158   0.00000  Uiso   1.00
C259   C     0.49113   0.43417   0.07533   0.00000  Uiso   1.00
H260   H     0.46653   0.44477   0.04948   0.00000  Uiso   1.00
C261   C     0.57073   0.46127   0.29538   0.00000  Uiso   1.00
N262   N     0.54163   0.38517   0.05763   0.00000  Uiso   1.00
O263   O     0.60173   0.39027   0.17038   0.00000  Uiso   1.00
C264   C     0.50563   0.40007   0.02483   0.00000  Uiso   1.00
H265   H     0.48963   0.38717   0.46478   0.00000  Uiso   1.00
C266   C     0.56603   0.40527   0.14538   0.00000  Uiso   1.00
O267   O     0.60293   0.44917   0.33878   0.00000  Uiso   1.00
O268   O     0.55163   0.49047   0.33233   0.00000  Uiso   1.00
O269   O     0.57493   0.32567   0.35993   0.00000  Uiso   1.00
H270   H     0.54996   0.20619   0.49676   0.00000  Uiso   1.00
Cu271  Cu    0.83333   0.66667   0.08333   0.00000  Uiso   1.00
Cu272  Cu    0.50000   0.00000   0.25000   0.00000  Uiso   1.00
Cu273  Cu    0.33333   0.16667   0.08333   0.00000  Uiso   1.00
Cu274  Cu    0.00000   0.50000   0.25000   0.00000  Uiso   1.00
Cu275  Cu    0.83333   0.16667   0.08333   0.00000  Uiso   1.00
Cu276  Cu    0.50000   0.50000   0.25000   0.00000  Uiso   1.00
Cu277  Cu    0.16667   0.33333   0.41667   0.00000  Uiso   1.00
Cu278  Cu    0.66667   0.83333   0.41667   0.00000  Uiso   1.00
Cu279  Cu    0.16667   0.83333   0.41667   0.00000  Uiso   1.00
O280   O     0.66667   0.33333   0.41667   0.00000  Uiso   1.00
O281   O     0.00000   0.00000   0.25000   0.00000  Uiso   1.00
O282   O     0.33333   0.66667   0.08333   0.00000  Uiso   1.00
O283   O     0.66667   0.33333   0.07700   0.00000  Uiso   1.00
O284   O     0.33333   0.66667   0.24367   0.00000  Uiso   1.00
O285   O     0.00000   0.00000   0.41033   0.00000  Uiso   1.00
O286   O     0.33333   0.66667   0.42300   0.00000  Uiso   1.00
O287   O     0.00000   0.00000   0.08967   0.00000  Uiso   1.00
O288   O     0.66667   0.33333   0.25633   0.00000  Uiso   1.00
Dy289  Dy    0.73911   0.41371   0.52451   0.00000  Uiso   1.00
C290   C     0.77160   0.55520   0.63520   0.00000  Uiso   1.00
N291   N     0.78460   0.60550   0.67175   0.00000  Uiso   1.00
C292   C     0.76750   0.60970   0.75800   0.00000  Uiso   1.00
H293   H     0.77810   0.64490   0.78385   0.00000  Uiso   1.00
C294   C     0.79460   0.55720   0.53795   0.00000  Uiso   1.00
N295   N     0.71850   0.51020   0.77570   0.00000  Uiso   1.00
O296   O     0.72360   0.45520   0.66295   0.00000  Uiso   1.00
C297   C     0.73340   0.56110   0.80850   0.00000  Uiso   1.00
H298   H     0.72050   0.56420   0.86855   0.00000  Uiso   1.00
C299   C     0.73860   0.50590   0.68795   0.00000  Uiso   1.00
O300   O     0.78250   0.51290   0.99455   0.00000  Uiso   1.00
O301   O     0.82380   0.60550   0.50100   0.00000  Uiso   1.00
O302   O     0.65900   0.41740   0.97340   0.00000  Uiso   1.00
H303   H     0.53952   0.32289   0.83657   0.00000  Uiso   1.00
Dy304  Dy    0.40578   0.74704   0.69118   0.00000  Uiso   1.00
C305   C     0.43827   0.88853   0.80187   0.00000  Uiso   1.00
N306   N     0.45127   0.93883   0.83842   0.00000  Uiso   1.00
C307   C     0.43417   0.94303   0.92467   0.00000  Uiso   1.00
H308   H     0.44477   0.97823   0.95052   0.00000  Uiso   1.00
C309   C     0.46127   0.89053   0.70462   0.00000  Uiso   1.00
N310   N     0.38517   0.84353   0.94237   0.00000  Uiso   1.00
O311   O     0.39027   0.78853   0.82962   0.00000  Uiso   1.00
C312   C     0.40007   0.89443   0.97517   0.00000  Uiso   1.00
H313   H     0.38717   0.89753   0.53522   0.00000  Uiso   1.00
C314   C     0.40527   0.83923   0.85462   0.00000  Uiso   1.00
O315   O     0.44917   0.84623   0.66122   0.00000  Uiso   1.00
O316   O     0.49047   0.93883   0.66767   0.00000  Uiso   1.00
O317   O     0.32567   0.75073   0.64007   0.00000  Uiso   1.00
H318   H     0.20619   0.65623   0.50324   0.00000  Uiso   1.00
Dy319  Dy    0.07244   0.08038   0.85784   0.00000  Uiso   1.00
C320   C     0.10493   0.22187   0.96853   0.00000  Uiso   1.00
N321   N     0.11793   0.27217   0.50508   0.00000  Uiso   1.00
C322   C     0.10083   0.27637   0.59133   0.00000  Uiso   1.00
H323   H     0.11143   0.31157   0.61718   0.00000  Uiso   1.00
C324   C     0.12793   0.22387   0.87128   0.00000  Uiso   1.00
N325   N     0.05183   0.17687   0.60903   0.00000  Uiso   1.00
O326   O     0.05693   0.12187   0.99628   0.00000  Uiso   1.00
C327   C     0.06673   0.22777   0.64183   0.00000  Uiso   1.00
H328   H     0.05383   0.23087   0.70188   0.00000  Uiso   1.00
C329   C     0.07193   0.17257   0.52128   0.00000  Uiso   1.00
O330   O     0.11583   0.17957   0.82788   0.00000  Uiso   1.00
O331   O     0.15713   0.27217   0.83433   0.00000  Uiso   1.00
O332   O     0.99233   0.08407   0.80673   0.00000  Uiso   1.00
H333   H     0.87286  -0.01044   0.66990   0.00000  Uiso   1.00
Dy334  Dy    0.58629   0.32540   0.52451   0.00000  Uiso   1.00
C335   C     0.44480   0.21640   0.63520   0.00000  Uiso   1.00
N336   N     0.39450   0.17910   0.67175   0.00000  Uiso   1.00
C337   C     0.39030   0.15780   0.75800   0.00000  Uiso   1.00
H338   H     0.35510   0.13320   0.78385   0.00000  Uiso   1.00
C339   C     0.44280   0.23740   0.53795   0.00000  Uiso   1.00
N340   N     0.48980   0.20830   0.77570   0.00000  Uiso   1.00
O341   O     0.54480   0.26840   0.66295   0.00000  Uiso   1.00
C342   C     0.43890   0.17230   0.80850   0.00000  Uiso   1.00
H343   H     0.43580   0.15630   0.86855   0.00000  Uiso   1.00
C344   C     0.49410   0.23270   0.68795   0.00000  Uiso   1.00
O345   O     0.48710   0.26960   0.99455   0.00000  Uiso   1.00
O346   O     0.39450   0.21830   0.50100   0.00000  Uiso   1.00
O347   O     0.58260   0.24160   0.97340   0.00000  Uiso   1.00
H348   H     0.67711   0.21663   0.83657   0.00000  Uiso   1.00
Dy349  Dy    0.25296   0.65873   0.69118   0.00000  Uiso   1.00
C350   C     0.11147   0.54973   0.80187   0.00000  Uiso   1.00
N351   N     0.06117   0.51243   0.83842   0.00000  Uiso   1.00
C352   C     0.05697   0.49113   0.92467   0.00000  Uiso   1.00
H353   H     0.02177   0.46653   0.95052   0.00000  Uiso   1.00
C354   C     0.10947   0.57073   0.70462   0.00000  Uiso   1.00
N355   N     0.15647   0.54163   0.94237   0.00000  Uiso   1.00
O356   O     0.21147   0.60173   0.82962   0.00000  Uiso   1.00
C357   C     0.10557   0.50563   0.97517   0.00000  Uiso   1.00
H358   H     0.10247   0.48963   0.53522   0.00000  Uiso   1.00
C359   C     0.16077   0.56603   0.85462   0.00000  Uiso   1.00
O360   O     0.15377   0.60293   0.66122   0.00000  Uiso   1.00
O361   O     0.06117   0.55163   0.66767   0.00000  Uiso   1.00
O362   O     0.24927   0.57493   0.64007   0.00000  Uiso   1.00
H363   H     0.34377   0.54996   0.50324   0.00000  Uiso   1.00
Dy364  Dy    0.91962   0.99207   0.85784   0.00000  Uiso   1.00
C365   C     0.77813   0.88307   0.96853   0.00000  Uiso   1.00
N366   N     0.72783   0.84577   0.50508   0.00000  Uiso   1.00
C367   C     0.72363   0.82447   0.59133   0.00000  Uiso   1.00
H368   H     0.68843   0.79987   0.61718   0.00000  Uiso   1.00
C369   C     0.77613   0.90407   0.87128   0.00000  Uiso   1.00
N370   N     0.82313   0.87497   0.60903   0.00000  Uiso   1.00
O371   O     0.87813   0.93507   0.99628   0.00000  Uiso   1.00
C372   C     0.77223   0.83897   0.64183   0.00000  Uiso   1.00
H373   H     0.76913   0.82297   0.70188   0.00000  Uiso   1.00
C374   C     0.82743   0.89937   0.52128   0.00000  Uiso   1.00
O375   O     0.82043   0.93627   0.82788   0.00000  Uiso   1.00
O376   O     0.72783   0.88497   0.83433   0.00000  Uiso   1.00
O377   O     0.91593   0.90827   0.80673   0.00000  Uiso   1.00
H378   H     1.01044   0.88330   0.66990   0.00000  Uiso   1.00
Dy379  Dy    0.67460   0.26089   0.52451   0.00000  Uiso   1.00
C380   C     0.78360   0.22840   0.63520   0.00000  Uiso   1.00
N381   N     0.82090   0.21540   0.67175   0.00000  Uiso   1.00
C382   C     0.84220   0.23250   0.75800   0.00000  Uiso   1.00
H383   H     0.86680   0.22190   0.78385   0.00000  Uiso   1.00
C384   C     0.76260   0.20540   0.53795   0.00000  Uiso   1.00
N385   N     0.79170   0.28150   0.77570   0.00000  Uiso   1.00
O386   O     0.73160   0.27640   0.66295   0.00000  Uiso   1.00
C387   C     0.82770   0.26660   0.80850   0.00000  Uiso   1.00
H388   H     0.84370   0.27950   0.86855   0.00000  Uiso   1.00
C389   C     0.76730   0.26140   0.68795   0.00000  Uiso   1.00
O390   O     0.73040   0.21750   0.99455   0.00000  Uiso   1.00
O391   O     0.78170   0.17620   0.50100   0.00000  Uiso   1.00
O392   O     0.75840   0.34100   0.97340   0.00000  Uiso   1.00
H393   H     0.78337   0.46048   0.83657   0.00000  Uiso   1.00
Dy394  Dy    0.34127   0.59422   0.69118   0.00000  Uiso   1.00
C395   C     0.45027   0.56173   0.80187   0.00000  Uiso   1.00
N396   N     0.48757   0.54873   0.83842   0.00000  Uiso   1.00
C397   C     0.50887   0.56583   0.92467   0.00000  Uiso   1.00
H398   H     0.53347   0.55523   0.95052   0.00000  Uiso   1.00
C399   C     0.42927   0.53873   0.70462   0.00000  Uiso   1.00
N400   N     0.45837   0.61483   0.94237   0.00000  Uiso   1.00
O401   O     0.39827   0.60973   0.82962   0.00000  Uiso   1.00
C402   C     0.49437   0.59993   0.97517   0.00000  Uiso   1.00
H403   H     0.51037   0.61283   0.53522   0.00000  Uiso   1.00
C404   C     0.43397   0.59473   0.85462   0.00000  Uiso   1.00
O405   O     0.39707   0.55083   0.66122   0.00000  Uiso   1.00
O406   O     0.44837   0.50953   0.66767   0.00000  Uiso   1.00
O407   O     0.42507   0.67433   0.64007   0.00000  Uiso   1.00
H408   H     0.45004   0.79381   0.50324   0.00000  Uiso   1.00
Dy409  Dy    0.00793   0.92756   0.85784   0.00000  Uiso   1.00
C410   C     0.11693   0.89507   0.96853   0.00000  Uiso   1.00
N411   N     0.15423   0.88207   0.50508   0.00000  Uiso   1.00
C412   C     0.17553   0.89917   0.59133   0.00000  Uiso   1.00
H413   H     0.20013   0.88857   0.61718   0.00000  Uiso   1.00
C414   C     0.09593   0.87207   0.87128   0.00000  Uiso   1.00
N415   N     0.12503   0.94817   0.60903   0.00000  Uiso   1.00
O416   O     0.06493   0.94307   0.99628   0.00000  Uiso   1.00
C417   C     0.16103   0.93327   0.64183   0.00000  Uiso   1.00
H418   H     0.17703   0.94617   0.70188   0.00000  Uiso   1.00
C419   C     0.10063   0.92807   0.52128   0.00000  Uiso   1.00
O420   O     0.06373   0.88417   0.82788   0.00000  Uiso   1.00
O421   O     0.11503   0.84287   0.83433   0.00000  Uiso   1.00
O422   O     0.09173   0.00767   0.80673   0.00000  Uiso   1.00
H423   H     0.11670   0.12714   0.66990   0.00000  Uiso   1.00
Dy424  Dy    0.26089   0.58629   0.97549   0.00000  Uiso   1.00
C425   C     0.22840   0.44480   0.86480   0.00000  Uiso   1.00
N426   N     0.21540   0.39450   0.82825   0.00000  Uiso   1.00
C427   C     0.23250   0.39030   0.74200   0.00000  Uiso   1.00
H428   H     0.22190   0.35510   0.71615   0.00000  Uiso   1.00
C429   C     0.20540   0.44280   0.96205   0.00000  Uiso   1.00
N430   N     0.28150   0.48980   0.72430   0.00000  Uiso   1.00
O431   O     0.27640   0.54480   0.83705   0.00000  Uiso   1.00
C432   C     0.26660   0.43890   0.69150   0.00000  Uiso   1.00
H433   H     0.27950   0.43580   0.63145   0.00000  Uiso   1.00
C434   C     0.26140   0.49410   0.81205   0.00000  Uiso   1.00
O435   O     0.21750   0.48710   0.50545   0.00000  Uiso   1.00
O436   O     0.17620   0.39450   0.99900   0.00000  Uiso   1.00
O437   O     0.34100   0.58260   0.52660   0.00000  Uiso   1.00
H438   H     0.46048   0.67711   0.66343   0.00000  Uiso   1.00
Dy439  Dy    0.92756   0.91962   0.64216   0.00000  Uiso   1.00
C440   C     0.89507   0.77813   0.53147   0.00000  Uiso   1.00
N441   N     0.88207   0.72783   0.99492   0.00000  Uiso   1.00
C442   C     0.89917   0.72363   0.90867   0.00000  Uiso   1.00
H443   H     0.88857   0.68843   0.88282   0.00000  Uiso   1.00
C444   C     0.87207   0.77613   0.62872   0.00000  Uiso   1.00
N445   N     0.94817   0.82313   0.89097   0.00000  Uiso   1.00
O446   O     0.94307   0.87813   0.50372   0.00000  Uiso   1.00
C447   C     0.93327   0.77223   0.85817   0.00000  Uiso   1.00
H448   H     0.94617   0.76913   0.79812   0.00000  Uiso   1.00
C449   C     0.92807   0.82743   0.97872   0.00000  Uiso   1.00
O450   O     0.88417   0.82043   0.67212   0.00000  Uiso   1.00
O451   O     0.84287   0.72783   0.66567   0.00000  Uiso   1.00
O452   O     0.00767   0.91593   0.69327   0.00000  Uiso   1.00
H453   H     0.12714   1.01044   0.83010   0.00000  Uiso   1.00
Dy454  Dy    0.59422   0.25296   0.80882   0.00000  Uiso   1.00
C455   C     0.56173   0.11147   0.69813   0.00000  Uiso   1.00
N456   N     0.54873   0.06117   0.66158   0.00000  Uiso   1.00
C457   C     0.56583   0.05697   0.57533   0.00000  Uiso   1.00
H458   H     0.55523   0.02177   0.54948   0.00000  Uiso   1.00
C459   C     0.53873   0.10947   0.79538   0.00000  Uiso   1.00
N460   N     0.61483   0.15647   0.55763   0.00000  Uiso   1.00
O461   O     0.60973   0.21147   0.67038   0.00000  Uiso   1.00
C462   C     0.59993   0.10557   0.52483   0.00000  Uiso   1.00
H463   H     0.61283   0.10247   0.96478   0.00000  Uiso   1.00
C464   C     0.59473   0.16077   0.64538   0.00000  Uiso   1.00
O465   O     0.55083   0.15377   0.83878   0.00000  Uiso   1.00
O466   O     0.50953   0.06117   0.83233   0.00000  Uiso   1.00
O467   O     0.67433   0.24927   0.85993   0.00000  Uiso   1.00
H468   H     0.79381   0.34377   0.99676   0.00000  Uiso   1.00
Dy469  Dy    0.41371   0.67460   0.97549   0.00000  Uiso   1.00
C470   C     0.55520   0.78360   0.86480   0.00000  Uiso   1.00
N471   N     0.60550   0.82090   0.82825   0.00000  Uiso   1.00
C472   C     0.60970   0.84220   0.74200   0.00000  Uiso   1.00
H473   H     0.64490   0.86680   0.71615   0.00000  Uiso   1.00
C474   C     0.55720   0.76260   0.96205   0.00000  Uiso   1.00
N475   N     0.51020   0.79170   0.72430   0.00000  Uiso   1.00
O476   O     0.45520   0.73160   0.83705   0.00000  Uiso   1.00
C477   C     0.56110   0.82770   0.69150   0.00000  Uiso   1.00
H478   H     0.56420   0.84370   0.63145   0.00000  Uiso   1.00
C479   C     0.50590   0.76730   0.81205   0.00000  Uiso   1.00
O480   O     0.51290   0.73040   0.50545   0.00000  Uiso   1.00
O481   O     0.60550   0.78170   0.99900   0.00000  Uiso   1.00
O482   O     0.41740   0.75840   0.52660   0.00000  Uiso   1.00
H483   H     0.32289   0.78337   0.66343   0.00000  Uiso   1.00
Dy484  Dy    0.08038   0.00793   0.64216   0.00000  Uiso   1.00
C485   C     0.22187   0.11693   0.53147   0.00000  Uiso   1.00
N486   N     0.27217   0.15423   0.99492   0.00000  Uiso   1.00
C487   C     0.27637   0.17553   0.90867   0.00000  Uiso   1.00
H488   H     0.31157   0.20013   0.88282   0.00000  Uiso   1.00
C489   C     0.22387   0.09593   0.62872   0.00000  Uiso   1.00
N490   N     0.17687   0.12503   0.89097   0.00000  Uiso   1.00
O491   O     0.12187   0.06493   0.50372   0.00000  Uiso   1.00
C492   C     0.22777   0.16103   0.85817   0.00000  Uiso   1.00
H493   H     0.23087   0.17703   0.79812   0.00000  Uiso   1.00
C494   C     0.17257   0.10063   0.97872   0.00000  Uiso   1.00
O495   O     0.17957   0.06373   0.67212   0.00000  Uiso   1.00
O496   O     0.27217   0.11503   0.66567   0.00000  Uiso   1.00
O497   O     0.08407   0.09173   0.69327   0.00000  Uiso   1.00
H498   H    -0.01044   0.11670   0.83010   0.00000  Uiso   1.00
Dy499  Dy    0.74704   0.34127   0.80882   0.00000  Uiso   1.00
C500   C     0.88853   0.45027   0.69813   0.00000  Uiso   1.00
N501   N     0.93883   0.48757   0.66158   0.00000  Uiso   1.00
C502   C     0.94303   0.50887   0.57533   0.00000  Uiso   1.00
H503   H     0.97823   0.53347   0.54948   0.00000  Uiso   1.00
C504   C     0.89053   0.42927   0.79538   0.00000  Uiso   1.00
N505   N     0.84353   0.45837   0.55763   0.00000  Uiso   1.00
O506   O     0.78853   0.39827   0.67038   0.00000  Uiso   1.00
C507   C     0.89443   0.49437   0.52483   0.00000  Uiso   1.00
H508   H     0.89753   0.51037   0.96478   0.00000  Uiso   1.00
C509   C     0.83923   0.43397   0.64538   0.00000  Uiso   1.00
O510   O     0.84623   0.39707   0.83878   0.00000  Uiso   1.00
O511   O     0.93883   0.44837   0.83233   0.00000  Uiso   1.00
O512   O     0.75073   0.42507   0.85993   0.00000  Uiso   1.00
H513   H     0.65623   0.45004   0.99676   0.00000  Uiso   1.00
Dy514  Dy    0.32540   0.73911   0.97549   0.00000  Uiso   1.00
C515   C     0.21640   0.77160   0.86480   0.00000  Uiso   1.00
N516   N     0.17910   0.78460   0.82825   0.00000  Uiso   1.00
C517   C     0.15780   0.76750   0.74200   0.00000  Uiso   1.00
H518   H     0.13320   0.77810   0.71615   0.00000  Uiso   1.00
C519   C     0.23740   0.79460   0.96205   0.00000  Uiso   1.00
N520   N     0.20830   0.71850   0.72430   0.00000  Uiso   1.00
O521   O     0.26840   0.72360   0.83705   0.00000  Uiso   1.00
C522   C     0.17230   0.73340   0.69150   0.00000  Uiso   1.00
H523   H     0.15630   0.72050   0.63145   0.00000  Uiso   1.00
C524   C     0.23270   0.73860   0.81205   0.00000  Uiso   1.00
O525   O     0.26960   0.78250   0.50545   0.00000  Uiso   1.00
O526   O     0.21830   0.82380   0.99900   0.00000  Uiso   1.00
O527   O     0.24160   0.65900   0.52660   0.00000  Uiso   1.00
H528   H     0.21663   0.53952   0.66343   0.00000  Uiso   1.00
Dy529  Dy    0.99207   0.07244   0.64216   0.00000  Uiso   1.00
C530   C     0.88307   0.10493   0.53147   0.00000  Uiso   1.00
N531   N     0.84577   0.11793   0.99492   0.00000  Uiso   1.00
C532   C     0.82447   0.10083   0.90867   0.00000  Uiso   1.00
H533   H     0.79987   0.11143   0.88282   0.00000  Uiso   1.00
C534   C     0.90407   0.12793   0.62872   0.00000  Uiso   1.00
N535   N     0.87497   0.05183   0.89097   0.00000  Uiso   1.00
O536   O     0.93507   0.05693   0.50372   0.00000  Uiso   1.00
C537   C     0.83897   0.06673   0.85817   0.00000  Uiso   1.00
H538   H     0.82297   0.05383   0.79812   0.00000  Uiso   1.00
C539   C     0.89937   0.07193   0.97872   0.00000  Uiso   1.00
O540   O     0.93627   0.11583   0.67212   0.00000  Uiso   1.00
O541   O     0.88497   0.15713   0.66567   0.00000  Uiso   1.00
O542   O     0.90827   0.99233   0.69327   0.00000  Uiso   1.00
H543   H     0.88330   0.87286   0.83010   0.00000  Uiso   1.00
Dy544  Dy    0.65873   0.40578   0.80882   0.00000  Uiso   1.00
C545   C     0.54973   0.43827   0.69813   0.00000  Uiso   1.00
N546   N     0.51243   0.45127   0.66158   0.00000  Uiso   1.00
C547   C     0.49113   0.43417   0.57533   0.00000  Uiso   1.00
H548   H     0.46653   0.44477   0.54948   0.00000  Uiso   1.00
C549   C     0.57073   0.46127   0.79538   0.00000  Uiso   1.00
N550   N     0.54163   0.38517   0.55763   0.00000  Uiso   1.00
O551   O     0.60173   0.39027   0.67038   0.00000  Uiso   1.00
C552   C     0.50563   0.40007   0.52483   0.00000  Uiso   1.00
H553   H     0.48963   0.38717   0.96478   0.00000  Uiso   1.00
C554   C     0.56603   0.40527   0.64538   0.00000  Uiso   1.00
O555   O     0.60293   0.44917   0.83878   0.00000  Uiso   1.00
O556   O     0.55163   0.49047   0.83233   0.00000  Uiso   1.00
O557   O     0.57493   0.32567   0.85993   0.00000  Uiso   1.00
H558   H     0.54996   0.20619   0.99676   0.00000  Uiso   1.00
Cu559  Cu    0.83333   0.66667   0.58333   0.00000  Uiso   1.00
Cu560  Cu    0.50000   0.00000   0.75000   0.00000  Uiso   1.00
Cu561  Cu    0.33333   0.16667   0.58333   0.00000  Uiso   1.00
Cu562  Cu    0.00000   0.50000   0.75000   0.00000  Uiso   1.00
Cu563  Cu    0.83333   0.16667   0.58333   0.00000  Uiso   1.00
Cu564  Cu    0.50000   0.50000   0.75000   0.00000  Uiso   1.00
Cu565  Cu    0.16667   0.33333   0.91667   0.00000  Uiso   1.00
Cu566  Cu    0.66667   0.83333   0.91667   0.00000  Uiso   1.00
Cu567  Cu    0.16667   0.83333   0.91667   0.00000  Uiso   1.00
O568   O     0.66667   0.33333   0.91667   0.00000  Uiso   1.00
O569   O     0.00000   0.00000   0.75000   0.00000  Uiso   1.00
O570   O     0.33333   0.66667   0.58333   0.00000  Uiso   1.00
O571   O     0.66667   0.33333   0.57700   0.00000  Uiso   1.00
O572   O     0.33333   0.66667   0.74367   0.00000  Uiso   1.00
O573   O     0.00000   0.00000   0.91033   0.00000  Uiso   1.00
O574   O     0.33333   0.66667   0.92300   0.00000  Uiso   1.00
O575   O     0.00000   0.00000   0.58967   0.00000  Uiso   1.00
O576   O     0.66667   0.33333   0.75633   0.00000  Uiso   1.00
loop_
_geom_bond_atom_site_label_1
_geom_bond_atom_site_label_2
_geom_bond_distance
_geom_bond_site_symmetry_2
_ccdc_geom_bond_type
Dy1    O8      2.391   .     S
Dy1    O283    2.227   .     S
Dy1    Dy46    3.640   .     S
Dy1    Dy91    3.640   .     S
Dy1    N217    2.529   .     S
Dy1    O218    2.600   .     S
Dy1    O300    2.396   1_554 S
Dy1    O302    2.358   1_554 S
Dy1    O568    2.588   1_554 S
Dy1    O512    2.327   1_554 S
Dy1    Dy544   3.681   1_554 S
Dy1    Dy499   3.681   1_554 S
Dy1    O392    2.411   1_554 D
C2     N3      1.341   .     D
C2     C6      1.491   .     S
C2     C11     1.402   .     S
N3     C4      1.322   .     S
N3     Cu271   1.972   .     S
C4     H5      0.930   .     S
C4     C9      1.379   .     D
C6     O13     1.265   .     A
C6     O300    1.245   1_554 S
N7     C9      1.324   .     S
N7     C11     1.376   .     S
N7     Dy256   2.529   .     S
O8     C11     1.284   .     D
O8     Dy256   2.600   .     S
C9     H10     0.933   .     S
O12    Dy289   2.396   .     S
O12    C294    1.245   .     A
O13    Cu271   1.941   .     S
O14    Dy289   2.358   .     S
O14    Dy256   2.327   .     S
O14    Dy334   2.411   .     S
O14    H225    0.990   .     S
H15    O269    0.990   .     S
Dy16   O23     2.391   .     S
Dy16   O27     2.396   .     S
Dy16   O29     2.358   .     S
Dy16   O282    2.588   .     S
Dy16   O284    2.227   .     S
Dy16   Dy61    3.640   .     S
Dy16   Dy106   3.640   .     S
Dy16   N187    2.529   .     S
Dy16   O188    2.600   .     S
Dy16   O194    2.327   .     S
Dy16   O119    2.411   .     S
Dy16   Dy514   3.681   1_554 S
Dy16   Dy469   3.681   1_554 S
C17    N18     1.341   .     D
C17    C21     1.491   .     S
C17    C26     1.402   .     S
N18    C19     1.322   .     S
N18    Cu272   1.972   1_565 S
C19    H20     0.930   .     S
C19    C24     1.379   .     D
C21    O27     1.245   .     A
C21    O28     1.265   .     A
N22    C24     1.324   .     S
N22    C26     1.376   .     S
N22    Dy226   2.529   .     S
O23    C26     1.284   .     D
O23    Dy226   2.600   .     S
C24    H313    0.933   .     S
H25    C312    0.933   1_554 S
O28    Cu272   1.941   1_565 D
O29    Dy61    2.411   .     S
O29    H195    0.990   .     S
O29    Dy514   2.327   1_554 A
H30    O239    0.990   .     S
Dy31   O38     2.391   .     S
Dy31   O42     2.396   .     S
Dy31   O281    2.588   .     S
Dy31   O285    2.227   .     S
Dy31   N202    2.529   .     S
Dy31   O491    2.601   .     S
Dy31   O209    2.327   .     S
Dy31   Dy196   3.681   .     S
Dy31   O134    2.411   .     S
Dy31   O44     2.358   1_455 S
Dy31   Dy76    3.640   1_445 S
Dy31   Dy121   3.640   1_545 S
Dy31   Dy241   3.681   1_455 D
C32    N321    1.341   .     D
C32    C36     1.491   .     S
C32    C329    1.402   .     S
N33    C34     1.322   .     S
N33    C320    1.341   1_554 S
N33    Cu565   1.972   1_554 S
C34    H35     0.930   .     S
C34    C39     1.379   .     D
C36    O42     1.245   .     A
C36    O43     1.265   .     A
N37    C39     1.324   .     S
N37    C41     1.376   .     S
N37    Dy241   2.529   1_455 S
O38    C329    1.284   .     D
O38    Dy529   2.600   1_455 A
C39    H40     0.933   .     S
C41    C320    1.402   1_554 S
C41    O326    1.284   1_554 S
O43    Cu277   1.941   .     S
O44    Dy241   2.327   .     S
O44    Dy31    2.358   1_655 S
O44    Dy76    2.411   1_545 S
O44    H210    0.990   1_655 S
H45    O254    0.990   1_545 S
Dy46   O53     2.391   .     S
Dy46   O283    2.227   .     S
Dy46   Dy91    3.640   .     S
Dy46   N262    2.529   .     S
Dy46   O263    2.600   .     S
Dy46   O345    2.396   1_554 S
Dy46   O347    2.358   1_554 S
Dy46   O568    2.588   1_554 S
Dy46   O557    2.327   1_554 S
Dy46   Dy454   3.681   1_554 S
Dy46   Dy544   3.681   1_554 S
Dy46   O302    2.411   1_554 S
C47    N48     1.341   .     D
C47    C51     1.491   .     S
C47    C56     1.402   .     S
N48    C49     1.322   .     S
N48    Cu273   1.972   .     S
C49    H50     0.930   .     S
C49    C54     1.379   .     D
C51    O58     1.265   .     A
C51    O345    1.245   1_554 S
N52    C54     1.324   .     S
N52    C56     1.376   .     S
N52    Dy166   2.529   .     S
O53    C56     1.284   .     D
O53    Dy166   2.600   .     S
C54    H55     0.933   .     S
O57    Dy334   2.396   .     S
O57    C339    1.245   .     A
O58    Cu273   1.941   .     S
O59    Dy334   2.358   .     S
O59    Dy166   2.327   .     S
O59    Dy379   2.411   .     S
O59    H270    0.990   .     S
H60    O179    0.990   .     S
Dy61   O68     2.391   .     S
Dy61   O72     2.396   .     S
Dy61   O74     2.358   .     S
Dy61   O282    2.588   .     S
Dy61   O284    2.226   .     S
Dy61   Dy106   3.640   .     S
Dy61   N232    2.529   .     S
Dy61   O233    2.600   .     S
Dy61   O239    2.327   .     S
Dy61   Dy424   3.681   1_554 S
Dy61   Dy514   3.681   1_554 S
C62    N63     1.341   .     D
C62    C66     1.491   .     S
C62    C71     1.402   .     S
N63    C64     1.322   .     S
N63    Cu274   1.972   .     S
C64    H65     0.930   .     S
C64    C69     1.379   .     D
C66    O72     1.245   .     A
C66    O73     1.265   .     A
N67    C69     1.324   .     S
N67    C71     1.376   .     S
N67    Dy136   2.529   .     S
O68    C71     1.284   .     D
O68    Dy136   2.600   .     S
C69    H358    0.933   .     S
H70    C357    0.933   1_554 S
O73    Cu274   1.941   .     S
O74    Dy106   2.411   .     S
O74    H240    0.990   .     S
O74    Dy424   2.327   1_554 D
H75    O149    0.990   .     S
Dy76   O83     2.391   .     S
Dy76   O87     2.396   .     S
Dy76   O89     2.358   .     S
Dy76   O254    2.327   .     S
Dy76   Dy151   3.681   .     S
Dy76   Dy31    3.640   1_665 S
Dy76   O44     2.411   1_565 S
Dy76   O281    2.588   1_665 S
Dy76   O285    2.227   1_665 S
Dy76   Dy121   3.640   1_655 S
Dy76   N247    2.529   1_565 D
Dy76   O536    2.600   1_565 A
Dy76   Dy241   3.681   1_565 A
C77    N366    1.341   .     D
C77    C81     1.491   .     S
C77    C374    1.402   .     S
N78    C79     1.322   .     S
N78    C365    1.341   1_554 S
N78    Cu566   1.971   1_554 S
C79    H80     0.930   .     S
C79    C84     1.379   .     D
C81    O87     1.245   .     A
C81    O88     1.265   .     A
N82    C84     1.324   .     S
N82    C86     1.376   .     S
N82    Dy151   2.529   .     S
O83    C374    1.284   .     D
O83    Dy439   2.601   .     S
C84    H85     0.933   .     S
C86    C365    1.402   1_554 D
C86    O371    1.284   1_554 S
O88    Cu278   1.941   .     S
O89    Dy151   2.327   .     S
O89    H255    0.990   .     S
O89    Dy121   2.411   1_655 S
H90    O164    0.990   1_655 S
Dy91   O98     2.391   .     S
Dy91   O283    2.226   .     S
Dy91   N172    2.529   .     S
Dy91   O173    2.600   .     S
Dy91   O390    2.396   1_554 S
Dy91   O392    2.358   1_554 S
Dy91   O568    2.588   1_554 S
Dy91   O467    2.327   1_554 S
Dy91   Dy499   3.681   1_554 S
Dy91   Dy454   3.681   1_554 S
Dy91   O347    2.411   1_554 S
C92    N93     1.341   .     D
C92    C96     1.491   .     S
C92    C101    1.402   .     S
N93    C94     1.322   .     S
N93    Cu275   1.972   .     S
C94    H95     0.930   .     S
C94    C99     1.379   .     D
C96    O103    1.265   .     A
C96    O390    1.245   1_554 S
N97    C99     1.324   .     S
N97    C101    1.376   .     S
N97    Dy211   2.529   .     S
O98    C101    1.284   .     D
O98    Dy211   2.600   .     S
C99    H100    0.933   .     S
O102   Dy379   2.396   .     S
O102   C384    1.245   .     A
O103   Cu275   1.941   .     S
O104   Dy379   2.358   .     S
O104   Dy211   2.327   .     S
O104   Dy289   2.411   .     S
O104   H180    0.990   .     S
H105   O224    0.990   .     S
Dy106  O113    2.391   .     S
Dy106  O117    2.396   .     S
Dy106  O119    2.358   .     S
Dy106  O282    2.589   .     S
Dy106  O284    2.227   .     S
Dy106  N142    2.529   .     S
Dy106  O143    2.600   .     S
Dy106  O149    2.327   .     S
Dy106  Dy469   3.681   1_554 S
Dy106  Dy424   3.681   1_554 S
C107   N108    1.341   .     D
C107   C111    1.491   .     S
C107   C116    1.402   .     S
N108   C109    1.322   .     S
N108   Cu276   1.972   .     S
C109   H110    0.930   .     S
C109   C114    1.379   .     D
C111   O117    1.245   .     A
C111   O118    1.265   .     A
N112   C114    1.324   .     S
N112   C116    1.376   .     S
N112   Dy181   2.529   .     S
O113   C116    1.284   .     D
O113   Dy181   2.600   .     S
C114   H403    0.933   .     S
H115   C402    0.933   1_554 S
O118   Cu276   1.941   .     S
O119   H150    0.990   .     S
O119   Dy469   2.327   1_554 D
H120   O194    0.990   .     S
Dy121  O128    2.391   .     S
Dy121  O132    2.396   .     S
Dy121  O164    2.327   .     S
Dy121  Dy31    3.640   1_565 S
Dy121  Dy76    3.640   1_455 S
Dy121  O89     2.411   1_455 S
Dy121  O134    2.358   1_565 S
Dy121  O281    2.588   1_565 S
Dy121  O285    2.226   1_565 S
Dy121  N157    2.529   1_455 A
Dy121  O446    2.600   1_455 A
Dy121  Dy196   3.681   1_565 S
Dy121  Dy151   3.681   1_455 S
C122   N411    1.341   .     D
C122   C126    1.491   .     S
C122   C419    1.402   .     S
N123   C124    1.322   .     S
N123   C410    1.341   1_554 S
N123   Cu567   1.972   1_554 S
C124   H125    0.930   .     S
C124   C129    1.379   .     D
C126   O132    1.245   .     A
C126   O133    1.265   .     A
N127   C129    1.324   .     S
N127   C131    1.376   .     S
N127   Dy196   2.529   1_565 S
O128   C419    1.284   .     D
O128   Dy484   2.600   1_565 S
C129   H130    0.933   .     S
C131   C410    1.402   1_554 S
C131   O416    1.284   1_554 S
O133   Cu279   1.942   .     S
O134   Dy196   2.327   .     S
O134   Dy121   2.358   1_545 S
O134   H165    0.990   1_545 S
H135   O209    0.990   .     S
Dy136  O143    2.391   .     S
Dy136  O435    2.396   .     S
Dy136  O437    2.358   .     S
Dy136  O570    2.588   .     S
Dy136  O286    2.227   .     S
Dy136  Dy181   3.640   .     S
Dy136  Dy226   3.640   .     S
Dy136  O362    2.327   .     S
Dy136  Dy394   3.681   .     S
Dy136  Dy349   3.681   .     S
Dy136  O527    2.411   .     S
C137   N138    1.341   .     D
C137   C141    1.491   .     S
C137   C146    1.402   .     S
N138   C139    1.322   .     S
N138   Cu277   1.972   .     S
C139   H140    0.930   .     S
C139   C144    1.379   .     D
C141   O435    1.245   .     A
C141   O148    1.265   .     A
N142   C144    1.324   .     S
N142   C146    1.376   .     S
O143   C146    1.284   .     D
C144   H145    0.933   .     S
O147   Dy424   2.396   1_554 D
O147   C429    1.245   1_554 S
O148   Cu277   1.941   .     S
O149   Dy424   2.358   1_554 S
O149   Dy469   2.411   1_554 S
Dy151  O158    2.391   .     S
Dy151  O162    2.396   .     S
Dy151  O254    2.411   .     S
Dy151  Dy121   3.681   1_655 S
Dy151  O164    2.358   1_655 S
Dy151  O281    2.588   1_665 S
Dy151  O287    2.227   1_665 D
Dy151  Dy196   3.640   1_665 A
Dy151  Dy241   3.640   1_565 S
Dy151  O371    2.601   1_554 S
C152   C156    1.491   .     S
C152   N441    1.341   1_554 D
C152   C449    1.402   1_554 S
N153   C440    1.341   .     D
N153   C154    1.322   .     S
N153   Cu559   1.972   .     S
C154   H155    0.930   .     S
C154   C159    1.379   .     D
C156   O162    1.245   .     A
C156   O163    1.265   .     A
N157   C159    1.324   .     S
N157   C161    1.376   .     S
N157   Dy121   2.529   1_655 A
O158   C449    1.284   1_554 S
O158   Dy409   2.600   1_654 A
C159   H160    0.933   .     S
C161   C440    1.402   .     S
C161   O446    1.284   .     D
O163   Cu271   1.941   .     S
O164   H90     0.990   1_455 S
O164   Dy151   2.358   1_455 S
O164   Dy196   2.411   1_565 S
H165   O134    0.990   1_565 S
Dy166  O173    2.391   .     S
Dy166  O177    2.396   .     S
Dy166  O179    2.358   .     S
Dy166  O280    2.588   .     S
Dy166  O288    2.227   .     S
Dy166  Dy211   3.640   .     S
Dy166  Dy256   3.640   .     S
Dy166  Dy379   3.681   .     S
Dy166  Dy334   3.681   .     S
Dy166  O269    2.411   .     S
C167   N168    1.341   .     D
C167   C171    1.491   .     S
C167   C176    1.402   .     S
N168   C169    1.322   .     S
N168   Cu272   1.972   .     S
C169   H170    0.930   .     S
C169   C174    1.379   .     D
C171   O177    1.245   .     A
C171   O178    1.265   .     A
N172   C174    1.324   .     S
N172   C176    1.376   .     S
O173   C176    1.284   .     D
C174   H463    0.933   1_554 S
H175   C462    0.933   .     S
O178   Cu272   1.941   .     S
O179   Dy379   2.327   .     S
O179   Dy211   2.411   .     S
Dy181  O188    2.391   .     S
Dy181  O480    2.396   .     S
Dy181  O482    2.358   .     S
Dy181  O570    2.588   .     S
Dy181  O286    2.227   .     S
Dy181  Dy226   3.640   .     S
Dy181  O407    2.327   .     S
Dy181  Dy304   3.681   .     S
Dy181  Dy394   3.681   .     S
Dy181  O437    2.411   .     S
C182   N183    1.341   .     D
C182   C186    1.491   .     S
C182   C191    1.402   .     S
N183   C184    1.322   .     S
N183   Cu278   1.972   .     S
C184   H185    0.930   .     S
C184   C189    1.379   .     D
C186   O480    1.245   .     A
C186   O193    1.265   .     A
N187   C189    1.324   .     S
N187   C191    1.376   .     S
O188   C191    1.284   .     D
C189   H190    0.933   .     S
O192   Dy469   2.396   1_554 S
O192   C474    1.245   1_554 S
O193   Cu278   1.941   .     S
O194   Dy469   2.358   1_554 S
O194   Dy514   2.411   1_554 S
Dy196  O203    2.391   .     S
Dy196  O207    2.396   .     S
Dy196  O209    2.358   .     S
Dy196  O281    2.588   .     S
Dy196  O287    2.227   .     S
Dy196  Dy121   3.681   1_545 S
Dy196  N127    2.529   1_545 S
Dy196  Dy151   3.640   1_445 A
Dy196  O164    2.411   1_545 S
Dy196  Dy241   3.640   1_455 S
Dy196  O416    2.600   1_544 S
C197   C201    1.491   .     S
C197   N486    1.341   1_554 D
C197   C494    1.402   1_554 S
N198   C485    1.341   .     D
N198   C199    1.322   .     S
N198   Cu561   1.971   .     S
C199   H200    0.930   .     S
C199   C204    1.379   .     D
C201   O207    1.245   .     A
C201   O208    1.265   .     A
N202   C204    1.324   .     S
N202   C206    1.376   .     S
O203   C494    1.284   1_554 S
O203   Dy319   2.601   1_554 S
C204   H205    0.933   .     S
C206   C485    1.402   .     S
C206   O491    1.284   .     D
O208   Cu273   1.941   .     S
O209   Dy241   2.411   1_455 S
H210   O44     0.990   1_455 S
Dy211  O218    2.391   .     S
Dy211  O222    2.396   .     S
Dy211  O224    2.358   .     S
Dy211  O280    2.588   .     S
Dy211  O288    2.226   .     S
Dy211  Dy256   3.640   .     S
Dy211  Dy289   3.681   .     S
Dy211  Dy379   3.681   .     S
C212   N213    1.341   .     D
C212   C216    1.491   .     S
C212   C221    1.402   .     S
N213   C214    1.322   .     S
N213   Cu274   1.972   1_655 D
C214   H215    0.930   .     S
C214   C219    1.379   .     D
C216   O222    1.245   .     A
C216   O223    1.265   .     A
N217   C219    1.324   .     S
N217   C221    1.376   .     S
O218   C221    1.284   .     D
C219   H508    0.933   1_554 A
H220   C507    0.933   .     S
O223   Cu274   1.941   1_655 A
O224   Dy289   2.327   .     S
O224   Dy256   2.411   .     S
Dy226  O233    2.391   .     S
Dy226  O525    2.396   .     S
Dy226  O527    2.358   .     S
Dy226  O570    2.588   .     S
Dy226  O286    2.226   .     S
Dy226  O317    2.327   .     S
Dy226  Dy349   3.681   .     S
Dy226  Dy304   3.681   .     S
Dy226  O482    2.411   .     S
C227   N228    1.341   .     D
C227   C231    1.491   .     S
C227   C236    1.402   .     S
N228   C229    1.322   .     S
N228   Cu279   1.972   .     S
C229   H230    0.930   .     S
C229   C234    1.379   .     D
C231   O525    1.245   .     A
C231   O238    1.265   .     A
N232   C234    1.324   .     S
N232   C236    1.376   .     S
O233   C236    1.284   .     D
C234   H235    0.933   .     S
O237   Dy514   2.396   1_554 S
O237   C519    1.245   1_554 S
O238   Cu279   1.941   .     S
O239   Dy514   2.358   1_554 S
O239   Dy424   2.411   1_554 D
Dy241  O248    2.391   .     S
Dy241  O252    2.396   .     S
Dy241  Dy31    3.681   1_655 D
Dy241  N37     2.529   1_655 S
Dy241  Dy76    3.681   1_545 A
Dy241  Dy151   3.640   1_545 S
Dy241  Dy196   3.640   1_655 S
Dy241  O209    2.411   1_655 S
Dy241  O254    2.358   1_545 S
Dy241  O281    2.588   1_655 S
Dy241  O287    2.226   1_655 S
Dy241  O326    2.600   1_654 S
C242   C246    1.491   .     S
C242   N531    1.341   1_554 S
C242   C539    1.402   1_554 D
N243   C530    1.341   .     D
N243   C244    1.322   .     S
N243   Cu563   1.972   .     S
C244   H245    0.930   .     S
C244   C249    1.379   .     D
C246   O252    1.245   .     A
C246   O253    1.265   .     A
N247   C249    1.324   .     S
N247   C251    1.376   .     S
N247   Dy76    2.529   1_545 D
O248   C539    1.284   1_554 S
O248   Dy364   2.600   1_544 S
C249   H250    0.933   .     S
C251   C530    1.402   .     S
C251   O536    1.284   .     D
O253   Cu275   1.942   .     S
O254   H45     0.990   1_565 S
O254   Dy241   2.358   1_565 S
Dy256  O263    2.391   .     S
Dy256  O267    2.396   .     S
Dy256  O269    2.358   .     S
Dy256  O280    2.589   .     S
Dy256  O288    2.227   .     S
Dy256  Dy334   3.681   .     S
Dy256  Dy289   3.681   .     S
C257   N258    1.341   .     D
C257   C261    1.491   .     S
C257   C266    1.402   .     S
N258   C259    1.322   .     S
N258   Cu276   1.972   .     S
C259   H260    0.930   .     S
C259   C264    1.379   .     D
C261   O267    1.245   .     A
C261   O268    1.265   .     A
N262   C264    1.324   .     S
N262   C266    1.376   .     S
O263   C266    1.284   .     D
C264   H553    0.933   1_554 A
H265   C552    0.933   .     S
O268   Cu276   1.941   .     S
O269   Dy334   2.327   .     S
Cu271  N441    1.972   1_554 A
Cu272  N18     1.972   1_545 S
Cu272  O28     1.941   1_545 D
Cu273  N486    1.971   1_554 S
Cu274  N213    1.972   1_455 D
Cu274  O223    1.941   1_455 A
Cu275  N531    1.972   1_554 S
Cu277  N321    1.972   .     S
Cu278  N366    1.971   .     S
Cu279  N411    1.972   .     S
O280   Dy289   2.588   .     S
O280   Dy334   2.588   .     S
O280   Dy379   2.588   .     S
O281   Dy76    2.588   1_445 S
O281   Dy121   2.588   1_545 S
O281   Dy151   2.588   1_445 S
O281   Dy241   2.588   1_455 S
O282   Dy424   2.588   1_554 S
O282   Dy469   2.588   1_554 S
O282   Dy514   2.588   1_554 S
O285   Dy76    2.227   1_445 S
O285   Dy121   2.226   1_545 S
O287   Dy151   2.227   1_445 D
O287   Dy241   2.226   1_455 S
Dy289  O296    2.391   .     S
Dy289  O571    2.227   .     S
Dy289  Dy334   3.640   .     S
Dy289  Dy379   3.640   .     S
Dy289  N505    2.529   .     S
Dy289  O506    2.600   .     S
C290   N291    1.341   .     D
C290   C294    1.491   .     S
C290   C299    1.402   .     S
N291   C292    1.322   .     S
N291   Cu559   1.972   .     S
C292   H293    0.930   .     S
C292   C297    1.379   .     D
C294   O301    1.265   .     A
N295   C297    1.324   .     S
N295   C299    1.376   .     S
N295   Dy544   2.529   .     S
O296   C299    1.284   .     D
O296   Dy544   2.600   .     S
C297   H298    0.933   .     S
O300   Dy1     2.396   1_556 S
O300   C6      1.245   1_556 S
O301   Cu559   1.941   .     S
O302   Dy544   2.327   .     S
O302   H513    0.990   .     S
O302   Dy1     2.358   1_556 S
O302   Dy46    2.411   1_556 S
H303   O557    0.990   .     S
Dy304  O311    2.391   .     S
Dy304  O315    2.396   .     S
Dy304  O317    2.358   .     S
Dy304  O570    2.588   .     S
Dy304  O572    2.227   .     S
Dy304  Dy349   3.640   .     S
Dy304  Dy394   3.640   .     S
Dy304  N475    2.529   .     S
Dy304  O476    2.600   .     S
Dy304  O482    2.327   .     S
Dy304  O407    2.411   .     S
C305   N306    1.341   .     D
C305   C309    1.491   .     S
C305   C314    1.402   .     S
N306   C307    1.322   .     S
N306   Cu560   1.972   1_565 S
C307   H308    0.930   .     S
C307   C312    1.379   .     D
C309   O315    1.245   .     A
C309   O316    1.265   .     A
N310   C312    1.324   .     S
N310   C314    1.376   .     S
N310   Dy514   2.529   .     S
O311   C314    1.284   .     D
O311   Dy514   2.600   .     S
C312   H25     0.933   1_556 S
O316   Cu560   1.941   1_565 S
O317   Dy349   2.411   .     S
O317   H483    0.990   .     S
H318   O527    0.990   .     S
Dy319  O326    2.391   .     S
Dy319  O330    2.396   .     S
Dy319  O569    2.588   .     S
Dy319  O573    2.227   .     S
Dy319  N490    2.529   .     S
Dy319  O497    2.327   .     S
Dy319  Dy484   3.681   .     S
Dy319  O422    2.411   .     S
Dy319  O203    2.601   1_556 S
Dy319  O332    2.358   1_455 D
Dy319  Dy364   3.640   1_445 S
Dy319  Dy409   3.640   1_545 S
Dy319  Dy529   3.681   1_455 A
C320   C324    1.491   .     S
C320   N33     1.341   1_556 S
C320   C41     1.402   1_556 S
N321   C322    1.322   .     S
C322   H323    0.930   .     S
C322   C327    1.379   .     D
C324   O330    1.245   .     A
C324   O331    1.265   .     A
N325   C327    1.324   .     S
N325   C329    1.376   .     S
N325   Dy529   2.529   1_455 S
O326   C41     1.284   1_556 S
O326   Dy241   2.600   1_456 S
C327   H328    0.933   .     S
O331   Cu565   1.941   .     S
O332   Dy529   2.327   .     S
O332   Dy319   2.358   1_655 D
O332   Dy364   2.411   1_545 S
O332   H498    0.990   1_655 S
H333   O542    0.990   1_545 S
Dy334  O341    2.391   .     S
Dy334  O571    2.227   .     S
Dy334  Dy379   3.640   .     S
Dy334  N550    2.529   .     S
Dy334  O551    2.600   .     S
C335   N336    1.341   .     D
C335   C339    1.491   .     S
C335   C344    1.402   .     S
N336   C337    1.322   .     S
N336   Cu561   1.972   .     S
C337   H338    0.930   .     S
C337   C342    1.379   .     D
C339   O346    1.265   .     A
N340   C342    1.324   .     S
N340   C344    1.376   .     S
N340   Dy454   2.529   .     S
O341   C344    1.284   .     D
O341   Dy454   2.600   .     S
C342   H343    0.933   .     S
O345   Dy46    2.396   1_556 S
O345   C51     1.245   1_556 S
O346   Cu561   1.941   .     S
O347   Dy454   2.327   .     S
O347   H558    0.990   .     S
O347   Dy46    2.358   1_556 S
O347   Dy91    2.411   1_556 S
H348   O467    0.990   .     S
Dy349  O356    2.391   .     S
Dy349  O360    2.396   .     S
Dy349  O362    2.358   .     S
Dy349  O570    2.588   .     S
Dy349  O572    2.226   .     S
Dy349  Dy394   3.640   .     S
Dy349  N520    2.529   .     S
Dy349  O521    2.600   .     S
Dy349  O527    2.327   .     S
C350   N351    1.341   .     D
C350   C354    1.491   .     S
C350   C359    1.402   .     S
N351   C352    1.322   .     S
N351   Cu562   1.972   .     S
C352   H353    0.930   .     S
C352   C357    1.379   .     D
C354   O360    1.245   .     A
C354   O361    1.265   .     A
N355   C357    1.324   .     S
N355   C359    1.376   .     S
N355   Dy424   2.529   .     S
O356   C359    1.284   .     D
O356   Dy424   2.600   .     S
C357   H70     0.933   1_556 S
O361   Cu562   1.941   .     S
O362   Dy394   2.411   .     S
O362   H528    0.990   .     S
H363   O437    0.990   .     S
Dy364  O371    2.391   .     S
Dy364  O375    2.396   .     S
Dy364  O377    2.358   .     S
Dy364  O542    2.327   .     S
Dy364  Dy439   3.681   .     S
Dy364  O248    2.600   1_566 S
Dy364  Dy319   3.640   1_665 S
Dy364  O332    2.411   1_565 S
Dy364  O569    2.588   1_665 D
Dy364  O573    2.227   1_665 S
Dy364  Dy409   3.640   1_655 S
Dy364  N535    2.529   1_565 S
Dy364  Dy529   3.681   1_565 D
C365   C369    1.491   .     S
C365   N78     1.341   1_556 S
C365   C86     1.402   1_556 D
N366   C367    1.322   .     S
C367   H368    0.930   .     S
C367   C372    1.379   .     D
C369   O375    1.245   .     A
C369   O376    1.265   .     A
N370   C372    1.324   .     S
N370   C374    1.376   .     S
N370   Dy439   2.529   .     S
O371   C86     1.284   1_556 S
O371   Dy151   2.601   1_556 S
C372   H373    0.933   .     S
O376   Cu566   1.941   .     S
O377   Dy439   2.327   .     S
O377   H543    0.990   .     S
O377   Dy409   2.411   1_655 D
H378   O452    0.990   1_655 S
Dy379  O386    2.391   .     S
Dy379  O571    2.226   .     S
Dy379  N460    2.529   .     S
Dy379  O461    2.600   .     S
C380   N381    1.341   .     D
C380   C384    1.491   .     S
C380   C389    1.402   .     S
N381   C382    1.322   .     S
N381   Cu563   1.972   .     S
C382   H383    0.930   .     S
C382   C387    1.379   .     D
C384   O391    1.265   .     A
N385   C387    1.324   .     S
N385   C389    1.376   .     S
N385   Dy499   2.529   .     S
O386   C389    1.284   .     D
O386   Dy499   2.600   .     S
C387   H388    0.933   .     S
O390   Dy91    2.396   1_556 S
O390   C96     1.245   1_556 S
O391   Cu563   1.941   .     S
O392   Dy499   2.327   .     S
O392   H468    0.990   .     S
O392   Dy1     2.411   1_556 D
O392   Dy91    2.358   1_556 S
H393   O512    0.990   .     S
Dy394  O401    2.391   .     S
Dy394  O405    2.396   .     S
Dy394  O407    2.358   .     S
Dy394  O570    2.589   .     S
Dy394  O572    2.227   .     S
Dy394  N430    2.529   .     S
Dy394  O431    2.600   .     S
Dy394  O437    2.327   .     S
C395   N396    1.341   .     D
C395   C399    1.491   .     S
C395   C404    1.402   .     S
N396   C397    1.322   .     S
N396   Cu564   1.972   .     S
C397   H398    0.930   .     S
C397   C402    1.379   .     D
C399   O405    1.245   .     A
C399   O406    1.265   .     A
N400   C402    1.324   .     S
N400   C404    1.376   .     S
N400   Dy469   2.529   .     S
O401   C404    1.284   .     D
O401   Dy469   2.600   .     S
C402   H115    0.933   1_556 S
O406   Cu564   1.941   .     S
O407   H438    0.990   .     S
H408   O482    0.990   .     S
Dy409  O416    2.391   .     S
Dy409  O420    2.396   .     S
Dy409  O452    2.327   .     S
Dy409  O158    2.600   1_456 A
Dy409  Dy319   3.640   1_565 S
Dy409  Dy364   3.640   1_455 S
Dy409  O377    2.411   1_455 D
Dy409  O422    2.358   1_565 S
Dy409  O569    2.588   1_565 S
Dy409  O573    2.226   1_565 D
Dy409  N445    2.529   1_455 S
Dy409  Dy484   3.681   1_565 D
Dy409  Dy439   3.681   1_455 A
C410   C414    1.491   .     S
C410   N123    1.341   1_556 S
C410   C131    1.402   1_556 S
N411   C412    1.322   .     S
C412   H413    0.930   .     S
C412   C417    1.379   .     D
C414   O420    1.245   .     A
C414   O421    1.265   .     A
N415   C417    1.324   .     S
N415   C419    1.376   .     S
N415   Dy484   2.529   1_565 D
O416   C131    1.284   1_556 S
O416   Dy196   2.600   1_566 S
C417   H418    0.933   .     S
O421   Cu567   1.942   .     S
O422   Dy484   2.327   .     S
O422   Dy409   2.358   1_545 S
O422   H453    0.990   1_545 S
H423   O497    0.990   .     S
Dy424  O431    2.391   .     S
Dy424  O574    2.227   .     S
Dy424  Dy469   3.640   .     S
Dy424  Dy514   3.640   .     S
Dy424  Dy61    3.681   1_556 S
Dy424  O74     2.327   1_556 D
Dy424  Dy106   3.681   1_556 S
Dy424  O147    2.396   1_556 D
Dy424  O149    2.358   1_556 S
Dy424  O239    2.411   1_556 D
Dy424  O282    2.588   1_556 S
C425   N426    1.341   .     D
C425   C429    1.491   .     S
C425   C434    1.402   .     S
N426   C427    1.322   .     S
N426   Cu565   1.972   .     S
C427   H428    0.930   .     S
C427   C432    1.379   .     D
C429   O436    1.265   .     A
C429   O147    1.245   1_556 S
N430   C432    1.324   .     S
N430   C434    1.376   .     S
O431   C434    1.284   .     D
C432   H433    0.933   .     S
O436   Cu565   1.941   .     S
Dy439  O446    2.391   .     S
Dy439  O450    2.396   .     S
Dy439  O542    2.411   .     S
Dy439  Dy409   3.681   1_655 A
Dy439  O452    2.358   1_655 S
Dy439  O569    2.588   1_665 S
Dy439  O575    2.227   1_665 S
Dy439  Dy484   3.640   1_665 D
Dy439  Dy529   3.640   1_565 S
C440   C444    1.491   .     S
N441   C442    1.322   .     S
N441   C152    1.341   1_556 D
N441   Cu271   1.972   1_556 A
C442   H443    0.930   .     S
C442   C447    1.379   .     D
C444   O450    1.245   .     A
C444   O451    1.265   .     A
N445   C447    1.324   .     S
N445   C449    1.376   .     S
N445   Dy409   2.529   1_655 S
O446   Dy121   2.600   1_655 A
C447   H448    0.933   .     S
C449   C152    1.402   1_556 S
C449   O158    1.284   1_556 S
O451   Cu559   1.941   .     S
O452   H378    0.990   1_455 S
O452   Dy439   2.358   1_455 S
O452   Dy484   2.411   1_565 S
H453   O422    0.990   1_565 S
Dy454  O461    2.391   .     S
Dy454  O465    2.396   .     S
Dy454  O467    2.358   .     S
Dy454  O568    2.588   .     S
Dy454  O576    2.227   .     S
Dy454  Dy499   3.640   .     S
Dy454  Dy544   3.640   .     S
Dy454  O557    2.411   .     S
Dy454  Dy46    3.681   1_556 S
Dy454  Dy91    3.681   1_556 S
C455   N456    1.341   .     D
C455   C459    1.491   .     S
C455   C464    1.402   .     S
N456   C457    1.322   .     S
N456   Cu560   1.972   .     S
C457   H458    0.930   .     S
C457   C462    1.379   .     D
C459   O465    1.245   .     A
C459   O466    1.265   .     A
N460   C462    1.324   .     S
N460   C464    1.376   .     S
O461   C464    1.284   .     D
H463   C174    0.933   1_556 S
O466   Cu560   1.941   .     S
O467   Dy499   2.411   .     S
O467   Dy91    2.327   1_556 S
Dy469  O476    2.391   .     S
Dy469  O574    2.227   .     S
Dy469  Dy514   3.640   .     S
Dy469  Dy16    3.681   1_556 S
Dy469  Dy106   3.681   1_556 S
Dy469  O119    2.327   1_556 D
Dy469  O149    2.411   1_556 S
Dy469  O192    2.396   1_556 S
Dy469  O194    2.358   1_556 S
Dy469  O282    2.588   1_556 S
C470   N471    1.341   .     D
C470   C474    1.491   .     S
C470   C479    1.402   .     S
N471   C472    1.322   .     S
N471   Cu566   1.972   .     S
C472   H473    0.930   .     S
C472   C477    1.379   .     D
C474   O481    1.265   .     A
C474   O192    1.245   1_556 S
N475   C477    1.324   .     S
N475   C479    1.376   .     S
O476   C479    1.284   .     D
C477   H478    0.933   .     S
O481   Cu566   1.941   .     S
Dy484  O491    2.391   .     S
Dy484  O495    2.396   .     S
Dy484  O497    2.358   .     S
Dy484  O569    2.588   .     S
Dy484  O575    2.227   .     S
Dy484  O128    2.600   1_545 S
Dy484  Dy409   3.681   1_545 D
Dy484  N415    2.529   1_545 D
Dy484  Dy439   3.640   1_445 D
Dy484  O452    2.411   1_545 S
Dy484  Dy529   3.640   1_455 S
C485   C489    1.491   .     S
N486   C487    1.322   .     S
N486   C197    1.341   1_556 D
N486   Cu273   1.971   1_556 S
C487   H488    0.930   .     S
C487   C492    1.379   .     D
C489   O495    1.245   .     A
C489   O496    1.265   .     A
N490   C492    1.324   .     S
N490   C494    1.376   .     S
C492   H493    0.933   .     S
C494   C197    1.402   1_556 S
C494   O203    1.284   1_556 S
O496   Cu561   1.941   .     S
O497   Dy529   2.411   1_455 S
H498   O332    0.990   1_455 S
Dy499  O506    2.391   .     S
Dy499  O510    2.396   .     S
Dy499  O512    2.358   .     S
Dy499  O568    2.588   .     S
Dy499  O576    2.226   .     S
Dy499  Dy544   3.640   .     S
Dy499  Dy1     3.681   1_556 S
Dy499  Dy91    3.681   1_556 S
C500   N501    1.341   .     D
C500   C504    1.491   .     S
C500   C509    1.402   .     S
N501   C502    1.322   .     S
N501   Cu562   1.972   1_655 S
C502   H503    0.930   .     S
C502   C507    1.379   .     D
C504   O510    1.245   .     A
C504   O511    1.265   .     A
N505   C507    1.324   .     S
N505   C509    1.376   .     S
O506   C509    1.284   .     D
H508   C219    0.933   1_556 A
O511   Cu562   1.941   1_655 D
O512   Dy544   2.411   .     S
O512   Dy1     2.327   1_556 S
Dy514  O521    2.391   .     S
Dy514  O574    2.226   .     S
Dy514  Dy16    3.681   1_556 S
Dy514  O29     2.327   1_556 A
Dy514  Dy61    3.681   1_556 S
Dy514  O194    2.411   1_556 S
Dy514  O237    2.396   1_556 S
Dy514  O239    2.358   1_556 S
Dy514  O282    2.588   1_556 S
C515   N516    1.341   .     D
C515   C519    1.491   .     S
C515   C524    1.402   .     S
N516   C517    1.322   .     S
N516   Cu567   1.972   .     S
C517   H518    0.930   .     S
C517   C522    1.379   .     D
C519   O526    1.265   .     A
C519   O237    1.245   1_556 S
N520   C522    1.324   .     S
N520   C524    1.376   .     S
O521   C524    1.284   .     D
C522   H523    0.933   .     S
O526   Cu567   1.941   .     S
Dy529  O536    2.391   .     S
Dy529  O540    2.396   .     S
Dy529  O38     2.600   1_655 A
Dy529  Dy319   3.681   1_655 A
Dy529  N325    2.529   1_655 S
Dy529  Dy364   3.681   1_545 D
Dy529  Dy439   3.640   1_545 S
Dy529  Dy484   3.640   1_655 S
Dy529  O497    2.411   1_655 S
Dy529  O542    2.358   1_545 S
Dy529  O569    2.588   1_655 D
Dy529  O575    2.226   1_655 S
C530   C534    1.491   .     S
N531   C532    1.322   .     S
N531   C242    1.341   1_556 S
N531   Cu275   1.972   1_556 S
C532   H533    0.930   .     S
C532   C537    1.379   .     D
C534   O540    1.245   .     A
C534   O541    1.265   .     A
N535   C537    1.324   .     S
N535   C539    1.376   .     S
N535   Dy364   2.529   1_545 S
O536   Dy76    2.600   1_545 A
C537   H538    0.933   .     S
C539   C242    1.402   1_556 D
C539   O248    1.284   1_556 S
O541   Cu563   1.942   .     S
O542   H333    0.990   1_565 S
O542   Dy529   2.358   1_565 S
Dy544  O551    2.391   .     S
Dy544  O555    2.396   .     S
Dy544  O557    2.358   .     S
Dy544  O568    2.589   .     S
Dy544  O576    2.227   .     S
Dy544  Dy1     3.681   1_556 S
Dy544  Dy46    3.681   1_556 S
C545   N546    1.341   .     D
C545   C549    1.491   .     S
C545   C554    1.402   .     S
N546   C547    1.322   .     S
N546   Cu564   1.972   .     S
C547   H548    0.930   .     S
C547   C552    1.379   .     D
C549   O555    1.245   .     A
C549   O556    1.265   .     A
N550   C552    1.324   .     S
N550   C554    1.376   .     S
O551   C554    1.284   .     D
H553   C264    0.933   1_556 A
O556   Cu564   1.941   .     S
O557   Dy46    2.327   1_556 S
Cu560  N306    1.972   1_545 S
Cu560  O316    1.941   1_545 S
Cu562  N501    1.972   1_455 S
Cu562  O511    1.941   1_455 D
Cu565  N33     1.972   1_556 S
Cu566  N78     1.971   1_556 S
Cu567  N123    1.972   1_556 S
O568   Dy1     2.588   1_556 S
O568   Dy46    2.588   1_556 S
O568   Dy91    2.588   1_556 S
O569   Dy364   2.588   1_445 D
O569   Dy409   2.588   1_545 S
O569   Dy439   2.588   1_445 S
O569   Dy529   2.588   1_455 D
O573   Dy364   2.227   1_445 S
O573   Dy409   2.226   1_545 D
O575   Dy439   2.227   1_445 S
O575   Dy529   2.226   1_455 S
