data_FIFMUD_clean
_audit_creation_date              2014-07-02
_audit_creation_method            'Materials Studio'
_symmetry_space_group_name_H-M    'P1'
_symmetry_Int_Tables_number       1
_symmetry_cell_setting            triclinic
loop_
_symmetry_equiv_pos_as_xyz
  x,y,z
_cell_length_a                    12.3089
_cell_length_b                    26.9590
_cell_length_c                    33.4930
_cell_angle_alpha                 90.0000
_cell_angle_beta                  90.0000
_cell_angle_gamma                 90.0000
loop_
_atom_site_label
_atom_site_type_symbol
_atom_site_fract_x
_atom_site_fract_y
_atom_site_fract_z
_atom_site_U_iso_or_equiv
_atom_site_adp_type
_atom_site_occupancy
Fe1    Fe    0.98198   0.93174   0.38561   0.01267  Uiso   1.00
Fe2    Fe    0.51802   0.43174   0.61439   0.01267  Uiso   1.00
Fe3    Fe    0.48198   0.43174   0.11439   0.01267  Uiso   1.00
Fe4    Fe    0.01802   0.93174   0.88561   0.01267  Uiso   1.00
Ag1    Ag    0.76095   0.27927   0.36156   0.01267  Uiso   1.00
Ag2    Ag    0.73905   0.77927   0.63844   0.01267  Uiso   1.00
Ag3    Ag    0.26095   0.77927   0.13844   0.01267  Uiso   1.00
Ag4    Ag    0.23905   0.27927   0.86156   0.01267  Uiso   1.00
H1     H     0.21390   0.96130   0.35500   0.01267  Uiso   1.00
H2     H     0.27260   0.04570   0.33420   0.01267  Uiso   1.00
H3     H     0.10990   0.10030   0.34050   0.01267  Uiso   1.00
H4     H     0.70900   0.07070   0.39870   0.01267  Uiso   1.00
H5     H     0.61660   0.99640   0.42870   0.01267  Uiso   1.00
H6     H     0.74860   0.92680   0.42340   0.01267  Uiso   1.00
H7     H     0.00380   0.13670   0.40730   0.01267  Uiso   1.00
H8     H     0.94870   0.21780   0.39810   0.01267  Uiso   1.00
H9     H     0.74510   0.17950   0.31440   0.01267  Uiso   1.00
H10    H     0.78360   0.09450   0.32360   0.01267  Uiso   1.00
H11    H     0.78940   0.96670   0.33090   0.01267  Uiso   1.00
H12    H     0.78090   0.95350   0.25600   0.01267  Uiso   1.00
H13    H     0.94130   0.90400   0.23570   0.01267  Uiso   1.00
H14    H     0.25340   0.81650   0.32240   0.01267  Uiso   1.00
H15    H     0.30990   0.82210   0.39570   0.01267  Uiso   1.00
H16    H     0.17510   0.87630   0.42820   0.01267  Uiso   1.00
H17    H     0.26490   0.89210   0.26320   0.01267  Uiso   1.00
H18    H     0.32610   0.85550   0.20500   0.01267  Uiso   1.00
H19    H     0.06160   0.77580   0.19690   0.01267  Uiso   1.00
H20    H     0.99650   0.81040   0.25450   0.01267  Uiso   1.00
H21    H     0.84600   0.84570   0.34540   0.01267  Uiso   1.00
H22    H     0.75460   0.78060   0.38080   0.01267  Uiso   1.00
H23    H     0.76870   0.79340   0.45360   0.01267  Uiso   1.00
H24    H     0.04020   0.92040   0.53550   0.01267  Uiso   1.00
H25    H     0.16840   0.98550   0.51240   0.01267  Uiso   1.00
H26    H     0.14430   0.99330   0.43830   0.01267  Uiso   1.00
H27    H     0.95740   0.78510   0.50720   0.01267  Uiso   1.00
H28    H     0.87480   0.75190   0.56190   0.01267  Uiso   1.00
H29    H     0.72690   0.87790   0.58750   0.01267  Uiso   1.00
H30    H     0.79970   0.91440   0.53130   0.01267  Uiso   1.00
H31    H     0.28610   0.46130   0.64500   0.01267  Uiso   1.00
H32    H     0.22740   0.54570   0.66580   0.01267  Uiso   1.00
H33    H     0.39010   0.60030   0.65950   0.01267  Uiso   1.00
H34    H     0.79100   0.57070   0.60130   0.01267  Uiso   1.00
H35    H     0.88340   0.49640   0.57130   0.01267  Uiso   1.00
H36    H     0.75140   0.42680   0.57660   0.01267  Uiso   1.00
H37    H     0.49620   0.63670   0.59270   0.01267  Uiso   1.00
H38    H     0.55130   0.71780   0.60190   0.01267  Uiso   1.00
H39    H     0.75490   0.67950   0.68560   0.01267  Uiso   1.00
H40    H     0.71640   0.59450   0.67640   0.01267  Uiso   1.00
H41    H     0.71060   0.46670   0.66910   0.01267  Uiso   1.00
H42    H     0.71910   0.45350   0.74400   0.01267  Uiso   1.00
H43    H     0.55870   0.40400   0.76430   0.01267  Uiso   1.00
H44    H     0.24660   0.31650   0.67760   0.01267  Uiso   1.00
H45    H     0.19010   0.32210   0.60430   0.01267  Uiso   1.00
H46    H     0.32490   0.37630   0.57180   0.01267  Uiso   1.00
H47    H     0.23510   0.39210   0.73680   0.01267  Uiso   1.00
H48    H     0.17390   0.35550   0.79500   0.01267  Uiso   1.00
H49    H     0.43840   0.27580   0.80310   0.01267  Uiso   1.00
H50    H     0.50350   0.31040   0.74550   0.01267  Uiso   1.00
H51    H     0.65400   0.34570   0.65460   0.01267  Uiso   1.00
H52    H     0.74540   0.28060   0.61920   0.01267  Uiso   1.00
H53    H     0.73130   0.29340   0.54640   0.01267  Uiso   1.00
H54    H     0.45980   0.42040   0.46450   0.01267  Uiso   1.00
H55    H     0.33160   0.48550   0.48760   0.01267  Uiso   1.00
H56    H     0.35570   0.49330   0.56170   0.01267  Uiso   1.00
H57    H     0.54260   0.28510   0.49280   0.01267  Uiso   1.00
H58    H     0.62520   0.25190   0.43810   0.01267  Uiso   1.00
H59    H     0.77310   0.37790   0.41250   0.01267  Uiso   1.00
H60    H     0.70030   0.41440   0.46870   0.01267  Uiso   1.00
H61    H     0.71390   0.46130   0.14500   0.01267  Uiso   1.00
H62    H     0.77260   0.54570   0.16580   0.01267  Uiso   1.00
H63    H     0.60990   0.60030   0.15950   0.01267  Uiso   1.00
H64    H     0.20900   0.57070   0.10130   0.01267  Uiso   1.00
H65    H     0.11660   0.49640   0.07130   0.01267  Uiso   1.00
H66    H     0.24860   0.42680   0.07660   0.01267  Uiso   1.00
H67    H     0.50380   0.63670   0.09270   0.01267  Uiso   1.00
H68    H     0.44870   0.71780   0.10190   0.01267  Uiso   1.00
H69    H     0.24510   0.67950   0.18560   0.01267  Uiso   1.00
H70    H     0.28360   0.59450   0.17640   0.01267  Uiso   1.00
H71    H     0.28940   0.46670   0.16910   0.01267  Uiso   1.00
H72    H     0.28090   0.45350   0.24400   0.01267  Uiso   1.00
H73    H     0.44130   0.40400   0.26430   0.01267  Uiso   1.00
H74    H     0.75340   0.31650   0.17760   0.01267  Uiso   1.00
H75    H     0.80990   0.32210   0.10430   0.01267  Uiso   1.00
H76    H     0.67510   0.37630   0.07180   0.01267  Uiso   1.00
H77    H     0.76490   0.39210   0.23680   0.01267  Uiso   1.00
H78    H     0.82610   0.35550   0.29500   0.01267  Uiso   1.00
H79    H     0.56160   0.27580   0.30310   0.01267  Uiso   1.00
H80    H     0.49650   0.31040   0.24550   0.01267  Uiso   1.00
H81    H     0.34600   0.34570   0.15460   0.01267  Uiso   1.00
H82    H     0.25460   0.28060   0.11920   0.01267  Uiso   1.00
H83    H     0.26870   0.29340   0.04640   0.01267  Uiso   1.00
H84    H     0.54020   0.42040   0.96450   0.01267  Uiso   1.00
H85    H     0.66840   0.48550   0.98760   0.01267  Uiso   1.00
H86    H     0.64430   0.49330   0.06170   0.01267  Uiso   1.00
H87    H     0.45740   0.28510   0.99280   0.01267  Uiso   1.00
H88    H     0.37480   0.25190   0.93810   0.01267  Uiso   1.00
H89    H     0.22690   0.37790   0.91250   0.01267  Uiso   1.00
H90    H     0.29970   0.41440   0.96870   0.01267  Uiso   1.00
H91    H     0.78610   0.96130   0.85500   0.01267  Uiso   1.00
H92    H     0.72740   0.04570   0.83420   0.01267  Uiso   1.00
H93    H     0.89010   0.10030   0.84050   0.01267  Uiso   1.00
H94    H     0.29100   0.07070   0.89870   0.01267  Uiso   1.00
H95    H     0.38340   0.99640   0.92870   0.01267  Uiso   1.00
H96    H     0.25140   0.92680   0.92340   0.01267  Uiso   1.00
H97    H     0.99620   0.13670   0.90730   0.01267  Uiso   1.00
H98    H     0.05130   0.21780   0.89810   0.01267  Uiso   1.00
H99    H     0.25490   0.17950   0.81440   0.01267  Uiso   1.00
H100   H     0.21640   0.09450   0.82360   0.01267  Uiso   1.00
H101   H     0.21060   0.96670   0.83090   0.01267  Uiso   1.00
H102   H     0.21910   0.95350   0.75600   0.01267  Uiso   1.00
H103   H     0.05870   0.90400   0.73570   0.01267  Uiso   1.00
H104   H     0.74660   0.81650   0.82240   0.01267  Uiso   1.00
H105   H     0.69010   0.82210   0.89570   0.01267  Uiso   1.00
H106   H     0.82490   0.87630   0.92820   0.01267  Uiso   1.00
H107   H     0.73510   0.89210   0.76320   0.01267  Uiso   1.00
H108   H     0.67390   0.85550   0.70500   0.01267  Uiso   1.00
H109   H     0.93840   0.77580   0.69690   0.01267  Uiso   1.00
H110   H     0.00350   0.81040   0.75450   0.01267  Uiso   1.00
H111   H     0.15400   0.84570   0.84540   0.01267  Uiso   1.00
H112   H     0.24540   0.78060   0.88080   0.01267  Uiso   1.00
H113   H     0.23130   0.79340   0.95360   0.01267  Uiso   1.00
H114   H     0.95980   0.92040   0.03550   0.01267  Uiso   1.00
H115   H     0.83160   0.98550   0.01240   0.01267  Uiso   1.00
H116   H     0.85570   0.99330   0.93830   0.01267  Uiso   1.00
H117   H     0.04260   0.78510   0.00720   0.01267  Uiso   1.00
H118   H     0.12520   0.75190   0.06190   0.01267  Uiso   1.00
H119   H     0.27310   0.87790   0.08750   0.01267  Uiso   1.00
H120   H     0.20030   0.91440   0.03130   0.01267  Uiso   1.00
C1     C     0.16870   0.98980   0.35570   0.01267  Uiso   1.00
C2     C     0.20250   0.03650   0.34350   0.01267  Uiso   1.00
C3     C     0.11430   0.06630   0.34770   0.01267  Uiso   1.00
C4     C     0.03360   0.03850   0.36400   0.01267  Uiso   1.00
C5     C     0.92410   0.05440   0.37400   0.01267  Uiso   1.00
C6     C     0.84650   0.02350   0.39086   0.01267  Uiso   1.00
C7     C     0.73920   0.03850   0.40190   0.01267  Uiso   1.00
C8     C     0.68790   0.99800   0.41790   0.01267  Uiso   1.00
C9     C     0.76320   0.95970   0.41490   0.01267  Uiso   1.00
C10    C     0.89980   0.10660   0.36659   0.01267  Uiso   1.00
C11    C     0.94830   0.14420   0.38850   0.01267  Uiso   1.00
C12    C     0.91550   0.19230   0.38280   0.01267  Uiso   1.00
C13    C     0.79570   0.17030   0.33455   0.01267  Uiso   1.00
C14    C     0.82000   0.11910   0.33890   0.01267  Uiso   1.00
C15    C     0.84160   0.94900   0.31560   0.01267  Uiso   1.00
C16    C     0.83640   0.94160   0.27320   0.01267  Uiso   1.00
C17    C     0.92410   0.91470   0.26200   0.01267  Uiso   1.00
C18    C     0.98690   0.90540   0.29817   0.01267  Uiso   1.00
C19    C     0.07860   0.87880   0.30180   0.01267  Uiso   1.00
C20    C     0.13640   0.86900   0.33830   0.01267  Uiso   1.00
C21    C     0.22130   0.83640   0.34260   0.01267  Uiso   1.00
C22    C     0.25070   0.83850   0.38310   0.01267  Uiso   1.00
C23    C     0.17590   0.86910   0.40040   0.01267  Uiso   1.00
C24    C     0.12390   0.85630   0.26420   0.01267  Uiso   1.00
C25    C     0.22090   0.86840   0.24980   0.01267  Uiso   1.00
C26    C     0.25710   0.84600   0.21520   0.01267  Uiso   1.00
C27    C     0.10430   0.79990   0.21050   0.01267  Uiso   1.00
C28    C     0.06500   0.82060   0.24440   0.01267  Uiso   1.00
C29    C     0.84620   0.84200   0.37360   0.01267  Uiso   1.00
C30    C     0.79360   0.80670   0.39330   0.01267  Uiso   1.00
C31    C     0.80220   0.81230   0.43310   0.01267  Uiso   1.00
C32    C     0.87490   0.85400   0.43690   0.01267  Uiso   1.00
C33    C     0.91710   0.87490   0.47260   0.01267  Uiso   1.00
C34    C     0.99230   0.91430   0.47496   0.01267  Uiso   1.00
C35    C     0.04930   0.93160   0.50878   0.01267  Uiso   1.00
C36    C     0.11930   0.96700   0.49630   0.01267  Uiso   1.00
C37    C     0.10480   0.97100   0.45483   0.01267  Uiso   1.00
C38    C     0.87800   0.85310   0.51020   0.01267  Uiso   1.00
C39    C     0.90700   0.80420   0.52230   0.01267  Uiso   1.00
C40    C     0.86130   0.78570   0.55560   0.01267  Uiso   1.00
C41    C     0.77340   0.85890   0.57080   0.01267  Uiso   1.00
C42    C     0.81460   0.88050   0.53680   0.01267  Uiso   1.00
C43    C     0.33130   0.48980   0.64430   0.01267  Uiso   1.00
C44    C     0.29750   0.53650   0.65650   0.01267  Uiso   1.00
C45    C     0.38570   0.56630   0.65230   0.01267  Uiso   1.00
C46    C     0.46640   0.53850   0.63600   0.01267  Uiso   1.00
C47    C     0.57590   0.55440   0.62600   0.01267  Uiso   1.00
C48    C     0.65350   0.52350   0.60914   0.01267  Uiso   1.00
C49    C     0.76080   0.53850   0.59810   0.01267  Uiso   1.00
C50    C     0.81210   0.49800   0.58210   0.01267  Uiso   1.00
C51    C     0.73680   0.45970   0.58510   0.01267  Uiso   1.00
C52    C     0.60020   0.60660   0.63341   0.01267  Uiso   1.00
C53    C     0.55170   0.64420   0.61150   0.01267  Uiso   1.00
C54    C     0.58450   0.69230   0.61720   0.01267  Uiso   1.00
C55    C     0.70430   0.67030   0.66545   0.01267  Uiso   1.00
C56    C     0.68000   0.61910   0.66110   0.01267  Uiso   1.00
C57    C     0.65840   0.44900   0.68440   0.01267  Uiso   1.00
C58    C     0.66360   0.44160   0.72680   0.01267  Uiso   1.00
C59    C     0.57590   0.41470   0.73800   0.01267  Uiso   1.00
C60    C     0.51310   0.40540   0.70183   0.01267  Uiso   1.00
C61    C     0.42140   0.37880   0.69820   0.01267  Uiso   1.00
C62    C     0.36360   0.36900   0.66170   0.01267  Uiso   1.00
C63    C     0.27870   0.33640   0.65740   0.01267  Uiso   1.00
C64    C     0.24930   0.33850   0.61690   0.01267  Uiso   1.00
C65    C     0.32410   0.36910   0.59960   0.01267  Uiso   1.00
C66    C     0.37610   0.35630   0.73580   0.01267  Uiso   1.00
C67    C     0.27910   0.36840   0.75020   0.01267  Uiso   1.00
C68    C     0.24290   0.34600   0.78480   0.01267  Uiso   1.00
C69    C     0.39570   0.29990   0.78950   0.01267  Uiso   1.00
C70    C     0.43500   0.32060   0.75560   0.01267  Uiso   1.00
C71    C     0.65380   0.34200   0.62640   0.01267  Uiso   1.00
C72    C     0.70640   0.30670   0.60670   0.01267  Uiso   1.00
C73    C     0.69780   0.31230   0.56690   0.01267  Uiso   1.00
C74    C     0.62510   0.35400   0.56310   0.01267  Uiso   1.00
C75    C     0.58290   0.37490   0.52740   0.01267  Uiso   1.00
C76    C     0.50770   0.41430   0.52504   0.01267  Uiso   1.00
C77    C     0.45070   0.43160   0.49122   0.01267  Uiso   1.00
C78    C     0.38070   0.46700   0.50370   0.01267  Uiso   1.00
C79    C     0.39520   0.47100   0.54517   0.01267  Uiso   1.00
C80    C     0.62200   0.35310   0.48980   0.01267  Uiso   1.00
C81    C     0.59300   0.30420   0.47770   0.01267  Uiso   1.00
C82    C     0.63870   0.28570   0.44440   0.01267  Uiso   1.00
C83    C     0.72660   0.35890   0.42920   0.01267  Uiso   1.00
C84    C     0.68540   0.38050   0.46320   0.01267  Uiso   1.00
C85    C     0.66870   0.48980   0.14430   0.01267  Uiso   1.00
C86    C     0.70250   0.53650   0.15650   0.01267  Uiso   1.00
C87    C     0.61430   0.56630   0.15230   0.01267  Uiso   1.00
C88    C     0.53360   0.53850   0.13600   0.01267  Uiso   1.00
C89    C     0.42410   0.55440   0.12600   0.01267  Uiso   1.00
C90    C     0.34650   0.52350   0.10914   0.01267  Uiso   1.00
C91    C     0.23920   0.53850   0.09810   0.01267  Uiso   1.00
C92    C     0.18790   0.49800   0.08210   0.01267  Uiso   1.00
C93    C     0.26320   0.45970   0.08510   0.01267  Uiso   1.00
C94    C     0.39980   0.60660   0.13341   0.01267  Uiso   1.00
C95    C     0.44830   0.64420   0.11150   0.01267  Uiso   1.00
C96    C     0.41550   0.69230   0.11720   0.01267  Uiso   1.00
C97    C     0.29570   0.67030   0.16545   0.01267  Uiso   1.00
C98    C     0.32000   0.61910   0.16110   0.01267  Uiso   1.00
C99    C     0.34160   0.44900   0.18440   0.01267  Uiso   1.00
C100   C     0.33640   0.44160   0.22680   0.01267  Uiso   1.00
C101   C     0.42410   0.41470   0.23800   0.01267  Uiso   1.00
C102   C     0.48690   0.40540   0.20183   0.01267  Uiso   1.00
C103   C     0.57860   0.37880   0.19820   0.01267  Uiso   1.00
C104   C     0.63640   0.36900   0.16170   0.01267  Uiso   1.00
C105   C     0.72130   0.33640   0.15740   0.01267  Uiso   1.00
C106   C     0.75070   0.33850   0.11690   0.01267  Uiso   1.00
C107   C     0.67590   0.36910   0.09960   0.01267  Uiso   1.00
C108   C     0.62390   0.35630   0.23580   0.01267  Uiso   1.00
C109   C     0.72090   0.36840   0.25020   0.01267  Uiso   1.00
C110   C     0.75710   0.34600   0.28480   0.01267  Uiso   1.00
C111   C     0.60430   0.29990   0.28950   0.01267  Uiso   1.00
C112   C     0.56500   0.32060   0.25560   0.01267  Uiso   1.00
C113   C     0.34620   0.34200   0.12640   0.01267  Uiso   1.00
C114   C     0.29360   0.30670   0.10670   0.01267  Uiso   1.00
C115   C     0.30220   0.31230   0.06690   0.01267  Uiso   1.00
C116   C     0.37490   0.35400   0.06310   0.01267  Uiso   1.00
C117   C     0.41710   0.37490   0.02740   0.01267  Uiso   1.00
C118   C     0.49230   0.41430   0.02504   0.01267  Uiso   1.00
C119   C     0.54930   0.43160   0.99122   0.01267  Uiso   1.00
C120   C     0.61930   0.46700   0.00370   0.01267  Uiso   1.00
C121   C     0.60480   0.47100   0.04517   0.01267  Uiso   1.00
C122   C     0.37800   0.35310   0.98980   0.01267  Uiso   1.00
C123   C     0.40700   0.30420   0.97770   0.01267  Uiso   1.00
C124   C     0.36130   0.28570   0.94440   0.01267  Uiso   1.00
C125   C     0.27340   0.35890   0.92920   0.01267  Uiso   1.00
C126   C     0.31460   0.38050   0.96320   0.01267  Uiso   1.00
C127   C     0.83130   0.98980   0.85570   0.01267  Uiso   1.00
C128   C     0.79750   0.03650   0.84350   0.01267  Uiso   1.00
C129   C     0.88570   0.06630   0.84770   0.01267  Uiso   1.00
C130   C     0.96640   0.03850   0.86400   0.01267  Uiso   1.00
C131   C     0.07590   0.05440   0.87400   0.01267  Uiso   1.00
C132   C     0.15350   0.02350   0.89086   0.01267  Uiso   1.00
C133   C     0.26080   0.03850   0.90190   0.01267  Uiso   1.00
C134   C     0.31210   0.99800   0.91790   0.01267  Uiso   1.00
C135   C     0.23680   0.95970   0.91490   0.01267  Uiso   1.00
C136   C     0.10020   0.10660   0.86659   0.01267  Uiso   1.00
C137   C     0.05170   0.14420   0.88850   0.01267  Uiso   1.00
C138   C     0.08450   0.19230   0.88280   0.01267  Uiso   1.00
C139   C     0.20430   0.17030   0.83455   0.01267  Uiso   1.00
C140   C     0.18000   0.11910   0.83890   0.01267  Uiso   1.00
C141   C     0.15840   0.94900   0.81560   0.01267  Uiso   1.00
C142   C     0.16360   0.94160   0.77320   0.01267  Uiso   1.00
C143   C     0.07590   0.91470   0.76200   0.01267  Uiso   1.00
C144   C     0.01310   0.90540   0.79817   0.01267  Uiso   1.00
C145   C     0.92140   0.87880   0.80180   0.01267  Uiso   1.00
C146   C     0.86360   0.86900   0.83830   0.01267  Uiso   1.00
C147   C     0.77870   0.83640   0.84260   0.01267  Uiso   1.00
C148   C     0.74930   0.83850   0.88310   0.01267  Uiso   1.00
C149   C     0.82410   0.86910   0.90040   0.01267  Uiso   1.00
C150   C     0.87610   0.85630   0.76420   0.01267  Uiso   1.00
C151   C     0.77910   0.86840   0.74980   0.01267  Uiso   1.00
C152   C     0.74290   0.84600   0.71520   0.01267  Uiso   1.00
C153   C     0.89570   0.79990   0.71050   0.01267  Uiso   1.00
C154   C     0.93500   0.82060   0.74440   0.01267  Uiso   1.00
C155   C     0.15380   0.84200   0.87360   0.01267  Uiso   1.00
C156   C     0.20640   0.80670   0.89330   0.01267  Uiso   1.00
C157   C     0.19780   0.81230   0.93310   0.01267  Uiso   1.00
C158   C     0.12510   0.85400   0.93690   0.01267  Uiso   1.00
C159   C     0.08290   0.87490   0.97260   0.01267  Uiso   1.00
C160   C     0.00770   0.91430   0.97496   0.01267  Uiso   1.00
C161   C     0.95070   0.93160   0.00878   0.01267  Uiso   1.00
C162   C     0.88070   0.96700   0.99630   0.01267  Uiso   1.00
C163   C     0.89520   0.97100   0.95483   0.01267  Uiso   1.00
C164   C     0.12200   0.85310   0.01020   0.01267  Uiso   1.00
C165   C     0.09300   0.80420   0.02230   0.01267  Uiso   1.00
C166   C     0.13870   0.78570   0.05560   0.01267  Uiso   1.00
C167   C     0.22660   0.85890   0.07080   0.01267  Uiso   1.00
C168   C     0.18540   0.88050   0.03680   0.01267  Uiso   1.00
N1     N     0.06840   0.98913   0.36819   0.01267  Uiso   1.00
N2     N     0.86060   0.97398   0.39857   0.01267  Uiso   1.00
N3     N     0.83710   0.20495   0.35584   0.01267  Uiso   1.00
N4     N     0.92930   0.92770   0.33006   0.01267  Uiso   1.00
N5     N     0.10350   0.88805   0.37461   0.01267  Uiso   1.00
N6     N     0.20130   0.81220   0.19547   0.01267  Uiso   1.00
N7     N     0.89990   0.87178   0.39923   0.01267  Uiso   1.00
N8     N     0.02680   0.93881   0.44087   0.01267  Uiso   1.00
N9     N     0.79630   0.81240   0.58125   0.01267  Uiso   1.00
N10    N     0.43160   0.48913   0.63181   0.01267  Uiso   1.00
N11    N     0.63940   0.47398   0.60143   0.01267  Uiso   1.00
N12    N     0.66290   0.70495   0.64416   0.01267  Uiso   1.00
N13    N     0.57070   0.42770   0.66994   0.01267  Uiso   1.00
N14    N     0.39650   0.38805   0.62539   0.01267  Uiso   1.00
N15    N     0.29870   0.31220   0.80453   0.01267  Uiso   1.00
N16    N     0.60010   0.37178   0.60077   0.01267  Uiso   1.00
N17    N     0.47320   0.43881   0.55913   0.01267  Uiso   1.00
N18    N     0.70370   0.31240   0.41875   0.01267  Uiso   1.00
N19    N     0.56840   0.48913   0.13181   0.01267  Uiso   1.00
N20    N     0.36060   0.47398   0.10143   0.01267  Uiso   1.00
N21    N     0.33710   0.70495   0.14416   0.01267  Uiso   1.00
N22    N     0.42930   0.42770   0.16994   0.01267  Uiso   1.00
N23    N     0.60350   0.38805   0.12539   0.01267  Uiso   1.00
N24    N     0.70130   0.31220   0.30453   0.01267  Uiso   1.00
N25    N     0.39990   0.37178   0.10077   0.01267  Uiso   1.00
N26    N     0.52680   0.43881   0.05913   0.01267  Uiso   1.00
N27    N     0.29630   0.31240   0.91875   0.01267  Uiso   1.00
N28    N     0.93160   0.98913   0.86819   0.01267  Uiso   1.00
N29    N     0.13940   0.97398   0.89857   0.01267  Uiso   1.00
N30    N     0.16290   0.20495   0.85584   0.01267  Uiso   1.00
N31    N     0.07070   0.92770   0.83006   0.01267  Uiso   1.00
N32    N     0.89650   0.88805   0.87461   0.01267  Uiso   1.00
N33    N     0.79870   0.81220   0.69547   0.01267  Uiso   1.00
N34    N     0.10010   0.87178   0.89923   0.01267  Uiso   1.00
N35    N     0.97320   0.93881   0.94087   0.01267  Uiso   1.00
N36    N     0.20370   0.81240   0.08125   0.01267  Uiso   1.00
Fe5    Fe    0.51802   0.56826   0.88561   0.01267  Uiso   1.00
Fe6    Fe    0.98198   0.06826   0.11439   0.01267  Uiso   1.00
Fe7    Fe    0.01802   0.06826   0.61439   0.01267  Uiso   1.00
Fe8    Fe    0.48198   0.56826   0.38561   0.01267  Uiso   1.00
Ag5    Ag    0.73905   0.22073   0.86156   0.01267  Uiso   1.00
Ag6    Ag    0.76095   0.72073   0.13844   0.01267  Uiso   1.00
Ag7    Ag    0.23905   0.72073   0.63844   0.01267  Uiso   1.00
Ag8    Ag    0.26095   0.22073   0.36156   0.01267  Uiso   1.00
H121   H     0.28610   0.53870   0.85500   0.01267  Uiso   1.00
H122   H     0.22740   0.45430   0.83420   0.01267  Uiso   1.00
H123   H     0.39010   0.39970   0.84050   0.01267  Uiso   1.00
H124   H     0.79100   0.42930   0.89870   0.01267  Uiso   1.00
H125   H     0.88340   0.50360   0.92870   0.01267  Uiso   1.00
H126   H     0.75140   0.57320   0.92340   0.01267  Uiso   1.00
H127   H     0.49620   0.36330   0.90730   0.01267  Uiso   1.00
H128   H     0.55130   0.28220   0.89810   0.01267  Uiso   1.00
H129   H     0.75490   0.32050   0.81440   0.01267  Uiso   1.00
H130   H     0.71640   0.40550   0.82360   0.01267  Uiso   1.00
H131   H     0.71060   0.53330   0.83090   0.01267  Uiso   1.00
H132   H     0.71910   0.54650   0.75600   0.01267  Uiso   1.00
H133   H     0.55870   0.59600   0.73570   0.01267  Uiso   1.00
H134   H     0.24660   0.68350   0.82240   0.01267  Uiso   1.00
H135   H     0.19010   0.67790   0.89570   0.01267  Uiso   1.00
H136   H     0.32490   0.62370   0.92820   0.01267  Uiso   1.00
H137   H     0.23510   0.60790   0.76320   0.01267  Uiso   1.00
H138   H     0.17390   0.64450   0.70500   0.01267  Uiso   1.00
H139   H     0.43840   0.72420   0.69690   0.01267  Uiso   1.00
H140   H     0.50350   0.68960   0.75450   0.01267  Uiso   1.00
H141   H     0.65400   0.65430   0.84540   0.01267  Uiso   1.00
H142   H     0.74540   0.71940   0.88080   0.01267  Uiso   1.00
H143   H     0.73130   0.70660   0.95360   0.01267  Uiso   1.00
H144   H     0.45980   0.57960   0.03550   0.01267  Uiso   1.00
H145   H     0.33160   0.51450   0.01240   0.01267  Uiso   1.00
H146   H     0.35570   0.50670   0.93830   0.01267  Uiso   1.00
H147   H     0.54260   0.71490   0.00720   0.01267  Uiso   1.00
H148   H     0.62520   0.74810   0.06190   0.01267  Uiso   1.00
H149   H     0.77310   0.62210   0.08750   0.01267  Uiso   1.00
H150   H     0.70030   0.58560   0.03130   0.01267  Uiso   1.00
H151   H     0.21390   0.03870   0.14500   0.01267  Uiso   1.00
H152   H     0.27260   0.95430   0.16580   0.01267  Uiso   1.00
H153   H     0.10990   0.89970   0.15950   0.01267  Uiso   1.00
H154   H     0.70900   0.92930   0.10130   0.01267  Uiso   1.00
H155   H     0.61660   0.00360   0.07130   0.01267  Uiso   1.00
H156   H     0.74860   0.07320   0.07660   0.01267  Uiso   1.00
H157   H     0.00380   0.86330   0.09270   0.01267  Uiso   1.00
H158   H     0.94870   0.78220   0.10190   0.01267  Uiso   1.00
H159   H     0.74510   0.82050   0.18560   0.01267  Uiso   1.00
H160   H     0.78360   0.90550   0.17640   0.01267  Uiso   1.00
H161   H     0.78940   0.03330   0.16910   0.01267  Uiso   1.00
H162   H     0.78090   0.04650   0.24400   0.01267  Uiso   1.00
H163   H     0.94130   0.09600   0.26430   0.01267  Uiso   1.00
H164   H     0.25340   0.18350   0.17760   0.01267  Uiso   1.00
H165   H     0.30990   0.17790   0.10430   0.01267  Uiso   1.00
H166   H     0.17510   0.12370   0.07180   0.01267  Uiso   1.00
H167   H     0.26490   0.10790   0.23680   0.01267  Uiso   1.00
H168   H     0.32610   0.14450   0.29500   0.01267  Uiso   1.00
H169   H     0.06160   0.22420   0.30310   0.01267  Uiso   1.00
H170   H     0.99650   0.18960   0.24550   0.01267  Uiso   1.00
H171   H     0.84600   0.15430   0.15460   0.01267  Uiso   1.00
H172   H     0.75460   0.21940   0.11920   0.01267  Uiso   1.00
H173   H     0.76870   0.20660   0.04640   0.01267  Uiso   1.00
H174   H     0.04020   0.07960   0.96450   0.01267  Uiso   1.00
H175   H     0.16840   0.01450   0.98760   0.01267  Uiso   1.00
H176   H     0.14430   0.00670   0.06170   0.01267  Uiso   1.00
H177   H     0.95740   0.21490   0.99280   0.01267  Uiso   1.00
H178   H     0.87480   0.24810   0.93810   0.01267  Uiso   1.00
H179   H     0.72690   0.12210   0.91250   0.01267  Uiso   1.00
H180   H     0.79970   0.08560   0.96870   0.01267  Uiso   1.00
H181   H     0.78610   0.03870   0.64500   0.01267  Uiso   1.00
H182   H     0.72740   0.95430   0.66580   0.01267  Uiso   1.00
H183   H     0.89010   0.89970   0.65950   0.01267  Uiso   1.00
H184   H     0.29100   0.92930   0.60130   0.01267  Uiso   1.00
H185   H     0.38340   0.00360   0.57130   0.01267  Uiso   1.00
H186   H     0.25140   0.07320   0.57660   0.01267  Uiso   1.00
H187   H     0.99620   0.86330   0.59270   0.01267  Uiso   1.00
H188   H     0.05130   0.78220   0.60190   0.01267  Uiso   1.00
H189   H     0.25490   0.82050   0.68560   0.01267  Uiso   1.00
H190   H     0.21640   0.90550   0.67640   0.01267  Uiso   1.00
H191   H     0.21060   0.03330   0.66910   0.01267  Uiso   1.00
H192   H     0.21910   0.04650   0.74400   0.01267  Uiso   1.00
H193   H     0.05870   0.09600   0.76430   0.01267  Uiso   1.00
H194   H     0.74660   0.18350   0.67760   0.01267  Uiso   1.00
H195   H     0.69010   0.17790   0.60430   0.01267  Uiso   1.00
H196   H     0.82490   0.12370   0.57180   0.01267  Uiso   1.00
H197   H     0.73510   0.10790   0.73680   0.01267  Uiso   1.00
H198   H     0.67390   0.14450   0.79500   0.01267  Uiso   1.00
H199   H     0.93840   0.22420   0.80310   0.01267  Uiso   1.00
H200   H     0.00350   0.18960   0.74550   0.01267  Uiso   1.00
H201   H     0.15400   0.15430   0.65460   0.01267  Uiso   1.00
H202   H     0.24540   0.21940   0.61920   0.01267  Uiso   1.00
H203   H     0.23130   0.20660   0.54640   0.01267  Uiso   1.00
H204   H     0.95980   0.07960   0.46450   0.01267  Uiso   1.00
H205   H     0.83160   0.01450   0.48760   0.01267  Uiso   1.00
H206   H     0.85570   0.00670   0.56170   0.01267  Uiso   1.00
H207   H     0.04260   0.21490   0.49280   0.01267  Uiso   1.00
H208   H     0.12520   0.24810   0.43810   0.01267  Uiso   1.00
H209   H     0.27310   0.12210   0.41250   0.01267  Uiso   1.00
H210   H     0.20030   0.08560   0.46870   0.01267  Uiso   1.00
H211   H     0.71390   0.53870   0.35500   0.01267  Uiso   1.00
H212   H     0.77260   0.45430   0.33420   0.01267  Uiso   1.00
H213   H     0.60990   0.39970   0.34050   0.01267  Uiso   1.00
H214   H     0.20900   0.42930   0.39870   0.01267  Uiso   1.00
H215   H     0.11660   0.50360   0.42870   0.01267  Uiso   1.00
H216   H     0.24860   0.57320   0.42340   0.01267  Uiso   1.00
H217   H     0.50380   0.36330   0.40730   0.01267  Uiso   1.00
H218   H     0.44870   0.28220   0.39810   0.01267  Uiso   1.00
H219   H     0.24510   0.32050   0.31440   0.01267  Uiso   1.00
H220   H     0.28360   0.40550   0.32360   0.01267  Uiso   1.00
H221   H     0.28940   0.53330   0.33090   0.01267  Uiso   1.00
H222   H     0.28090   0.54650   0.25600   0.01267  Uiso   1.00
H223   H     0.44130   0.59600   0.23570   0.01267  Uiso   1.00
H224   H     0.75340   0.68350   0.32240   0.01267  Uiso   1.00
H225   H     0.80990   0.67790   0.39570   0.01267  Uiso   1.00
H226   H     0.67510   0.62370   0.42820   0.01267  Uiso   1.00
H227   H     0.76490   0.60790   0.26320   0.01267  Uiso   1.00
H228   H     0.82610   0.64450   0.20500   0.01267  Uiso   1.00
H229   H     0.56160   0.72420   0.19690   0.01267  Uiso   1.00
H230   H     0.49650   0.68960   0.25450   0.01267  Uiso   1.00
H231   H     0.34600   0.65430   0.34540   0.01267  Uiso   1.00
H232   H     0.25460   0.71940   0.38080   0.01267  Uiso   1.00
H233   H     0.26870   0.70660   0.45360   0.01267  Uiso   1.00
H234   H     0.54020   0.57960   0.53550   0.01267  Uiso   1.00
H235   H     0.66840   0.51450   0.51240   0.01267  Uiso   1.00
H236   H     0.64430   0.50670   0.43830   0.01267  Uiso   1.00
H237   H     0.45740   0.71490   0.50720   0.01267  Uiso   1.00
H238   H     0.37480   0.74810   0.56190   0.01267  Uiso   1.00
H239   H     0.22690   0.62210   0.58750   0.01267  Uiso   1.00
H240   H     0.29970   0.58560   0.53130   0.01267  Uiso   1.00
C169   C     0.33130   0.51020   0.85570   0.01267  Uiso   1.00
C170   C     0.29750   0.46350   0.84350   0.01267  Uiso   1.00
C171   C     0.38570   0.43370   0.84770   0.01267  Uiso   1.00
C172   C     0.46640   0.46150   0.86400   0.01267  Uiso   1.00
C173   C     0.57590   0.44560   0.87400   0.01267  Uiso   1.00
C174   C     0.65350   0.47650   0.89086   0.01267  Uiso   1.00
C175   C     0.76080   0.46150   0.90190   0.01267  Uiso   1.00
C176   C     0.81210   0.50200   0.91790   0.01267  Uiso   1.00
C177   C     0.73680   0.54030   0.91490   0.01267  Uiso   1.00
C178   C     0.60020   0.39340   0.86659   0.01267  Uiso   1.00
C179   C     0.55170   0.35580   0.88850   0.01267  Uiso   1.00
C180   C     0.58450   0.30770   0.88280   0.01267  Uiso   1.00
C181   C     0.70430   0.32970   0.83455   0.01267  Uiso   1.00
C182   C     0.68000   0.38090   0.83890   0.01267  Uiso   1.00
C183   C     0.65840   0.55100   0.81560   0.01267  Uiso   1.00
C184   C     0.66360   0.55840   0.77320   0.01267  Uiso   1.00
C185   C     0.57590   0.58530   0.76200   0.01267  Uiso   1.00
C186   C     0.51310   0.59460   0.79817   0.01267  Uiso   1.00
C187   C     0.42140   0.62120   0.80180   0.01267  Uiso   1.00
C188   C     0.36360   0.63100   0.83830   0.01267  Uiso   1.00
C189   C     0.27870   0.66360   0.84260   0.01267  Uiso   1.00
C190   C     0.24930   0.66150   0.88310   0.01267  Uiso   1.00
C191   C     0.32410   0.63090   0.90040   0.01267  Uiso   1.00
C192   C     0.37610   0.64370   0.76420   0.01267  Uiso   1.00
C193   C     0.27910   0.63160   0.74980   0.01267  Uiso   1.00
C194   C     0.24290   0.65400   0.71520   0.01267  Uiso   1.00
C195   C     0.39570   0.70010   0.71050   0.01267  Uiso   1.00
C196   C     0.43500   0.67940   0.74440   0.01267  Uiso   1.00
C197   C     0.65380   0.65800   0.87360   0.01267  Uiso   1.00
C198   C     0.70640   0.69330   0.89330   0.01267  Uiso   1.00
C199   C     0.69780   0.68770   0.93310   0.01267  Uiso   1.00
C200   C     0.62510   0.64600   0.93690   0.01267  Uiso   1.00
C201   C     0.58290   0.62510   0.97260   0.01267  Uiso   1.00
C202   C     0.50770   0.58570   0.97496   0.01267  Uiso   1.00
C203   C     0.45070   0.56840   0.00878   0.01267  Uiso   1.00
C204   C     0.38070   0.53300   0.99630   0.01267  Uiso   1.00
C205   C     0.39520   0.52900   0.95483   0.01267  Uiso   1.00
C206   C     0.62200   0.64690   0.01020   0.01267  Uiso   1.00
C207   C     0.59300   0.69580   0.02230   0.01267  Uiso   1.00
C208   C     0.63870   0.71430   0.05560   0.01267  Uiso   1.00
C209   C     0.72660   0.64110   0.07080   0.01267  Uiso   1.00
C210   C     0.68540   0.61950   0.03680   0.01267  Uiso   1.00
C211   C     0.16870   0.01020   0.14430   0.01267  Uiso   1.00
C212   C     0.20250   0.96350   0.15650   0.01267  Uiso   1.00
C213   C     0.11430   0.93370   0.15230   0.01267  Uiso   1.00
C214   C     0.03360   0.96150   0.13600   0.01267  Uiso   1.00
C215   C     0.92410   0.94560   0.12600   0.01267  Uiso   1.00
C216   C     0.84650   0.97650   0.10914   0.01267  Uiso   1.00
C217   C     0.73920   0.96150   0.09810   0.01267  Uiso   1.00
C218   C     0.68790   0.00200   0.08210   0.01267  Uiso   1.00
C219   C     0.76320   0.04030   0.08510   0.01267  Uiso   1.00
C220   C     0.89980   0.89340   0.13341   0.01267  Uiso   1.00
C221   C     0.94830   0.85580   0.11150   0.01267  Uiso   1.00
C222   C     0.91550   0.80770   0.11720   0.01267  Uiso   1.00
C223   C     0.79570   0.82970   0.16545   0.01267  Uiso   1.00
C224   C     0.82000   0.88090   0.16110   0.01267  Uiso   1.00
C225   C     0.84160   0.05100   0.18440   0.01267  Uiso   1.00
C226   C     0.83640   0.05840   0.22680   0.01267  Uiso   1.00
C227   C     0.92410   0.08530   0.23800   0.01267  Uiso   1.00
C228   C     0.98690   0.09460   0.20183   0.01267  Uiso   1.00
C229   C     0.07860   0.12120   0.19820   0.01267  Uiso   1.00
C230   C     0.13640   0.13100   0.16170   0.01267  Uiso   1.00
C231   C     0.22130   0.16360   0.15740   0.01267  Uiso   1.00
C232   C     0.25070   0.16150   0.11690   0.01267  Uiso   1.00
C233   C     0.17590   0.13090   0.09960   0.01267  Uiso   1.00
C234   C     0.12390   0.14370   0.23580   0.01267  Uiso   1.00
C235   C     0.22090   0.13160   0.25020   0.01267  Uiso   1.00
C236   C     0.25710   0.15400   0.28480   0.01267  Uiso   1.00
C237   C     0.10430   0.20010   0.28950   0.01267  Uiso   1.00
C238   C     0.06500   0.17940   0.25560   0.01267  Uiso   1.00
C239   C     0.84620   0.15800   0.12640   0.01267  Uiso   1.00
C240   C     0.79360   0.19330   0.10670   0.01267  Uiso   1.00
C241   C     0.80220   0.18770   0.06690   0.01267  Uiso   1.00
C242   C     0.87490   0.14600   0.06310   0.01267  Uiso   1.00
C243   C     0.91710   0.12510   0.02740   0.01267  Uiso   1.00
C244   C     0.99230   0.08570   0.02504   0.01267  Uiso   1.00
C245   C     0.04930   0.06840   0.99122   0.01267  Uiso   1.00
C246   C     0.11930   0.03300   0.00370   0.01267  Uiso   1.00
C247   C     0.10480   0.02900   0.04517   0.01267  Uiso   1.00
C248   C     0.87800   0.14690   0.98980   0.01267  Uiso   1.00
C249   C     0.90700   0.19580   0.97770   0.01267  Uiso   1.00
C250   C     0.86130   0.21430   0.94440   0.01267  Uiso   1.00
C251   C     0.77340   0.14110   0.92920   0.01267  Uiso   1.00
C252   C     0.81460   0.11950   0.96320   0.01267  Uiso   1.00
C253   C     0.83130   0.01020   0.64430   0.01267  Uiso   1.00
C254   C     0.79750   0.96350   0.65650   0.01267  Uiso   1.00
C255   C     0.88570   0.93370   0.65230   0.01267  Uiso   1.00
C256   C     0.96640   0.96150   0.63600   0.01267  Uiso   1.00
C257   C     0.07590   0.94560   0.62600   0.01267  Uiso   1.00
C258   C     0.15350   0.97650   0.60914   0.01267  Uiso   1.00
C259   C     0.26080   0.96150   0.59810   0.01267  Uiso   1.00
C260   C     0.31210   0.00200   0.58210   0.01267  Uiso   1.00
C261   C     0.23680   0.04030   0.58510   0.01267  Uiso   1.00
C262   C     0.10020   0.89340   0.63341   0.01267  Uiso   1.00
C263   C     0.05170   0.85580   0.61150   0.01267  Uiso   1.00
C264   C     0.08450   0.80770   0.61720   0.01267  Uiso   1.00
C265   C     0.20430   0.82970   0.66545   0.01267  Uiso   1.00
C266   C     0.18000   0.88090   0.66110   0.01267  Uiso   1.00
C267   C     0.15840   0.05100   0.68440   0.01267  Uiso   1.00
C268   C     0.16360   0.05840   0.72680   0.01267  Uiso   1.00
C269   C     0.07590   0.08530   0.73800   0.01267  Uiso   1.00
C270   C     0.01310   0.09460   0.70183   0.01267  Uiso   1.00
C271   C     0.92140   0.12120   0.69820   0.01267  Uiso   1.00
C272   C     0.86360   0.13100   0.66170   0.01267  Uiso   1.00
C273   C     0.77870   0.16360   0.65740   0.01267  Uiso   1.00
C274   C     0.74930   0.16150   0.61690   0.01267  Uiso   1.00
C275   C     0.82410   0.13090   0.59960   0.01267  Uiso   1.00
C276   C     0.87610   0.14370   0.73580   0.01267  Uiso   1.00
C277   C     0.77910   0.13160   0.75020   0.01267  Uiso   1.00
C278   C     0.74290   0.15400   0.78480   0.01267  Uiso   1.00
C279   C     0.89570   0.20010   0.78950   0.01267  Uiso   1.00
C280   C     0.93500   0.17940   0.75560   0.01267  Uiso   1.00
C281   C     0.15380   0.15800   0.62640   0.01267  Uiso   1.00
C282   C     0.20640   0.19330   0.60670   0.01267  Uiso   1.00
C283   C     0.19780   0.18770   0.56690   0.01267  Uiso   1.00
C284   C     0.12510   0.14600   0.56310   0.01267  Uiso   1.00
C285   C     0.08290   0.12510   0.52740   0.01267  Uiso   1.00
C286   C     0.00770   0.08570   0.52504   0.01267  Uiso   1.00
C287   C     0.95070   0.06840   0.49122   0.01267  Uiso   1.00
C288   C     0.88070   0.03300   0.50370   0.01267  Uiso   1.00
C289   C     0.89520   0.02900   0.54517   0.01267  Uiso   1.00
C290   C     0.12200   0.14690   0.48980   0.01267  Uiso   1.00
C291   C     0.09300   0.19580   0.47770   0.01267  Uiso   1.00
C292   C     0.13870   0.21430   0.44440   0.01267  Uiso   1.00
C293   C     0.22660   0.14110   0.42920   0.01267  Uiso   1.00
C294   C     0.18540   0.11950   0.46320   0.01267  Uiso   1.00
C295   C     0.66870   0.51020   0.35570   0.01267  Uiso   1.00
C296   C     0.70250   0.46350   0.34350   0.01267  Uiso   1.00
C297   C     0.61430   0.43370   0.34770   0.01267  Uiso   1.00
C298   C     0.53360   0.46150   0.36400   0.01267  Uiso   1.00
C299   C     0.42410   0.44560   0.37400   0.01267  Uiso   1.00
C300   C     0.34650   0.47650   0.39086   0.01267  Uiso   1.00
C301   C     0.23920   0.46150   0.40190   0.01267  Uiso   1.00
C302   C     0.18790   0.50200   0.41790   0.01267  Uiso   1.00
C303   C     0.26320   0.54030   0.41490   0.01267  Uiso   1.00
C304   C     0.39980   0.39340   0.36659   0.01267  Uiso   1.00
C305   C     0.44830   0.35580   0.38850   0.01267  Uiso   1.00
C306   C     0.41550   0.30770   0.38280   0.01267  Uiso   1.00
C307   C     0.29570   0.32970   0.33455   0.01267  Uiso   1.00
C308   C     0.32000   0.38090   0.33890   0.01267  Uiso   1.00
C309   C     0.34160   0.55100   0.31560   0.01267  Uiso   1.00
C310   C     0.33640   0.55840   0.27320   0.01267  Uiso   1.00
C311   C     0.42410   0.58530   0.26200   0.01267  Uiso   1.00
C312   C     0.48690   0.59460   0.29817   0.01267  Uiso   1.00
C313   C     0.57860   0.62120   0.30180   0.01267  Uiso   1.00
C314   C     0.63640   0.63100   0.33830   0.01267  Uiso   1.00
C315   C     0.72130   0.66360   0.34260   0.01267  Uiso   1.00
C316   C     0.75070   0.66150   0.38310   0.01267  Uiso   1.00
C317   C     0.67590   0.63090   0.40040   0.01267  Uiso   1.00
C318   C     0.62390   0.64370   0.26420   0.01267  Uiso   1.00
C319   C     0.72090   0.63160   0.24980   0.01267  Uiso   1.00
C320   C     0.75710   0.65400   0.21520   0.01267  Uiso   1.00
C321   C     0.60430   0.70010   0.21050   0.01267  Uiso   1.00
C322   C     0.56500   0.67940   0.24440   0.01267  Uiso   1.00
C323   C     0.34620   0.65800   0.37360   0.01267  Uiso   1.00
C324   C     0.29360   0.69330   0.39330   0.01267  Uiso   1.00
C325   C     0.30220   0.68770   0.43310   0.01267  Uiso   1.00
C326   C     0.37490   0.64600   0.43690   0.01267  Uiso   1.00
C327   C     0.41710   0.62510   0.47260   0.01267  Uiso   1.00
C328   C     0.49230   0.58570   0.47496   0.01267  Uiso   1.00
C329   C     0.54930   0.56840   0.50878   0.01267  Uiso   1.00
C330   C     0.61930   0.53300   0.49630   0.01267  Uiso   1.00
C331   C     0.60480   0.52900   0.45483   0.01267  Uiso   1.00
C332   C     0.37800   0.64690   0.51020   0.01267  Uiso   1.00
C333   C     0.40700   0.69580   0.52230   0.01267  Uiso   1.00
C334   C     0.36130   0.71430   0.55560   0.01267  Uiso   1.00
C335   C     0.27340   0.64110   0.57080   0.01267  Uiso   1.00
C336   C     0.31460   0.61950   0.53680   0.01267  Uiso   1.00
N37    N     0.43160   0.51087   0.86819   0.01267  Uiso   1.00
N38    N     0.63940   0.52602   0.89857   0.01267  Uiso   1.00
N39    N     0.66290   0.29505   0.85584   0.01267  Uiso   1.00
N40    N     0.57070   0.57230   0.83006   0.01267  Uiso   1.00
N41    N     0.39650   0.61195   0.87461   0.01267  Uiso   1.00
N42    N     0.29870   0.68780   0.69547   0.01267  Uiso   1.00
N43    N     0.60010   0.62822   0.89923   0.01267  Uiso   1.00
N44    N     0.47320   0.56119   0.94087   0.01267  Uiso   1.00
N45    N     0.70370   0.68760   0.08125   0.01267  Uiso   1.00
N46    N     0.06840   0.01087   0.13181   0.01267  Uiso   1.00
N47    N     0.86060   0.02602   0.10143   0.01267  Uiso   1.00
N48    N     0.83710   0.79505   0.14416   0.01267  Uiso   1.00
N49    N     0.92930   0.07230   0.16994   0.01267  Uiso   1.00
N50    N     0.10350   0.11195   0.12539   0.01267  Uiso   1.00
N51    N     0.20130   0.18780   0.30453   0.01267  Uiso   1.00
N52    N     0.89990   0.12822   0.10077   0.01267  Uiso   1.00
N53    N     0.02680   0.06119   0.05913   0.01267  Uiso   1.00
N54    N     0.79630   0.18760   0.91875   0.01267  Uiso   1.00
N55    N     0.93160   0.01087   0.63181   0.01267  Uiso   1.00
N56    N     0.13940   0.02602   0.60143   0.01267  Uiso   1.00
N57    N     0.16290   0.79505   0.64416   0.01267  Uiso   1.00
N58    N     0.07070   0.07230   0.66994   0.01267  Uiso   1.00
N59    N     0.89650   0.11195   0.62539   0.01267  Uiso   1.00
N60    N     0.79870   0.18780   0.80453   0.01267  Uiso   1.00
N61    N     0.10010   0.12822   0.60077   0.01267  Uiso   1.00
N62    N     0.97320   0.06119   0.55913   0.01267  Uiso   1.00
N63    N     0.20370   0.18760   0.41875   0.01267  Uiso   1.00
N64    N     0.56840   0.51087   0.36819   0.01267  Uiso   1.00
N65    N     0.36060   0.52602   0.39857   0.01267  Uiso   1.00
N66    N     0.33710   0.29505   0.35584   0.01267  Uiso   1.00
N67    N     0.42930   0.57230   0.33006   0.01267  Uiso   1.00
N68    N     0.60350   0.61195   0.37461   0.01267  Uiso   1.00
N69    N     0.70130   0.68780   0.19547   0.01267  Uiso   1.00
N70    N     0.39990   0.62822   0.39923   0.01267  Uiso   1.00
N71    N     0.52680   0.56119   0.44087   0.01267  Uiso   1.00
N72    N     0.29630   0.68760   0.58125   0.01267  Uiso   1.00
