data_image0
_cell_length_a       24.494
_cell_length_b       24.494
_cell_length_c       24.494
_cell_angle_alpha    90
_cell_angle_beta     90
_cell_angle_gamma    90

_symmetry_space_group_name_H-M    "P 1"
_symmetry_int_tables_number       1

loop_
  _symmetry_equiv_pos_as_xyz
  'x, y, z'

loop_
  _atom_site_label
  _atom_site_occupancy
  _atom_site_fract_x
  _atom_site_fract_y
  _atom_site_fract_z
  _atom_site_thermal_displace_type
  _atom_site_B_iso_or_equiv
  _atom_site_type_symbol
  Cu1      1.0000 0.20266  0.48410  0.14612  Biso   1.000  Cu
  Cu2      1.0000 0.21402  0.38305  0.05631  Biso   1.000  Cu
  N1       1.0000 0.22397  0.41168  0.17034  Biso   1.000  N
  N2       1.0000 0.22575  0.36941  0.13500  Biso   1.000  N
  O1       1.0000 0.19413  0.39076  0.97885  Biso   1.000  O
  O2       1.0000 0.05523  0.37149  0.82798  Biso   1.000  O
  O3       1.0000 0.18256  0.45166  0.07731  Biso   1.000  O
  O4       1.0000 0.32260  0.46008  0.76522  Biso   1.000  O
  O5       1.0000 0.25486  0.48298  0.70783  Biso   1.000  O
  O6       1.0000 0.27609  0.42498  0.95763  Biso   1.000  O
  O7       1.0000 0.06857  0.41850  0.75214  Biso   1.000  O
  C1       1.0000 0.21007  0.41754  0.88660  Biso   1.000  C
  C2       1.0000 0.15677  0.40590  0.87064  Biso   1.000  C
  C3       1.0000 0.27274  0.46477  0.75230  Biso   1.000  C
  C4       1.0000 0.14101  0.41467  0.81660  Biso   1.000  C
  C5       1.0000 0.23157  0.44588  0.79401  Biso   1.000  C
  C6       1.0000 0.17841  0.43580  0.77866  Biso   1.000  C
  C7       1.0000 0.24760  0.43662  0.84776  Biso   1.000  C
  C8       1.0000 0.22918  0.41054  0.94509  Biso   1.000  C
  C9       1.0000 0.23030  0.32320  0.16400  Biso   1.000  C
  H1       1.0000 0.23230  0.28830  0.14940  Biso   1.000  H
  C10      1.0000 0.08406  0.40111  0.79695  Biso   1.000  C
  C11      1.0000 0.23130  0.33560  0.21910  Biso   1.000  C
  H2       1.0000 0.23410  0.31140  0.24820  Biso   1.000  H
  C12      1.0000 0.22730  0.39140  0.22122  Biso   1.000  C
  H3       1.0000 0.22700  0.41210  0.25310  Biso   1.000  H
  C13      1.0000 0.14260  0.47780  0.04240  Biso   1.000  C
  H4       1.0000 0.13730  0.45630  0.01010  Biso   1.000  H
  H5       1.0000 0.15540  0.51350  0.03240  Biso   1.000  H
  H6       1.0000 0.10860  0.48110  0.06160  Biso   1.000  H
  H7       1.0000 0.13400  0.39210  0.89360  Biso   1.000  H
  H8       1.0000 0.28560  0.44090  0.85740  Biso   1.000  H
  H9       1.0000 0.16700  0.44400  0.74200  Biso   1.000  H
  Cu3      1.0000 0.29734  0.51590  0.64612  Biso   1.000  Cu
  Cu4      1.0000 0.28598  0.61695  0.55631  Biso   1.000  Cu
  N3       1.0000 0.27603  0.58832  0.67034  Biso   1.000  N
  N4       1.0000 0.27425  0.63059  0.63500  Biso   1.000  N
  O8       1.0000 0.30587  0.60924  0.47885  Biso   1.000  O
  O9       1.0000 0.44477  0.62851  0.32798  Biso   1.000  O
  O10      1.0000 0.31744  0.54834  0.57731  Biso   1.000  O
  O11      1.0000 0.17740  0.53992  0.26522  Biso   1.000  O
  O12      1.0000 0.24514  0.51702  0.20783  Biso   1.000  O
  O13      1.0000 0.22391  0.57502  0.45763  Biso   1.000  O
  O14      1.0000 0.43143  0.58150  0.25214  Biso   1.000  O
  C14      1.0000 0.28993  0.58246  0.38660  Biso   1.000  C
  C15      1.0000 0.34323  0.59410  0.37064  Biso   1.000  C
  C16      1.0000 0.22726  0.53523  0.25230  Biso   1.000  C
  C17      1.0000 0.35899  0.58533  0.31660  Biso   1.000  C
  C18      1.0000 0.26843  0.55412  0.29401  Biso   1.000  C
  C19      1.0000 0.32159  0.56420  0.27866  Biso   1.000  C
  C20      1.0000 0.25240  0.56338  0.34776  Biso   1.000  C
  C21      1.0000 0.27082  0.58946  0.44509  Biso   1.000  C
  C22      1.0000 0.26970  0.67680  0.66400  Biso   1.000  C
  H10      1.0000 0.26770  0.71170  0.64940  Biso   1.000  H
  C23      1.0000 0.41594  0.59889  0.29695  Biso   1.000  C
  C24      1.0000 0.26870  0.66440  0.71910  Biso   1.000  C
  H11      1.0000 0.26590  0.68860  0.74820  Biso   1.000  H
  C25      1.0000 0.27270  0.60860  0.72122  Biso   1.000  C
  H12      1.0000 0.27300  0.58790  0.75310  Biso   1.000  H
  C26      1.0000 0.35740  0.52220  0.54240  Biso   1.000  C
  H13      1.0000 0.36270  0.54370  0.51010  Biso   1.000  H
  H14      1.0000 0.34460  0.48650  0.53240  Biso   1.000  H
  H15      1.0000 0.39140  0.51890  0.56160  Biso   1.000  H
  H16      1.0000 0.36600  0.60790  0.39360  Biso   1.000  H
  H17      1.0000 0.21440  0.55910  0.35740  Biso   1.000  H
  H18      1.0000 0.33300  0.55600  0.24200  Biso   1.000  H
  Cu5      1.0000 0.79734  0.98410  0.35388  Biso   1.000  Cu
  Cu6      1.0000 0.78598  0.88305  0.44369  Biso   1.000  Cu
  N5       1.0000 0.77603  0.91168  0.32966  Biso   1.000  N
  N6       1.0000 0.77425  0.86941  0.36500  Biso   1.000  N
  O15      1.0000 0.80587  0.89076  0.52115  Biso   1.000  O
  O16      1.0000 0.94477  0.87149  0.67202  Biso   1.000  O
  O17      1.0000 0.81744  0.95166  0.42269  Biso   1.000  O
  O18      1.0000 0.67740  0.96008  0.73478  Biso   1.000  O
  O19      1.0000 0.74514  0.98298  0.79217  Biso   1.000  O
  O20      1.0000 0.72391  0.92498  0.54237  Biso   1.000  O
  O21      1.0000 0.93143  0.91850  0.74786  Biso   1.000  O
  C27      1.0000 0.78993  0.91754  0.61340  Biso   1.000  C
  C28      1.0000 0.84323  0.90590  0.62936  Biso   1.000  C
  C29      1.0000 0.72726  0.96477  0.74770  Biso   1.000  C
  C30      1.0000 0.85899  0.91467  0.68340  Biso   1.000  C
  C31      1.0000 0.76843  0.94588  0.70599  Biso   1.000  C
  C32      1.0000 0.82159  0.93580  0.72134  Biso   1.000  C
  C33      1.0000 0.75240  0.93662  0.65224  Biso   1.000  C
  C34      1.0000 0.77082  0.91054  0.55491  Biso   1.000  C
  C35      1.0000 0.76970  0.82320  0.33600  Biso   1.000  C
  H19      1.0000 0.76770  0.78830  0.35060  Biso   1.000  H
  C36      1.0000 0.91594  0.90111  0.70305  Biso   1.000  C
  C37      1.0000 0.76870  0.83560  0.28090  Biso   1.000  C
  H20      1.0000 0.76590  0.81140  0.25180  Biso   1.000  H
  C38      1.0000 0.77270  0.89140  0.27878  Biso   1.000  C
  H21      1.0000 0.77300  0.91210  0.24690  Biso   1.000  H
  C39      1.0000 0.85740  0.97780  0.45760  Biso   1.000  C
  H22      1.0000 0.86270  0.95630  0.48990  Biso   1.000  H
  H23      1.0000 0.84460  0.01350  0.46760  Biso   1.000  H
  H24      1.0000 0.89140  0.98110  0.43840  Biso   1.000  H
  H25      1.0000 0.86600  0.89210  0.60640  Biso   1.000  H
  H26      1.0000 0.71440  0.94090  0.64260  Biso   1.000  H
  H27      1.0000 0.83300  0.94400  0.75800  Biso   1.000  H
  Cu7      1.0000 0.70266  0.01590  0.85388  Biso   1.000  Cu
  Cu8      1.0000 0.71402  0.11695  0.94369  Biso   1.000  Cu
  N7       1.0000 0.72397  0.08832  0.82966  Biso   1.000  N
  N8       1.0000 0.72575  0.13059  0.86500  Biso   1.000  N
  O22      1.0000 0.69413  0.10924  0.02115  Biso   1.000  O
  O23      1.0000 0.55523  0.12851  0.17202  Biso   1.000  O
  O24      1.0000 0.68256  0.04834  0.92269  Biso   1.000  O
  O25      1.0000 0.82260  0.03992  0.23478  Biso   1.000  O
  O26      1.0000 0.75486  0.01702  0.29217  Biso   1.000  O
  O27      1.0000 0.77609  0.07502  0.04237  Biso   1.000  O
  O28      1.0000 0.56857  0.08150  0.24786  Biso   1.000  O
  C40      1.0000 0.71007  0.08246  0.11340  Biso   1.000  C
  C41      1.0000 0.65677  0.09410  0.12936  Biso   1.000  C
  C42      1.0000 0.77274  0.03523  0.24770  Biso   1.000  C
  C43      1.0000 0.64101  0.08533  0.18340  Biso   1.000  C
  C44      1.0000 0.73157  0.05412  0.20599  Biso   1.000  C
  C45      1.0000 0.67841  0.06420  0.22134  Biso   1.000  C
  C46      1.0000 0.74760  0.06338  0.15224  Biso   1.000  C
  C47      1.0000 0.72918  0.08946  0.05491  Biso   1.000  C
  C48      1.0000 0.73030  0.17680  0.83600  Biso   1.000  C
  H28      1.0000 0.73230  0.21170  0.85060  Biso   1.000  H
  C49      1.0000 0.58406  0.09889  0.20305  Biso   1.000  C
  C50      1.0000 0.73130  0.16440  0.78090  Biso   1.000  C
  H29      1.0000 0.73410  0.18860  0.75180  Biso   1.000  H
  C51      1.0000 0.72730  0.10860  0.77878  Biso   1.000  C
  H30      1.0000 0.72700  0.08790  0.74690  Biso   1.000  H
  C52      1.0000 0.64260  0.02220  0.95760  Biso   1.000  C
  H31      1.0000 0.63730  0.04370  0.98990  Biso   1.000  H
  H32      1.0000 0.65540  0.98650  0.96760  Biso   1.000  H
  H33      1.0000 0.60860  0.01890  0.93840  Biso   1.000  H
  H34      1.0000 0.63400  0.10790  0.10640  Biso   1.000  H
  H35      1.0000 0.78560  0.05910  0.14260  Biso   1.000  H
  H36      1.0000 0.66700  0.05600  0.25800  Biso   1.000  H
  Cu9      1.0000 0.14612  0.20266  0.48410  Biso   1.000  Cu
  Cu10     1.0000 0.05631  0.21402  0.38305  Biso   1.000  Cu
  N9       1.0000 0.17034  0.22397  0.41168  Biso   1.000  N
  N10      1.0000 0.13500  0.22575  0.36941  Biso   1.000  N
  O29      1.0000 0.97885  0.19413  0.39076  Biso   1.000  O
  O30      1.0000 0.82798  0.05523  0.37149  Biso   1.000  O
  O31      1.0000 0.07731  0.18256  0.45166  Biso   1.000  O
  O32      1.0000 0.76522  0.32260  0.46008  Biso   1.000  O
  O33      1.0000 0.70783  0.25486  0.48298  Biso   1.000  O
  O34      1.0000 0.95763  0.27609  0.42498  Biso   1.000  O
  O35      1.0000 0.75214  0.06857  0.41850  Biso   1.000  O
  C53      1.0000 0.88660  0.21007  0.41754  Biso   1.000  C
  C54      1.0000 0.87064  0.15677  0.40590  Biso   1.000  C
  C55      1.0000 0.75230  0.27274  0.46477  Biso   1.000  C
  C56      1.0000 0.81660  0.14101  0.41467  Biso   1.000  C
  C57      1.0000 0.79401  0.23157  0.44588  Biso   1.000  C
  C58      1.0000 0.77866  0.17841  0.43580  Biso   1.000  C
  C59      1.0000 0.84776  0.24760  0.43662  Biso   1.000  C
  C60      1.0000 0.94509  0.22918  0.41054  Biso   1.000  C
  C61      1.0000 0.16400  0.23030  0.32320  Biso   1.000  C
  H37      1.0000 0.14940  0.23230  0.28830  Biso   1.000  H
  C62      1.0000 0.79695  0.08406  0.40111  Biso   1.000  C
  C63      1.0000 0.21910  0.23130  0.33560  Biso   1.000  C
  H38      1.0000 0.24820  0.23410  0.31140  Biso   1.000  H
  C64      1.0000 0.22122  0.22730  0.39140  Biso   1.000  C
  H39      1.0000 0.25310  0.22700  0.41210  Biso   1.000  H
  C65      1.0000 0.04240  0.14260  0.47780  Biso   1.000  C
  H40      1.0000 0.01010  0.13730  0.45630  Biso   1.000  H
  H41      1.0000 0.03240  0.15540  0.51350  Biso   1.000  H
  H42      1.0000 0.06160  0.10860  0.48110  Biso   1.000  H
  H43      1.0000 0.89360  0.13400  0.39210  Biso   1.000  H
  H44      1.0000 0.85740  0.28560  0.44090  Biso   1.000  H
  H45      1.0000 0.74200  0.16700  0.44400  Biso   1.000  H
  Cu11     1.0000 0.64612  0.29734  0.51590  Biso   1.000  Cu
  Cu12     1.0000 0.55631  0.28598  0.61695  Biso   1.000  Cu
  N11      1.0000 0.67034  0.27603  0.58832  Biso   1.000  N
  N12      1.0000 0.63500  0.27425  0.63059  Biso   1.000  N
  O36      1.0000 0.47885  0.30587  0.60924  Biso   1.000  O
  O37      1.0000 0.32798  0.44477  0.62851  Biso   1.000  O
  O38      1.0000 0.57731  0.31744  0.54834  Biso   1.000  O
  O39      1.0000 0.26522  0.17740  0.53992  Biso   1.000  O
  O40      1.0000 0.20783  0.24514  0.51702  Biso   1.000  O
  O41      1.0000 0.45763  0.22391  0.57502  Biso   1.000  O
  O42      1.0000 0.25214  0.43143  0.58150  Biso   1.000  O
  C66      1.0000 0.38660  0.28993  0.58246  Biso   1.000  C
  C67      1.0000 0.37064  0.34323  0.59410  Biso   1.000  C
  C68      1.0000 0.25230  0.22726  0.53523  Biso   1.000  C
  C69      1.0000 0.31660  0.35899  0.58533  Biso   1.000  C
  C70      1.0000 0.29401  0.26843  0.55412  Biso   1.000  C
  C71      1.0000 0.27866  0.32159  0.56420  Biso   1.000  C
  C72      1.0000 0.34776  0.25240  0.56338  Biso   1.000  C
  C73      1.0000 0.44509  0.27082  0.58946  Biso   1.000  C
  C74      1.0000 0.66400  0.26970  0.67680  Biso   1.000  C
  H46      1.0000 0.64940  0.26770  0.71170  Biso   1.000  H
  C75      1.0000 0.29695  0.41594  0.59889  Biso   1.000  C
  C76      1.0000 0.71910  0.26870  0.66440  Biso   1.000  C
  H47      1.0000 0.74820  0.26590  0.68860  Biso   1.000  H
  C77      1.0000 0.72122  0.27270  0.60860  Biso   1.000  C
  H48      1.0000 0.75310  0.27300  0.58790  Biso   1.000  H
  C78      1.0000 0.54240  0.35740  0.52220  Biso   1.000  C
  H49      1.0000 0.51010  0.36270  0.54370  Biso   1.000  H
  H50      1.0000 0.53240  0.34460  0.48650  Biso   1.000  H
  H51      1.0000 0.56160  0.39140  0.51890  Biso   1.000  H
  H52      1.0000 0.39360  0.36600  0.60790  Biso   1.000  H
  H53      1.0000 0.35740  0.21440  0.55910  Biso   1.000  H
  H54      1.0000 0.24200  0.33300  0.55600  Biso   1.000  H
  Cu13     1.0000 0.35388  0.79734  0.98410  Biso   1.000  Cu
  Cu14     1.0000 0.44369  0.78598  0.88305  Biso   1.000  Cu
  N13      1.0000 0.32966  0.77603  0.91168  Biso   1.000  N
  N14      1.0000 0.36500  0.77425  0.86941  Biso   1.000  N
  O43      1.0000 0.52115  0.80587  0.89076  Biso   1.000  O
  O44      1.0000 0.67202  0.94477  0.87149  Biso   1.000  O
  O45      1.0000 0.42269  0.81744  0.95166  Biso   1.000  O
  O46      1.0000 0.73478  0.67740  0.96008  Biso   1.000  O
  O47      1.0000 0.79217  0.74514  0.98298  Biso   1.000  O
  O48      1.0000 0.54237  0.72391  0.92498  Biso   1.000  O
  O49      1.0000 0.74786  0.93143  0.91850  Biso   1.000  O
  C79      1.0000 0.61340  0.78993  0.91754  Biso   1.000  C
  C80      1.0000 0.62936  0.84323  0.90590  Biso   1.000  C
  C81      1.0000 0.74770  0.72726  0.96477  Biso   1.000  C
  C82      1.0000 0.68340  0.85899  0.91467  Biso   1.000  C
  C83      1.0000 0.70599  0.76843  0.94588  Biso   1.000  C
  C84      1.0000 0.72134  0.82159  0.93580  Biso   1.000  C
  C85      1.0000 0.65224  0.75240  0.93662  Biso   1.000  C
  C86      1.0000 0.55491  0.77082  0.91054  Biso   1.000  C
  C87      1.0000 0.33600  0.76970  0.82320  Biso   1.000  C
  H55      1.0000 0.35060  0.76770  0.78830  Biso   1.000  H
  C88      1.0000 0.70305  0.91594  0.90111  Biso   1.000  C
  C89      1.0000 0.28090  0.76870  0.83560  Biso   1.000  C
  H56      1.0000 0.25180  0.76590  0.81140  Biso   1.000  H
  C90      1.0000 0.27878  0.77270  0.89140  Biso   1.000  C
  H57      1.0000 0.24690  0.77300  0.91210  Biso   1.000  H
  C91      1.0000 0.45760  0.85740  0.97780  Biso   1.000  C
  H58      1.0000 0.48990  0.86270  0.95630  Biso   1.000  H
  H59      1.0000 0.46760  0.84460  0.01350  Biso   1.000  H
  H60      1.0000 0.43840  0.89140  0.98110  Biso   1.000  H
  H61      1.0000 0.60640  0.86600  0.89210  Biso   1.000  H
  H62      1.0000 0.64260  0.71440  0.94090  Biso   1.000  H
  H63      1.0000 0.75800  0.83300  0.94400  Biso   1.000  H
  Cu15     1.0000 0.85388  0.70266  0.01590  Biso   1.000  Cu
  Cu16     1.0000 0.94369  0.71402  0.11695  Biso   1.000  Cu
  N15      1.0000 0.82966  0.72397  0.08832  Biso   1.000  N
  N16      1.0000 0.86500  0.72575  0.13059  Biso   1.000  N
  O50      1.0000 0.02115  0.69413  0.10924  Biso   1.000  O
  O51      1.0000 0.17202  0.55523  0.12851  Biso   1.000  O
  O52      1.0000 0.92269  0.68256  0.04834  Biso   1.000  O
  O53      1.0000 0.23478  0.82260  0.03992  Biso   1.000  O
  O54      1.0000 0.29217  0.75486  0.01702  Biso   1.000  O
  O55      1.0000 0.04237  0.77609  0.07502  Biso   1.000  O
  O56      1.0000 0.24786  0.56857  0.08150  Biso   1.000  O
  C92      1.0000 0.11340  0.71007  0.08246  Biso   1.000  C
  C93      1.0000 0.12936  0.65677  0.09410  Biso   1.000  C
  C94      1.0000 0.24770  0.77274  0.03523  Biso   1.000  C
  C95      1.0000 0.18340  0.64101  0.08533  Biso   1.000  C
  C96      1.0000 0.20599  0.73157  0.05412  Biso   1.000  C
  C97      1.0000 0.22134  0.67841  0.06420  Biso   1.000  C
  C98      1.0000 0.15224  0.74760  0.06338  Biso   1.000  C
  C99      1.0000 0.05491  0.72918  0.08946  Biso   1.000  C
  C100     1.0000 0.83600  0.73030  0.17680  Biso   1.000  C
  H64      1.0000 0.85060  0.73230  0.21170  Biso   1.000  H
  C101     1.0000 0.20305  0.58406  0.09889  Biso   1.000  C
  C102     1.0000 0.78090  0.73130  0.16440  Biso   1.000  C
  H65      1.0000 0.75180  0.73410  0.18860  Biso   1.000  H
  C103     1.0000 0.77878  0.72730  0.10860  Biso   1.000  C
  H66      1.0000 0.74690  0.72700  0.08790  Biso   1.000  H
  C104     1.0000 0.95760  0.64260  0.02220  Biso   1.000  C
  H67      1.0000 0.98990  0.63730  0.04370  Biso   1.000  H
  H68      1.0000 0.96760  0.65540  0.98650  Biso   1.000  H
  H69      1.0000 0.93840  0.60860  0.01890  Biso   1.000  H
  H70      1.0000 0.10640  0.63400  0.10790  Biso   1.000  H
  H71      1.0000 0.14260  0.78560  0.05910  Biso   1.000  H
  H72      1.0000 0.25800  0.66700  0.05600  Biso   1.000  H
  Cu17     1.0000 0.48410  0.14612  0.20266  Biso   1.000  Cu
  Cu18     1.0000 0.38305  0.05631  0.21402  Biso   1.000  Cu
  N17      1.0000 0.41168  0.17034  0.22397  Biso   1.000  N
  N18      1.0000 0.36941  0.13500  0.22575  Biso   1.000  N
  O57      1.0000 0.39076  0.97885  0.19413  Biso   1.000  O
  O58      1.0000 0.37149  0.82798  0.05523  Biso   1.000  O
  O59      1.0000 0.45166  0.07731  0.18256  Biso   1.000  O
  O60      1.0000 0.46008  0.76522  0.32260  Biso   1.000  O
  O61      1.0000 0.48298  0.70783  0.25486  Biso   1.000  O
  O62      1.0000 0.42498  0.95763  0.27609  Biso   1.000  O
  O63      1.0000 0.41850  0.75214  0.06857  Biso   1.000  O
  C105     1.0000 0.41754  0.88660  0.21007  Biso   1.000  C
  C106     1.0000 0.40590  0.87064  0.15677  Biso   1.000  C
  C107     1.0000 0.46477  0.75230  0.27274  Biso   1.000  C
  C108     1.0000 0.41467  0.81660  0.14101  Biso   1.000  C
  C109     1.0000 0.44588  0.79401  0.23157  Biso   1.000  C
  C110     1.0000 0.43580  0.77866  0.17841  Biso   1.000  C
  C111     1.0000 0.43662  0.84776  0.24760  Biso   1.000  C
  C112     1.0000 0.41054  0.94509  0.22918  Biso   1.000  C
  C113     1.0000 0.32320  0.16400  0.23030  Biso   1.000  C
  H73      1.0000 0.28830  0.14940  0.23230  Biso   1.000  H
  C114     1.0000 0.40111  0.79695  0.08406  Biso   1.000  C
  C115     1.0000 0.33560  0.21910  0.23130  Biso   1.000  C
  H74      1.0000 0.31140  0.24820  0.23410  Biso   1.000  H
  C116     1.0000 0.39140  0.22122  0.22730  Biso   1.000  C
  H75      1.0000 0.41210  0.25310  0.22700  Biso   1.000  H
  C117     1.0000 0.47780  0.04240  0.14260  Biso   1.000  C
  H76      1.0000 0.45630  0.01010  0.13730  Biso   1.000  H
  H77      1.0000 0.51350  0.03240  0.15540  Biso   1.000  H
  H78      1.0000 0.48110  0.06160  0.10860  Biso   1.000  H
  H79      1.0000 0.39210  0.89360  0.13400  Biso   1.000  H
  H80      1.0000 0.44090  0.85740  0.28560  Biso   1.000  H
  H81      1.0000 0.44400  0.74200  0.16700  Biso   1.000  H
  Cu19     1.0000 0.51590  0.64612  0.29734  Biso   1.000  Cu
  Cu20     1.0000 0.61695  0.55631  0.28598  Biso   1.000  Cu
  N19      1.0000 0.58832  0.67034  0.27603  Biso   1.000  N
  N20      1.0000 0.63059  0.63500  0.27425  Biso   1.000  N
  O64      1.0000 0.60924  0.47885  0.30587  Biso   1.000  O
  O65      1.0000 0.62851  0.32798  0.44477  Biso   1.000  O
  O66      1.0000 0.54834  0.57731  0.31744  Biso   1.000  O
  O67      1.0000 0.53992  0.26522  0.17740  Biso   1.000  O
  O68      1.0000 0.51702  0.20783  0.24514  Biso   1.000  O
  O69      1.0000 0.57502  0.45763  0.22391  Biso   1.000  O
  O70      1.0000 0.58150  0.25214  0.43143  Biso   1.000  O
  C118     1.0000 0.58246  0.38660  0.28993  Biso   1.000  C
  C119     1.0000 0.59410  0.37064  0.34323  Biso   1.000  C
  C120     1.0000 0.53523  0.25230  0.22726  Biso   1.000  C
  C121     1.0000 0.58533  0.31660  0.35899  Biso   1.000  C
  C122     1.0000 0.55412  0.29401  0.26843  Biso   1.000  C
  C123     1.0000 0.56420  0.27866  0.32159  Biso   1.000  C
  C124     1.0000 0.56338  0.34776  0.25240  Biso   1.000  C
  C125     1.0000 0.58946  0.44509  0.27082  Biso   1.000  C
  C126     1.0000 0.67680  0.66400  0.26970  Biso   1.000  C
  H82      1.0000 0.71170  0.64940  0.26770  Biso   1.000  H
  C127     1.0000 0.59889  0.29695  0.41594  Biso   1.000  C
  C128     1.0000 0.66440  0.71910  0.26870  Biso   1.000  C
  H83      1.0000 0.68860  0.74820  0.26590  Biso   1.000  H
  C129     1.0000 0.60860  0.72122  0.27270  Biso   1.000  C
  H84      1.0000 0.58790  0.75310  0.27300  Biso   1.000  H
  C130     1.0000 0.52220  0.54240  0.35740  Biso   1.000  C
  H85      1.0000 0.54370  0.51010  0.36270  Biso   1.000  H
  H86      1.0000 0.48650  0.53240  0.34460  Biso   1.000  H
  H87      1.0000 0.51890  0.56160  0.39140  Biso   1.000  H
  H88      1.0000 0.60790  0.39360  0.36600  Biso   1.000  H
  H89      1.0000 0.55910  0.35740  0.21440  Biso   1.000  H
  H90      1.0000 0.55600  0.24200  0.33300  Biso   1.000  H
  Cu21     1.0000 0.98410  0.35388  0.79734  Biso   1.000  Cu
  Cu22     1.0000 0.88305  0.44369  0.78598  Biso   1.000  Cu
  N21      1.0000 0.91168  0.32966  0.77603  Biso   1.000  N
  N22      1.0000 0.86941  0.36500  0.77425  Biso   1.000  N
  O71      1.0000 0.89076  0.52115  0.80587  Biso   1.000  O
  O72      1.0000 0.87149  0.67202  0.94477  Biso   1.000  O
  O73      1.0000 0.95166  0.42269  0.81744  Biso   1.000  O
  O74      1.0000 0.96008  0.73478  0.67740  Biso   1.000  O
  O75      1.0000 0.98298  0.79217  0.74514  Biso   1.000  O
  O76      1.0000 0.92498  0.54237  0.72391  Biso   1.000  O
  O77      1.0000 0.91850  0.74786  0.93143  Biso   1.000  O
  C131     1.0000 0.91754  0.61340  0.78993  Biso   1.000  C
  C132     1.0000 0.90590  0.62936  0.84323  Biso   1.000  C
  C133     1.0000 0.96477  0.74770  0.72726  Biso   1.000  C
  C134     1.0000 0.91467  0.68340  0.85899  Biso   1.000  C
  C135     1.0000 0.94588  0.70599  0.76843  Biso   1.000  C
  C136     1.0000 0.93580  0.72134  0.82159  Biso   1.000  C
  C137     1.0000 0.93662  0.65224  0.75240  Biso   1.000  C
  C138     1.0000 0.91054  0.55491  0.77082  Biso   1.000  C
  C139     1.0000 0.82320  0.33600  0.76970  Biso   1.000  C
  H91      1.0000 0.78830  0.35060  0.76770  Biso   1.000  H
  C140     1.0000 0.90111  0.70305  0.91594  Biso   1.000  C
  C141     1.0000 0.83560  0.28090  0.76870  Biso   1.000  C
  H92      1.0000 0.81140  0.25180  0.76590  Biso   1.000  H
  C142     1.0000 0.89140  0.27878  0.77270  Biso   1.000  C
  H93      1.0000 0.91210  0.24690  0.77300  Biso   1.000  H
  C143     1.0000 0.97780  0.45760  0.85740  Biso   1.000  C
  H94      1.0000 0.95630  0.48990  0.86270  Biso   1.000  H
  H95      1.0000 0.01350  0.46760  0.84460  Biso   1.000  H
  H96      1.0000 0.98110  0.43840  0.89140  Biso   1.000  H
  H97      1.0000 0.89210  0.60640  0.86600  Biso   1.000  H
  H98      1.0000 0.94090  0.64260  0.71440  Biso   1.000  H
  H99      1.0000 0.94400  0.75800  0.83300  Biso   1.000  H
  Cu23     1.0000 0.01590  0.85388  0.70266  Biso   1.000  Cu
  Cu24     1.0000 0.11695  0.94369  0.71402  Biso   1.000  Cu
  N23      1.0000 0.08832  0.82966  0.72397  Biso   1.000  N
  N24      1.0000 0.13059  0.86500  0.72575  Biso   1.000  N
  O78      1.0000 0.10924  0.02115  0.69413  Biso   1.000  O
  O79      1.0000 0.12851  0.17202  0.55523  Biso   1.000  O
  O80      1.0000 0.04834  0.92269  0.68256  Biso   1.000  O
  O81      1.0000 0.03992  0.23478  0.82260  Biso   1.000  O
  O82      1.0000 0.01702  0.29217  0.75486  Biso   1.000  O
  O83      1.0000 0.07502  0.04237  0.77609  Biso   1.000  O
  O84      1.0000 0.08150  0.24786  0.56857  Biso   1.000  O
  C144     1.0000 0.08246  0.11340  0.71007  Biso   1.000  C
  C145     1.0000 0.09410  0.12936  0.65677  Biso   1.000  C
  C146     1.0000 0.03523  0.24770  0.77274  Biso   1.000  C
  C147     1.0000 0.08533  0.18340  0.64101  Biso   1.000  C
  C148     1.0000 0.05412  0.20599  0.73157  Biso   1.000  C
  C149     1.0000 0.06420  0.22134  0.67841  Biso   1.000  C
  C150     1.0000 0.06338  0.15224  0.74760  Biso   1.000  C
  C151     1.0000 0.08946  0.05491  0.72918  Biso   1.000  C
  C152     1.0000 0.17680  0.83600  0.73030  Biso   1.000  C
  H100     1.0000 0.21170  0.85060  0.73230  Biso   1.000  H
  C153     1.0000 0.09889  0.20305  0.58406  Biso   1.000  C
  C154     1.0000 0.16440  0.78090  0.73130  Biso   1.000  C
  H101     1.0000 0.18860  0.75180  0.73410  Biso   1.000  H
  C155     1.0000 0.10860  0.77878  0.72730  Biso   1.000  C
  H102     1.0000 0.08790  0.74690  0.72700  Biso   1.000  H
  C156     1.0000 0.02220  0.95760  0.64260  Biso   1.000  C
  H103     1.0000 0.04370  0.98990  0.63730  Biso   1.000  H
  H104     1.0000 0.98650  0.96760  0.65540  Biso   1.000  H
  H105     1.0000 0.01890  0.93840  0.60860  Biso   1.000  H
  H106     1.0000 0.10790  0.10640  0.63400  Biso   1.000  H
  H107     1.0000 0.05910  0.14260  0.78560  Biso   1.000  H
  H108     1.0000 0.05600  0.25800  0.66700  Biso   1.000  H
  Cu25     1.0000 0.79734  0.51590  0.85388  Biso   1.000  Cu
  Cu26     1.0000 0.78598  0.61695  0.94369  Biso   1.000  Cu
  N25      1.0000 0.77603  0.58832  0.82966  Biso   1.000  N
  N26      1.0000 0.77425  0.63059  0.86500  Biso   1.000  N
  O85      1.0000 0.80587  0.60924  0.02115  Biso   1.000  O
  O86      1.0000 0.94477  0.62851  0.17202  Biso   1.000  O
  O87      1.0000 0.81744  0.54834  0.92269  Biso   1.000  O
  O88      1.0000 0.67740  0.53992  0.23478  Biso   1.000  O
  O89      1.0000 0.74514  0.51702  0.29217  Biso   1.000  O
  O90      1.0000 0.72391  0.57502  0.04237  Biso   1.000  O
  O91      1.0000 0.93143  0.58150  0.24786  Biso   1.000  O
  C157     1.0000 0.78993  0.58246  0.11340  Biso   1.000  C
  C158     1.0000 0.84323  0.59410  0.12936  Biso   1.000  C
  C159     1.0000 0.72726  0.53523  0.24770  Biso   1.000  C
  C160     1.0000 0.85899  0.58533  0.18340  Biso   1.000  C
  C161     1.0000 0.76843  0.55412  0.20599  Biso   1.000  C
  C162     1.0000 0.82159  0.56420  0.22134  Biso   1.000  C
  C163     1.0000 0.75240  0.56338  0.15224  Biso   1.000  C
  C164     1.0000 0.77082  0.58946  0.05491  Biso   1.000  C
  C165     1.0000 0.76970  0.67680  0.83600  Biso   1.000  C
  H109     1.0000 0.76770  0.71170  0.85060  Biso   1.000  H
  C166     1.0000 0.91594  0.59889  0.20305  Biso   1.000  C
  C167     1.0000 0.76870  0.66440  0.78090  Biso   1.000  C
  H110     1.0000 0.76590  0.68860  0.75180  Biso   1.000  H
  C168     1.0000 0.77270  0.60860  0.77878  Biso   1.000  C
  H111     1.0000 0.77300  0.58790  0.74690  Biso   1.000  H
  C169     1.0000 0.85740  0.52220  0.95760  Biso   1.000  C
  H112     1.0000 0.86270  0.54370  0.98990  Biso   1.000  H
  H113     1.0000 0.84460  0.48650  0.96760  Biso   1.000  H
  H114     1.0000 0.89140  0.51890  0.93840  Biso   1.000  H
  H115     1.0000 0.86600  0.60790  0.10640  Biso   1.000  H
  H116     1.0000 0.71440  0.55910  0.14260  Biso   1.000  H
  H117     1.0000 0.83300  0.55600  0.25800  Biso   1.000  H
  Cu27     1.0000 0.70266  0.48410  0.35388  Biso   1.000  Cu
  Cu28     1.0000 0.71402  0.38305  0.44369  Biso   1.000  Cu
  N27      1.0000 0.72397  0.41168  0.32966  Biso   1.000  N
  N28      1.0000 0.72575  0.36941  0.36500  Biso   1.000  N
  O92      1.0000 0.69413  0.39076  0.52115  Biso   1.000  O
  O93      1.0000 0.55523  0.37149  0.67202  Biso   1.000  O
  O94      1.0000 0.68256  0.45166  0.42269  Biso   1.000  O
  O95      1.0000 0.82260  0.46008  0.73478  Biso   1.000  O
  O96      1.0000 0.75486  0.48298  0.79217  Biso   1.000  O
  O97      1.0000 0.77609  0.42498  0.54237  Biso   1.000  O
  O98      1.0000 0.56857  0.41850  0.74786  Biso   1.000  O
  C170     1.0000 0.71007  0.41754  0.61340  Biso   1.000  C
  C171     1.0000 0.65677  0.40590  0.62936  Biso   1.000  C
  C172     1.0000 0.77274  0.46477  0.74770  Biso   1.000  C
  C173     1.0000 0.64101  0.41467  0.68340  Biso   1.000  C
  C174     1.0000 0.73157  0.44588  0.70599  Biso   1.000  C
  C175     1.0000 0.67841  0.43580  0.72134  Biso   1.000  C
  C176     1.0000 0.74760  0.43662  0.65224  Biso   1.000  C
  C177     1.0000 0.72918  0.41054  0.55491  Biso   1.000  C
  C178     1.0000 0.73030  0.32320  0.33600  Biso   1.000  C
  H118     1.0000 0.73230  0.28830  0.35060  Biso   1.000  H
  C179     1.0000 0.58406  0.40111  0.70305  Biso   1.000  C
  C180     1.0000 0.73130  0.33560  0.28090  Biso   1.000  C
  H119     1.0000 0.73410  0.31140  0.25180  Biso   1.000  H
  C181     1.0000 0.72730  0.39140  0.27878  Biso   1.000  C
  H120     1.0000 0.72700  0.41210  0.24690  Biso   1.000  H
  C182     1.0000 0.64260  0.47780  0.45760  Biso   1.000  C
  H121     1.0000 0.63730  0.45630  0.48990  Biso   1.000  H
  H122     1.0000 0.65540  0.51350  0.46760  Biso   1.000  H
  H123     1.0000 0.60860  0.48110  0.43840  Biso   1.000  H
  H124     1.0000 0.63400  0.39210  0.60640  Biso   1.000  H
  H125     1.0000 0.78560  0.44090  0.64260  Biso   1.000  H
  H126     1.0000 0.66700  0.44400  0.75800  Biso   1.000  H
  Cu29     1.0000 0.20266  0.01590  0.64612  Biso   1.000  Cu
  Cu30     1.0000 0.21402  0.11695  0.55631  Biso   1.000  Cu
  N29      1.0000 0.22397  0.08832  0.67034  Biso   1.000  N
  N30      1.0000 0.22575  0.13059  0.63500  Biso   1.000  N
  O99      1.0000 0.19413  0.10924  0.47885  Biso   1.000  O
  O100     1.0000 0.05523  0.12851  0.32798  Biso   1.000  O
  O101     1.0000 0.18256  0.04834  0.57731  Biso   1.000  O
  O102     1.0000 0.32260  0.03992  0.26522  Biso   1.000  O
  O103     1.0000 0.25486  0.01702  0.20783  Biso   1.000  O
  O104     1.0000 0.27609  0.07502  0.45763  Biso   1.000  O
  O105     1.0000 0.06857  0.08150  0.25214  Biso   1.000  O
  C183     1.0000 0.21007  0.08246  0.38660  Biso   1.000  C
  C184     1.0000 0.15677  0.09410  0.37064  Biso   1.000  C
  C185     1.0000 0.27274  0.03523  0.25230  Biso   1.000  C
  C186     1.0000 0.14101  0.08533  0.31660  Biso   1.000  C
  C187     1.0000 0.23157  0.05412  0.29401  Biso   1.000  C
  C188     1.0000 0.17841  0.06420  0.27866  Biso   1.000  C
  C189     1.0000 0.24760  0.06338  0.34776  Biso   1.000  C
  C190     1.0000 0.22918  0.08946  0.44509  Biso   1.000  C
  C191     1.0000 0.23030  0.17680  0.66400  Biso   1.000  C
  H127     1.0000 0.23230  0.21170  0.64940  Biso   1.000  H
  C192     1.0000 0.08406  0.09889  0.29695  Biso   1.000  C
  C193     1.0000 0.23130  0.16440  0.71910  Biso   1.000  C
  H128     1.0000 0.23410  0.18860  0.74820  Biso   1.000  H
  C194     1.0000 0.22730  0.10860  0.72122  Biso   1.000  C
  H129     1.0000 0.22700  0.08790  0.75310  Biso   1.000  H
  C195     1.0000 0.14260  0.02220  0.54240  Biso   1.000  C
  H130     1.0000 0.13730  0.04370  0.51010  Biso   1.000  H
  H131     1.0000 0.15540  0.98650  0.53240  Biso   1.000  H
  H132     1.0000 0.10860  0.01890  0.56160  Biso   1.000  H
  H133     1.0000 0.13400  0.10790  0.39360  Biso   1.000  H
  H134     1.0000 0.28560  0.05910  0.35740  Biso   1.000  H
  H135     1.0000 0.16700  0.05600  0.24200  Biso   1.000  H
  Cu31     1.0000 0.29734  0.98410  0.14612  Biso   1.000  Cu
  Cu32     1.0000 0.28598  0.88305  0.05631  Biso   1.000  Cu
  N31      1.0000 0.27603  0.91168  0.17034  Biso   1.000  N
  N32      1.0000 0.27425  0.86941  0.13500  Biso   1.000  N
  O106     1.0000 0.30587  0.89076  0.97885  Biso   1.000  O
  O107     1.0000 0.44477  0.87149  0.82798  Biso   1.000  O
  O108     1.0000 0.31744  0.95166  0.07731  Biso   1.000  O
  O109     1.0000 0.17740  0.96008  0.76522  Biso   1.000  O
  O110     1.0000 0.24514  0.98298  0.70783  Biso   1.000  O
  O111     1.0000 0.22391  0.92498  0.95763  Biso   1.000  O
  O112     1.0000 0.43143  0.91850  0.75214  Biso   1.000  O
  C196     1.0000 0.28993  0.91754  0.88660  Biso   1.000  C
  C197     1.0000 0.34323  0.90590  0.87064  Biso   1.000  C
  C198     1.0000 0.22726  0.96477  0.75230  Biso   1.000  C
  C199     1.0000 0.35899  0.91467  0.81660  Biso   1.000  C
  C200     1.0000 0.26843  0.94588  0.79401  Biso   1.000  C
  C201     1.0000 0.32159  0.93580  0.77866  Biso   1.000  C
  C202     1.0000 0.25240  0.93662  0.84776  Biso   1.000  C
  C203     1.0000 0.27082  0.91054  0.94509  Biso   1.000  C
  C204     1.0000 0.26970  0.82320  0.16400  Biso   1.000  C
  H136     1.0000 0.26770  0.78830  0.14940  Biso   1.000  H
  C205     1.0000 0.41594  0.90111  0.79695  Biso   1.000  C
  C206     1.0000 0.26870  0.83560  0.21910  Biso   1.000  C
  H137     1.0000 0.26590  0.81140  0.24820  Biso   1.000  H
  C207     1.0000 0.27270  0.89140  0.22122  Biso   1.000  C
  H138     1.0000 0.27300  0.91210  0.25310  Biso   1.000  H
  C208     1.0000 0.35740  0.97780  0.04240  Biso   1.000  C
  H139     1.0000 0.36270  0.95630  0.01010  Biso   1.000  H
  H140     1.0000 0.34460  0.01350  0.03240  Biso   1.000  H
  H141     1.0000 0.39140  0.98110  0.06160  Biso   1.000  H
  H142     1.0000 0.36600  0.89210  0.89360  Biso   1.000  H
  H143     1.0000 0.21440  0.94090  0.85740  Biso   1.000  H
  H144     1.0000 0.33300  0.94400  0.74200  Biso   1.000  H
  Cu33     1.0000 0.85388  0.79734  0.51590  Biso   1.000  Cu
  Cu34     1.0000 0.94369  0.78598  0.61695  Biso   1.000  Cu
  N33      1.0000 0.82966  0.77603  0.58832  Biso   1.000  N
  N34      1.0000 0.86500  0.77425  0.63059  Biso   1.000  N
  O113     1.0000 0.02115  0.80587  0.60924  Biso   1.000  O
  O114     1.0000 0.17202  0.94477  0.62851  Biso   1.000  O
  O115     1.0000 0.92269  0.81744  0.54834  Biso   1.000  O
  O116     1.0000 0.23478  0.67740  0.53992  Biso   1.000  O
  O117     1.0000 0.29217  0.74514  0.51702  Biso   1.000  O
  O118     1.0000 0.04237  0.72391  0.57502  Biso   1.000  O
  O119     1.0000 0.24786  0.93143  0.58150  Biso   1.000  O
  C209     1.0000 0.11340  0.78993  0.58246  Biso   1.000  C
  C210     1.0000 0.12936  0.84323  0.59410  Biso   1.000  C
  C211     1.0000 0.24770  0.72726  0.53523  Biso   1.000  C
  C212     1.0000 0.18340  0.85899  0.58533  Biso   1.000  C
  C213     1.0000 0.20599  0.76843  0.55412  Biso   1.000  C
  C214     1.0000 0.22134  0.82159  0.56420  Biso   1.000  C
  C215     1.0000 0.15224  0.75240  0.56338  Biso   1.000  C
  C216     1.0000 0.05491  0.77082  0.58946  Biso   1.000  C
  C217     1.0000 0.83600  0.76970  0.67680  Biso   1.000  C
  H145     1.0000 0.85060  0.76770  0.71170  Biso   1.000  H
  C218     1.0000 0.20305  0.91594  0.59889  Biso   1.000  C
  C219     1.0000 0.78090  0.76870  0.66440  Biso   1.000  C
  H146     1.0000 0.75180  0.76590  0.68860  Biso   1.000  H
  C220     1.0000 0.77878  0.77270  0.60860  Biso   1.000  C
  H147     1.0000 0.74690  0.77300  0.58790  Biso   1.000  H
  C221     1.0000 0.95760  0.85740  0.52220  Biso   1.000  C
  H148     1.0000 0.98990  0.86270  0.54370  Biso   1.000  H
  H149     1.0000 0.96760  0.84460  0.48650  Biso   1.000  H
  H150     1.0000 0.93840  0.89140  0.51890  Biso   1.000  H
  H151     1.0000 0.10640  0.86600  0.60790  Biso   1.000  H
  H152     1.0000 0.14260  0.71440  0.55910  Biso   1.000  H
  H153     1.0000 0.25800  0.83300  0.55600  Biso   1.000  H
  Cu35     1.0000 0.35388  0.70266  0.48410  Biso   1.000  Cu
  Cu36     1.0000 0.44369  0.71402  0.38305  Biso   1.000  Cu
  N35      1.0000 0.32966  0.72397  0.41168  Biso   1.000  N
  N36      1.0000 0.36500  0.72575  0.36941  Biso   1.000  N
  O120     1.0000 0.52115  0.69413  0.39076  Biso   1.000  O
  O121     1.0000 0.67202  0.55523  0.37149  Biso   1.000  O
  O122     1.0000 0.42269  0.68256  0.45166  Biso   1.000  O
  O123     1.0000 0.73478  0.82260  0.46008  Biso   1.000  O
  O124     1.0000 0.79217  0.75486  0.48298  Biso   1.000  O
  O125     1.0000 0.54237  0.77609  0.42498  Biso   1.000  O
  O126     1.0000 0.74786  0.56857  0.41850  Biso   1.000  O
  C222     1.0000 0.61340  0.71007  0.41754  Biso   1.000  C
  C223     1.0000 0.62936  0.65677  0.40590  Biso   1.000  C
  C224     1.0000 0.74770  0.77274  0.46477  Biso   1.000  C
  C225     1.0000 0.68340  0.64101  0.41467  Biso   1.000  C
  C226     1.0000 0.70599  0.73157  0.44588  Biso   1.000  C
  C227     1.0000 0.72134  0.67841  0.43580  Biso   1.000  C
  C228     1.0000 0.65224  0.74760  0.43662  Biso   1.000  C
  C229     1.0000 0.55491  0.72918  0.41054  Biso   1.000  C
  C230     1.0000 0.33600  0.73030  0.32320  Biso   1.000  C
  H154     1.0000 0.35060  0.73230  0.28830  Biso   1.000  H
  C231     1.0000 0.70305  0.58406  0.40111  Biso   1.000  C
  C232     1.0000 0.28090  0.73130  0.33560  Biso   1.000  C
  H155     1.0000 0.25180  0.73410  0.31140  Biso   1.000  H
  C233     1.0000 0.27878  0.72730  0.39140  Biso   1.000  C
  H156     1.0000 0.24690  0.72700  0.41210  Biso   1.000  H
  C234     1.0000 0.45760  0.64260  0.47780  Biso   1.000  C
  H157     1.0000 0.48990  0.63730  0.45630  Biso   1.000  H
  H158     1.0000 0.46760  0.65540  0.51350  Biso   1.000  H
  H159     1.0000 0.43840  0.60860  0.48110  Biso   1.000  H
  H160     1.0000 0.60640  0.63400  0.39210  Biso   1.000  H
  H161     1.0000 0.64260  0.78560  0.44090  Biso   1.000  H
  H162     1.0000 0.75800  0.66700  0.44400  Biso   1.000  H
  Cu37     1.0000 0.64612  0.20266  0.01590  Biso   1.000  Cu
  Cu38     1.0000 0.55631  0.21402  0.11695  Biso   1.000  Cu
  N37      1.0000 0.67034  0.22397  0.08832  Biso   1.000  N
  N38      1.0000 0.63500  0.22575  0.13059  Biso   1.000  N
  O127     1.0000 0.47885  0.19413  0.10924  Biso   1.000  O
  O128     1.0000 0.32798  0.05523  0.12851  Biso   1.000  O
  O129     1.0000 0.57731  0.18256  0.04834  Biso   1.000  O
  O130     1.0000 0.26522  0.32260  0.03992  Biso   1.000  O
  O131     1.0000 0.20783  0.25486  0.01702  Biso   1.000  O
  O132     1.0000 0.45763  0.27609  0.07502  Biso   1.000  O
  O133     1.0000 0.25214  0.06857  0.08150  Biso   1.000  O
  C235     1.0000 0.38660  0.21007  0.08246  Biso   1.000  C
  C236     1.0000 0.37064  0.15677  0.09410  Biso   1.000  C
  C237     1.0000 0.25230  0.27274  0.03523  Biso   1.000  C
  C238     1.0000 0.31660  0.14101  0.08533  Biso   1.000  C
  C239     1.0000 0.29401  0.23157  0.05412  Biso   1.000  C
  C240     1.0000 0.27866  0.17841  0.06420  Biso   1.000  C
  C241     1.0000 0.34776  0.24760  0.06338  Biso   1.000  C
  C242     1.0000 0.44509  0.22918  0.08946  Biso   1.000  C
  C243     1.0000 0.66400  0.23030  0.17680  Biso   1.000  C
  H163     1.0000 0.64940  0.23230  0.21170  Biso   1.000  H
  C244     1.0000 0.29695  0.08406  0.09889  Biso   1.000  C
  C245     1.0000 0.71910  0.23130  0.16440  Biso   1.000  C
  H164     1.0000 0.74820  0.23410  0.18860  Biso   1.000  H
  C246     1.0000 0.72122  0.22730  0.10860  Biso   1.000  C
  H165     1.0000 0.75310  0.22700  0.08790  Biso   1.000  H
  C247     1.0000 0.54240  0.14260  0.02220  Biso   1.000  C
  H166     1.0000 0.51010  0.13730  0.04370  Biso   1.000  H
  H167     1.0000 0.53240  0.15540  0.98650  Biso   1.000  H
  H168     1.0000 0.56160  0.10860  0.01890  Biso   1.000  H
  H169     1.0000 0.39360  0.13400  0.10790  Biso   1.000  H
  H170     1.0000 0.35740  0.28560  0.05910  Biso   1.000  H
  H171     1.0000 0.24200  0.16700  0.05600  Biso   1.000  H
  Cu39     1.0000 0.14612  0.29734  0.98410  Biso   1.000  Cu
  Cu40     1.0000 0.05631  0.28598  0.88305  Biso   1.000  Cu
  N39      1.0000 0.17034  0.27603  0.91168  Biso   1.000  N
  N40      1.0000 0.13500  0.27425  0.86941  Biso   1.000  N
  O134     1.0000 0.97885  0.30587  0.89076  Biso   1.000  O
  O135     1.0000 0.82798  0.44477  0.87149  Biso   1.000  O
  O136     1.0000 0.07731  0.31744  0.95166  Biso   1.000  O
  O137     1.0000 0.76522  0.17740  0.96008  Biso   1.000  O
  O138     1.0000 0.70783  0.24514  0.98298  Biso   1.000  O
  O139     1.0000 0.95763  0.22391  0.92498  Biso   1.000  O
  O140     1.0000 0.75214  0.43143  0.91850  Biso   1.000  O
  C248     1.0000 0.88660  0.28993  0.91754  Biso   1.000  C
  C249     1.0000 0.87064  0.34323  0.90590  Biso   1.000  C
  C250     1.0000 0.75230  0.22726  0.96477  Biso   1.000  C
  C251     1.0000 0.81660  0.35899  0.91467  Biso   1.000  C
  C252     1.0000 0.79401  0.26843  0.94588  Biso   1.000  C
  C253     1.0000 0.77866  0.32159  0.93580  Biso   1.000  C
  C254     1.0000 0.84776  0.25240  0.93662  Biso   1.000  C
  C255     1.0000 0.94509  0.27082  0.91054  Biso   1.000  C
  C256     1.0000 0.16400  0.26970  0.82320  Biso   1.000  C
  H172     1.0000 0.14940  0.26770  0.78830  Biso   1.000  H
  C257     1.0000 0.79695  0.41594  0.90111  Biso   1.000  C
  C258     1.0000 0.21910  0.26870  0.83560  Biso   1.000  C
  H173     1.0000 0.24820  0.26590  0.81140  Biso   1.000  H
  C259     1.0000 0.22122  0.27270  0.89140  Biso   1.000  C
  H174     1.0000 0.25310  0.27300  0.91210  Biso   1.000  H
  C260     1.0000 0.04240  0.35740  0.97780  Biso   1.000  C
  H175     1.0000 0.01010  0.36270  0.95630  Biso   1.000  H
  H176     1.0000 0.03240  0.34460  0.01350  Biso   1.000  H
  H177     1.0000 0.06160  0.39140  0.98110  Biso   1.000  H
  H178     1.0000 0.89360  0.36600  0.89210  Biso   1.000  H
  H179     1.0000 0.85740  0.21440  0.94090  Biso   1.000  H
  H180     1.0000 0.74200  0.33300  0.94400  Biso   1.000  H
  Cu41     1.0000 0.51590  0.85388  0.79734  Biso   1.000  Cu
  Cu42     1.0000 0.61695  0.94369  0.78598  Biso   1.000  Cu
  N41      1.0000 0.58832  0.82966  0.77603  Biso   1.000  N
  N42      1.0000 0.63059  0.86500  0.77425  Biso   1.000  N
  O141     1.0000 0.60924  0.02115  0.80587  Biso   1.000  O
  O142     1.0000 0.62851  0.17202  0.94477  Biso   1.000  O
  O143     1.0000 0.54834  0.92269  0.81744  Biso   1.000  O
  O144     1.0000 0.53992  0.23478  0.67740  Biso   1.000  O
  O145     1.0000 0.51702  0.29217  0.74514  Biso   1.000  O
  O146     1.0000 0.57502  0.04237  0.72391  Biso   1.000  O
  O147     1.0000 0.58150  0.24786  0.93143  Biso   1.000  O
  C261     1.0000 0.58246  0.11340  0.78993  Biso   1.000  C
  C262     1.0000 0.59410  0.12936  0.84323  Biso   1.000  C
  C263     1.0000 0.53523  0.24770  0.72726  Biso   1.000  C
  C264     1.0000 0.58533  0.18340  0.85899  Biso   1.000  C
  C265     1.0000 0.55412  0.20599  0.76843  Biso   1.000  C
  C266     1.0000 0.56420  0.22134  0.82159  Biso   1.000  C
  C267     1.0000 0.56338  0.15224  0.75240  Biso   1.000  C
  C268     1.0000 0.58946  0.05491  0.77082  Biso   1.000  C
  C269     1.0000 0.67680  0.83600  0.76970  Biso   1.000  C
  H181     1.0000 0.71170  0.85060  0.76770  Biso   1.000  H
  C270     1.0000 0.59889  0.20305  0.91594  Biso   1.000  C
  C271     1.0000 0.66440  0.78090  0.76870  Biso   1.000  C
  H182     1.0000 0.68860  0.75180  0.76590  Biso   1.000  H
  C272     1.0000 0.60860  0.77878  0.77270  Biso   1.000  C
  H183     1.0000 0.58790  0.74690  0.77300  Biso   1.000  H
  C273     1.0000 0.52220  0.95760  0.85740  Biso   1.000  C
  H184     1.0000 0.54370  0.98990  0.86270  Biso   1.000  H
  H185     1.0000 0.48650  0.96760  0.84460  Biso   1.000  H
  H186     1.0000 0.51890  0.93840  0.89140  Biso   1.000  H
  H187     1.0000 0.60790  0.10640  0.86600  Biso   1.000  H
  H188     1.0000 0.55910  0.14260  0.71440  Biso   1.000  H
  H189     1.0000 0.55600  0.25800  0.83300  Biso   1.000  H
  Cu43     1.0000 0.48410  0.35388  0.70266  Biso   1.000  Cu
  Cu44     1.0000 0.38305  0.44369  0.71402  Biso   1.000  Cu
  N43      1.0000 0.41168  0.32966  0.72397  Biso   1.000  N
  N44      1.0000 0.36941  0.36500  0.72575  Biso   1.000  N
  O148     1.0000 0.39076  0.52115  0.69413  Biso   1.000  O
  O149     1.0000 0.37149  0.67202  0.55523  Biso   1.000  O
  O150     1.0000 0.45166  0.42269  0.68256  Biso   1.000  O
  O151     1.0000 0.46008  0.73478  0.82260  Biso   1.000  O
  O152     1.0000 0.48298  0.79217  0.75486  Biso   1.000  O
  O153     1.0000 0.42498  0.54237  0.77609  Biso   1.000  O
  O154     1.0000 0.41850  0.74786  0.56857  Biso   1.000  O
  C274     1.0000 0.41754  0.61340  0.71007  Biso   1.000  C
  C275     1.0000 0.40590  0.62936  0.65677  Biso   1.000  C
  C276     1.0000 0.46477  0.74770  0.77274  Biso   1.000  C
  C277     1.0000 0.41467  0.68340  0.64101  Biso   1.000  C
  C278     1.0000 0.44588  0.70599  0.73157  Biso   1.000  C
  C279     1.0000 0.43580  0.72134  0.67841  Biso   1.000  C
  C280     1.0000 0.43662  0.65224  0.74760  Biso   1.000  C
  C281     1.0000 0.41054  0.55491  0.72918  Biso   1.000  C
  C282     1.0000 0.32320  0.33600  0.73030  Biso   1.000  C
  H190     1.0000 0.28830  0.35060  0.73230  Biso   1.000  H
  C283     1.0000 0.40111  0.70305  0.58406  Biso   1.000  C
  C284     1.0000 0.33560  0.28090  0.73130  Biso   1.000  C
  H191     1.0000 0.31140  0.25180  0.73410  Biso   1.000  H
  C285     1.0000 0.39140  0.27878  0.72730  Biso   1.000  C
  H192     1.0000 0.41210  0.24690  0.72700  Biso   1.000  H
  C286     1.0000 0.47780  0.45760  0.64260  Biso   1.000  C
  H193     1.0000 0.45630  0.48990  0.63730  Biso   1.000  H
  H194     1.0000 0.51350  0.46760  0.65540  Biso   1.000  H
  H195     1.0000 0.48110  0.43840  0.60860  Biso   1.000  H
  H196     1.0000 0.39210  0.60640  0.63400  Biso   1.000  H
  H197     1.0000 0.44090  0.64260  0.78560  Biso   1.000  H
  H198     1.0000 0.44400  0.75800  0.66700  Biso   1.000  H
  Cu45     1.0000 0.01590  0.64612  0.20266  Biso   1.000  Cu
  Cu46     1.0000 0.11695  0.55631  0.21402  Biso   1.000  Cu
  N45      1.0000 0.08832  0.67034  0.22397  Biso   1.000  N
  N46      1.0000 0.13059  0.63500  0.22575  Biso   1.000  N
  O155     1.0000 0.10924  0.47885  0.19413  Biso   1.000  O
  O156     1.0000 0.12851  0.32798  0.05523  Biso   1.000  O
  O157     1.0000 0.04834  0.57731  0.18256  Biso   1.000  O
  O158     1.0000 0.03992  0.26522  0.32260  Biso   1.000  O
  O159     1.0000 0.01702  0.20783  0.25486  Biso   1.000  O
  O160     1.0000 0.07502  0.45763  0.27609  Biso   1.000  O
  O161     1.0000 0.08150  0.25214  0.06857  Biso   1.000  O
  C287     1.0000 0.08246  0.38660  0.21007  Biso   1.000  C
  C288     1.0000 0.09410  0.37064  0.15677  Biso   1.000  C
  C289     1.0000 0.03523  0.25230  0.27274  Biso   1.000  C
  C290     1.0000 0.08533  0.31660  0.14101  Biso   1.000  C
  C291     1.0000 0.05412  0.29401  0.23157  Biso   1.000  C
  C292     1.0000 0.06420  0.27866  0.17841  Biso   1.000  C
  C293     1.0000 0.06338  0.34776  0.24760  Biso   1.000  C
  C294     1.0000 0.08946  0.44509  0.22918  Biso   1.000  C
  C295     1.0000 0.17680  0.66400  0.23030  Biso   1.000  C
  H199     1.0000 0.21170  0.64940  0.23230  Biso   1.000  H
  C296     1.0000 0.09889  0.29695  0.08406  Biso   1.000  C
  C297     1.0000 0.16440  0.71910  0.23130  Biso   1.000  C
  H200     1.0000 0.18860  0.74820  0.23410  Biso   1.000  H
  C298     1.0000 0.10860  0.72122  0.22730  Biso   1.000  C
  H201     1.0000 0.08790  0.75310  0.22700  Biso   1.000  H
  C299     1.0000 0.02220  0.54240  0.14260  Biso   1.000  C
  H202     1.0000 0.04370  0.51010  0.13730  Biso   1.000  H
  H203     1.0000 0.98650  0.53240  0.15540  Biso   1.000  H
  H204     1.0000 0.01890  0.56160  0.10860  Biso   1.000  H
  H205     1.0000 0.10790  0.39360  0.13400  Biso   1.000  H
  H206     1.0000 0.05910  0.35740  0.28560  Biso   1.000  H
  H207     1.0000 0.05600  0.24200  0.16700  Biso   1.000  H
  Cu47     1.0000 0.98410  0.14612  0.29734  Biso   1.000  Cu
  Cu48     1.0000 0.88305  0.05631  0.28598  Biso   1.000  Cu
  N47      1.0000 0.91168  0.17034  0.27603  Biso   1.000  N
  N48      1.0000 0.86941  0.13500  0.27425  Biso   1.000  N
  O162     1.0000 0.89076  0.97885  0.30587  Biso   1.000  O
  O163     1.0000 0.87149  0.82798  0.44477  Biso   1.000  O
  O164     1.0000 0.95166  0.07731  0.31744  Biso   1.000  O
  O165     1.0000 0.96008  0.76522  0.17740  Biso   1.000  O
  O166     1.0000 0.98298  0.70783  0.24514  Biso   1.000  O
  O167     1.0000 0.92498  0.95763  0.22391  Biso   1.000  O
  O168     1.0000 0.91850  0.75214  0.43143  Biso   1.000  O
  C300     1.0000 0.91754  0.88660  0.28993  Biso   1.000  C
  C301     1.0000 0.90590  0.87064  0.34323  Biso   1.000  C
  C302     1.0000 0.96477  0.75230  0.22726  Biso   1.000  C
  C303     1.0000 0.91467  0.81660  0.35899  Biso   1.000  C
  C304     1.0000 0.94588  0.79401  0.26843  Biso   1.000  C
  C305     1.0000 0.93580  0.77866  0.32159  Biso   1.000  C
  C306     1.0000 0.93662  0.84776  0.25240  Biso   1.000  C
  C307     1.0000 0.91054  0.94509  0.27082  Biso   1.000  C
  C308     1.0000 0.82320  0.16400  0.26970  Biso   1.000  C
  H208     1.0000 0.78830  0.14940  0.26770  Biso   1.000  H
  C309     1.0000 0.90111  0.79695  0.41594  Biso   1.000  C
  C310     1.0000 0.83560  0.21910  0.26870  Biso   1.000  C
  H209     1.0000 0.81140  0.24820  0.26590  Biso   1.000  H
  C311     1.0000 0.89140  0.22122  0.27270  Biso   1.000  C
  H210     1.0000 0.91210  0.25310  0.27300  Biso   1.000  H
  C312     1.0000 0.97780  0.04240  0.35740  Biso   1.000  C
  H211     1.0000 0.95630  0.01010  0.36270  Biso   1.000  H
  H212     1.0000 0.01350  0.03240  0.34460  Biso   1.000  H
  H213     1.0000 0.98110  0.06160  0.39140  Biso   1.000  H
  H214     1.0000 0.89210  0.89360  0.36600  Biso   1.000  H
  H215     1.0000 0.94090  0.85740  0.21440  Biso   1.000  H
  H216     1.0000 0.94400  0.74200  0.33300  Biso   1.000  H
