data_image0
_cell_length_a       37.4822
_cell_length_b       37.4822
_cell_length_c       17.2024
_cell_angle_alpha    90
_cell_angle_beta     90
_cell_angle_gamma    120

_symmetry_space_group_name_H-M    "P 1"
_symmetry_int_tables_number       1

loop_
  _symmetry_equiv_pos_as_xyz
  'x, y, z'

loop_
  _atom_site_label
  _atom_site_occupancy
  _atom_site_fract_x
  _atom_site_fract_y
  _atom_site_fract_z
  _atom_site_thermal_displace_type
  _atom_site_B_iso_or_equiv
  _atom_site_type_symbol
  Ni1      1.0000 0.50708  0.30913  0.81054  Biso   1.000  Ni
  Ni2      1.0000 0.43149  0.43934  0.51966  Biso   1.000  Ni
  O1       1.0000 0.52342  0.34607  0.71266  Biso   1.000  O
  O2       1.0000 0.53769  0.31242  0.62270  Biso   1.000  O
  O3       1.0000 0.61591  0.39328  0.72227  Biso   1.000  O
  O4       1.0000 0.61005  0.44807  0.75486  Biso   1.000  O
  O5       1.0000 0.59982  0.52678  0.46543  Biso   1.000  O
  O6       1.0000 0.54657  0.50484  0.54239  Biso   1.000  O
  O7       1.0000 0.51327  0.44710  0.39996  Biso   1.000  O
  O8       1.0000 0.47090  0.41776  0.50098  Biso   1.000  O
  N1       1.0000 0.44548  0.27355  0.77690  Biso   1.000  N
  N2       1.0000 0.19003  0.16971  0.53440  Biso   1.000  N
  N3       1.0000 0.39483  0.40882  0.42550  Biso   1.000  N
  N4       1.0000 0.27118  0.33844  0.93620  Biso   1.000  N
  C1       1.0000 0.55461  0.38144  0.59400  Biso   1.000  C
  H1       1.0000 0.56410  0.37410  0.54530  Biso   1.000  H
  C2       1.0000 0.59163  0.42211  0.62590  Biso   1.000  C
  H2       1.0000 0.61550  0.42870  0.59090  Biso   1.000  H
  C3       1.0000 0.51947  0.39022  0.57080  Biso   1.000  C
  H3       1.0000 0.49390  0.36410  0.55650  Biso   1.000  H
  C4       1.0000 0.53571  0.41984  0.50070  Biso   1.000  C
  H4       1.0000 0.54420  0.40650  0.46000  Biso   1.000  H
  C5       1.0000 0.57549  0.46051  0.52650  Biso   1.000  C
  H5       1.0000 0.59960  0.46240  0.49790  Biso   1.000  H
  C6       1.0000 0.58207  0.45739  0.61550  Biso   1.000  C
  H6       1.0000 0.60540  0.48390  0.63530  Biso   1.000  H
  C7       1.0000 0.51109  0.41153  0.63640  Biso   1.000  C
  H7       1.0000 0.48470  0.40060  0.65990  Biso   1.000  H
  C8       1.0000 0.54311  0.44648  0.65880  Biso   1.000  C
  H8       1.0000 0.54170  0.46330  0.69860  Biso   1.000  H
  C9       1.0000 0.53800  0.34404  0.64840  Biso   1.000  C
  C10      1.0000 0.60600  0.42039  0.70820  Biso   1.000  C
  C11      1.0000 0.50394  0.42897  0.46400  Biso   1.000  C
  C12      1.0000 0.57360  0.49921  0.51060  Biso   1.000  C
  C13      1.0000 0.43618  0.26351  0.70170  Biso   1.000  C
  H9       1.0000 0.45810  0.27290  0.66520  Biso   1.000  H
  C14      1.0000 0.39634  0.24016  0.67510  Biso   1.000  C
  H10      1.0000 0.39130  0.23420  0.62120  Biso   1.000  H
  C15      1.0000 0.36326  0.22515  0.72690  Biso   1.000  C
  C16      1.0000 0.37286  0.23328  0.80580  Biso   1.000  C
  H11      1.0000 0.35160  0.22220  0.84380  Biso   1.000  H
  C17      1.0000 0.41373  0.25774  0.82840  Biso   1.000  C
  H12      1.0000 0.41970  0.26370  0.88210  Biso   1.000  H
  C18      1.0000 0.31994  0.20474  0.70190  Biso   1.000  C
  H13      1.0000 0.29930  0.19450  0.74110  Biso   1.000  H
  C19      1.0000 0.30750  0.19953  0.62790  Biso   1.000  C
  H14      1.0000 0.32800  0.20530  0.58970  Biso   1.000  H
  C20      1.0000 0.26575  0.18586  0.59860  Biso   1.000  C
  C21      1.0000 0.26062  0.18874  0.51890  Biso   1.000  C
  H15      1.0000 0.28310  0.19610  0.48450  Biso   1.000  H
  C22      1.0000 0.22317  0.18102  0.48990  Biso   1.000  C
  H16      1.0000 0.22080  0.18390  0.43560  Biso   1.000  H
  C23      1.0000 0.19402  0.16515  0.61060  Biso   1.000  C
  H17      1.0000 0.17050  0.15630  0.64290  Biso   1.000  H
  C24      1.0000 0.23072  0.17271  0.64470  Biso   1.000  C
  H18      1.0000 0.23200  0.16890  0.69900  Biso   1.000  H
  C25      1.0000 0.35525  0.39819  0.42270  Biso   1.000  C
  H19      1.0000 0.34260  0.40080  0.46850  Biso   1.000  H
  C26      1.0000 0.33172  0.38346  0.35580  Biso   1.000  C
  H20      1.0000 0.30350  0.37610  0.35630  Biso   1.000  H
  C27      1.0000 0.34956  0.37940  0.28780  Biso   1.000  C
  C28      1.0000 0.39117  0.39021  0.29160  Biso   1.000  C
  H21      1.0000 0.40460  0.38750  0.24700  Biso   1.000  H
  C29      1.0000 0.41252  0.40486  0.36090  Biso   1.000  C
  H22      1.0000 0.44080  0.41240  0.36270  Biso   1.000  H
  C30      1.0000 0.32581  0.36499  0.21620  Biso   1.000  C
  H23      1.0000 0.29700  0.34690  0.22050  Biso   1.000  H
  C31      1.0000 0.34177  0.37546  0.14460  Biso   1.000  C
  H24      1.0000 0.37070  0.39290  0.14010  Biso   1.000  H
  C32      1.0000 0.31758  0.36179  0.07290  Biso   1.000  C
  C33      1.0000 0.33033  0.38713  0.00640  Biso   1.000  C
  H25      1.0000 0.35540  0.41270  0.00710  Biso   1.000  H
  C34      1.0000 0.30631  0.37459  0.94040  Biso   1.000  C
  H26      1.0000 0.31500  0.39220  0.89630  Biso   1.000  H
  C35      1.0000 0.25981  0.31323  0.99860  Biso   1.000  C
  H27      1.0000 0.23560  0.28700  0.99500  Biso   1.000  H
  C36      1.0000 0.28176  0.32387  0.06710  Biso   1.000  C
  H28      1.0000 0.27250  0.30540  0.11000  Biso   1.000  H
  Ni3      1.0000 0.17375  0.64246  0.14387  Biso   1.000  Ni
  Ni4      1.0000 0.09816  0.77267  0.85299  Biso   1.000  Ni
  O9       1.0000 0.19009  0.67940  0.04599  Biso   1.000  O
  O10      1.0000 0.20436  0.64575  0.95603  Biso   1.000  O
  O11      1.0000 0.28258  0.72661  0.05560  Biso   1.000  O
  O12      1.0000 0.27672  0.78140  0.08819  Biso   1.000  O
  O13      1.0000 0.26649  0.86011  0.79876  Biso   1.000  O
  O14      1.0000 0.21324  0.83817  0.87572  Biso   1.000  O
  O15      1.0000 0.17994  0.78043  0.73329  Biso   1.000  O
  O16      1.0000 0.13757  0.75109  0.83431  Biso   1.000  O
  N5       1.0000 0.11215  0.60688  0.11023  Biso   1.000  N
  N6       1.0000 0.85670  0.50304  0.86773  Biso   1.000  N
  N7       1.0000 0.06150  0.74215  0.75883  Biso   1.000  N
  N8       1.0000 0.93785  0.67177  0.26953  Biso   1.000  N
  C37      1.0000 0.22128  0.71477  0.92733  Biso   1.000  C
  H29      1.0000 0.23077  0.70743  0.87863  Biso   1.000  H
  C38      1.0000 0.25830  0.75544  0.95923  Biso   1.000  C
  H30      1.0000 0.28217  0.76203  0.92423  Biso   1.000  H
  C39      1.0000 0.18614  0.72355  0.90413  Biso   1.000  C
  H31      1.0000 0.16057  0.69743  0.88983  Biso   1.000  H
  C40      1.0000 0.20238  0.75317  0.83403  Biso   1.000  C
  H32      1.0000 0.21087  0.73983  0.79333  Biso   1.000  H
  C41      1.0000 0.24216  0.79384  0.85983  Biso   1.000  C
  H33      1.0000 0.26627  0.79573  0.83123  Biso   1.000  H
  C42      1.0000 0.24874  0.79072  0.94883  Biso   1.000  C
  H34      1.0000 0.27207  0.81723  0.96863  Biso   1.000  H
  C43      1.0000 0.17776  0.74486  0.96973  Biso   1.000  C
  H35      1.0000 0.15137  0.73393  0.99323  Biso   1.000  H
  C44      1.0000 0.20978  0.77981  0.99213  Biso   1.000  C
  H36      1.0000 0.20837  0.79663  0.03193  Biso   1.000  H
  C45      1.0000 0.20467  0.67737  0.98173  Biso   1.000  C
  C46      1.0000 0.27267  0.75372  0.04153  Biso   1.000  C
  C47      1.0000 0.17061  0.76230  0.79733  Biso   1.000  C
  C48      1.0000 0.24027  0.83254  0.84393  Biso   1.000  C
  C49      1.0000 0.10285  0.59684  0.03503  Biso   1.000  C
  H37      1.0000 0.12477  0.60623  0.99853  Biso   1.000  H
  C50      1.0000 0.06301  0.57349  0.00843  Biso   1.000  C
  H38      1.0000 0.05797  0.56753  0.95453  Biso   1.000  H
  C51      1.0000 0.02993  0.55848  0.06023  Biso   1.000  C
  C52      1.0000 0.03953  0.56661  0.13913  Biso   1.000  C
  H39      1.0000 0.01827  0.55553  0.17713  Biso   1.000  H
  C53      1.0000 0.08040  0.59107  0.16173  Biso   1.000  C
  H40      1.0000 0.08637  0.59703  0.21543  Biso   1.000  H
  C54      1.0000 0.98661  0.53807  0.03523  Biso   1.000  C
  H41      1.0000 0.96597  0.52783  0.07443  Biso   1.000  H
  C55      1.0000 0.97417  0.53286  0.96123  Biso   1.000  C
  H42      1.0000 0.99467  0.53863  0.92303  Biso   1.000  H
  C56      1.0000 0.93242  0.51919  0.93193  Biso   1.000  C
  C57      1.0000 0.92729  0.52207  0.85223  Biso   1.000  C
  H43      1.0000 0.94977  0.52943  0.81783  Biso   1.000  H
  C58      1.0000 0.88984  0.51435  0.82323  Biso   1.000  C
  H44      1.0000 0.88747  0.51723  0.76893  Biso   1.000  H
  C59      1.0000 0.86069  0.49848  0.94393  Biso   1.000  C
  H45      1.0000 0.83717  0.48963  0.97623  Biso   1.000  H
  C60      1.0000 0.89739  0.50604  0.97803  Biso   1.000  C
  H46      1.0000 0.89867  0.50223  0.03233  Biso   1.000  H
  C61      1.0000 0.02192  0.73152  0.75603  Biso   1.000  C
  H47      1.0000 0.00927  0.73413  0.80183  Biso   1.000  H
  C62      1.0000 0.99839  0.71679  0.68913  Biso   1.000  C
  H48      1.0000 0.97017  0.70943  0.68963  Biso   1.000  H
  C63      1.0000 0.01623  0.71273  0.62113  Biso   1.000  C
  C64      1.0000 0.05784  0.72354  0.62493  Biso   1.000  C
  H49      1.0000 0.07127  0.72083  0.58033  Biso   1.000  H
  C65      1.0000 0.07919  0.73819  0.69423  Biso   1.000  C
  H50      1.0000 0.10747  0.74573  0.69603  Biso   1.000  H
  C66      1.0000 0.99248  0.69832  0.54953  Biso   1.000  C
  H51      1.0000 0.96367  0.68023  0.55383  Biso   1.000  H
  C67      1.0000 0.00844  0.70879  0.47793  Biso   1.000  C
  H52      1.0000 0.03737  0.72623  0.47343  Biso   1.000  H
  C68      1.0000 0.98425  0.69512  0.40623  Biso   1.000  C
  C69      1.0000 0.99700  0.72046  0.33973  Biso   1.000  C
  H53      1.0000 0.02207  0.74603  0.34043  Biso   1.000  H
  C70      1.0000 0.97298  0.70792  0.27373  Biso   1.000  C
  H54      1.0000 0.98167  0.72553  0.22963  Biso   1.000  H
  C71      1.0000 0.92648  0.64656  0.33193  Biso   1.000  C
  H55      1.0000 0.90227  0.62033  0.32833  Biso   1.000  H
  C72      1.0000 0.94843  0.65720  0.40043  Biso   1.000  C
  H56      1.0000 0.93917  0.63873  0.44333  Biso   1.000  H
  Ni5      1.0000 0.84041  0.97580  0.47721  Biso   1.000  Ni
  Ni6      1.0000 0.76482  0.10601  0.18633  Biso   1.000  Ni
  O17      1.0000 0.85675  0.01274  0.37933  Biso   1.000  O
  O18      1.0000 0.87102  0.97909  0.28937  Biso   1.000  O
  O19      1.0000 0.94924  0.05995  0.38894  Biso   1.000  O
  O20      1.0000 0.94338  0.11474  0.42153  Biso   1.000  O
  O21      1.0000 0.93315  0.19345  0.13210  Biso   1.000  O
  O22      1.0000 0.87990  0.17151  0.20906  Biso   1.000  O
  O23      1.0000 0.84660  0.11377  0.06663  Biso   1.000  O
  O24      1.0000 0.80423  0.08443  0.16765  Biso   1.000  O
  N9       1.0000 0.77881  0.94022  0.44357  Biso   1.000  N
  N10      1.0000 0.52336  0.83638  0.20107  Biso   1.000  N
  N11      1.0000 0.72816  0.07549  0.09217  Biso   1.000  N
  N12      1.0000 0.60451  0.00511  0.60287  Biso   1.000  N
  C73      1.0000 0.88794  0.04811  0.26067  Biso   1.000  C
  H57      1.0000 0.89743  0.04077  0.21197  Biso   1.000  H
  C74      1.0000 0.92496  0.08878  0.29257  Biso   1.000  C
  H58      1.0000 0.94883  0.09537  0.25757  Biso   1.000  H
  C75      1.0000 0.85280  0.05689  0.23747  Biso   1.000  C
  H59      1.0000 0.82723  0.03077  0.22317  Biso   1.000  H
  C76      1.0000 0.86904  0.08651  0.16737  Biso   1.000  C
  H60      1.0000 0.87753  0.07317  0.12667  Biso   1.000  H
  C77      1.0000 0.90882  0.12718  0.19317  Biso   1.000  C
  H61      1.0000 0.93293  0.12907  0.16457  Biso   1.000  H
  C78      1.0000 0.91540  0.12406  0.28217  Biso   1.000  C
  H62      1.0000 0.93873  0.15057  0.30197  Biso   1.000  H
  C79      1.0000 0.84442  0.07820  0.30307  Biso   1.000  C
  H63      1.0000 0.81803  0.06727  0.32657  Biso   1.000  H
  C80      1.0000 0.87644  0.11315  0.32547  Biso   1.000  C
  H64      1.0000 0.87503  0.12997  0.36527  Biso   1.000  H
  C81      1.0000 0.87133  0.01071  0.31507  Biso   1.000  C
  C82      1.0000 0.93933  0.08706  0.37487  Biso   1.000  C
  C83      1.0000 0.83727  0.09564  0.13067  Biso   1.000  C
  C84      1.0000 0.90693  0.16588  0.17727  Biso   1.000  C
  C85      1.0000 0.76951  0.93018  0.36837  Biso   1.000  C
  H65      1.0000 0.79143  0.93957  0.33187  Biso   1.000  H
  C86      1.0000 0.72967  0.90683  0.34177  Biso   1.000  C
  H66      1.0000 0.72463  0.90087  0.28787  Biso   1.000  H
  C87      1.0000 0.69659  0.89182  0.39357  Biso   1.000  C
  C88      1.0000 0.70619  0.89995  0.47247  Biso   1.000  C
  H67      1.0000 0.68493  0.88887  0.51047  Biso   1.000  H
  C89      1.0000 0.74706  0.92441  0.49507  Biso   1.000  C
  H68      1.0000 0.75303  0.93037  0.54877  Biso   1.000  H
  C90      1.0000 0.65327  0.87141  0.36857  Biso   1.000  C
  H69      1.0000 0.63263  0.86117  0.40777  Biso   1.000  H
  C91      1.0000 0.64083  0.86620  0.29457  Biso   1.000  C
  H70      1.0000 0.66133  0.87197  0.25637  Biso   1.000  H
  C92      1.0000 0.59908  0.85253  0.26527  Biso   1.000  C
  C93      1.0000 0.59395  0.85541  0.18557  Biso   1.000  C
  H71      1.0000 0.61643  0.86277  0.15117  Biso   1.000  H
  C94      1.0000 0.55650  0.84769  0.15657  Biso   1.000  C
  H72      1.0000 0.55413  0.85057  0.10227  Biso   1.000  H
  C95      1.0000 0.52735  0.83182  0.27727  Biso   1.000  C
  H73      1.0000 0.50383  0.82297  0.30957  Biso   1.000  H
  C96      1.0000 0.56405  0.83938  0.31137  Biso   1.000  C
  H74      1.0000 0.56533  0.83557  0.36567  Biso   1.000  H
  C97      1.0000 0.68858  0.06486  0.08937  Biso   1.000  C
  H75      1.0000 0.67593  0.06747  0.13517  Biso   1.000  H
  C98      1.0000 0.66505  0.05013  0.02247  Biso   1.000  C
  H76      1.0000 0.63683  0.04277  0.02297  Biso   1.000  H
  C99      1.0000 0.68289  0.04607  0.95447  Biso   1.000  C
  C100     1.0000 0.72450  0.05688  0.95827  Biso   1.000  C
  H77      1.0000 0.73793  0.05417  0.91367  Biso   1.000  H
  C101     1.0000 0.74585  0.07153  0.02757  Biso   1.000  C
  H78      1.0000 0.77413  0.07907  0.02937  Biso   1.000  H
  C102     1.0000 0.65914  0.03166  0.88287  Biso   1.000  C
  H79      1.0000 0.63033  0.01357  0.88717  Biso   1.000  H
  C103     1.0000 0.67510  0.04213  0.81127  Biso   1.000  C
  H80      1.0000 0.70403  0.05957  0.80677  Biso   1.000  H
  C104     1.0000 0.65091  0.02846  0.73957  Biso   1.000  C
  C105     1.0000 0.66366  0.05380  0.67307  Biso   1.000  C
  H81      1.0000 0.68873  0.07937  0.67377  Biso   1.000  H
  C106     1.0000 0.63964  0.04126  0.60707  Biso   1.000  C
  H82      1.0000 0.64833  0.05887  0.56297  Biso   1.000  H
  C107     1.0000 0.59314  0.97990  0.66527  Biso   1.000  C
  H83      1.0000 0.56893  0.95367  0.66167  Biso   1.000  H
  C108     1.0000 0.61509  0.99054  0.73377  Biso   1.000  C
  H84      1.0000 0.60583  0.97207  0.77667  Biso   1.000  H
  Ni7      1.0000 0.69087  0.19795  0.81054  Biso   1.000  Ni
  Ni8      1.0000 0.56066  0.99215  0.51966  Biso   1.000  Ni
  O25      1.0000 0.65393  0.17735  0.71266  Biso   1.000  O
  O26      1.0000 0.68758  0.22527  0.62270  Biso   1.000  O
  O27      1.0000 0.60672  0.22263  0.72227  Biso   1.000  O
  O28      1.0000 0.55193  0.16198  0.75486  Biso   1.000  O
  O29      1.0000 0.47322  0.07304  0.46543  Biso   1.000  O
  O30      1.0000 0.49516  0.04173  0.54239  Biso   1.000  O
  O31      1.0000 0.55290  0.06617  0.39996  Biso   1.000  O
  O32      1.0000 0.58224  0.05314  0.50098  Biso   1.000  O
  N13      1.0000 0.72645  0.17193  0.77690  Biso   1.000  N
  N14      1.0000 0.83029  0.02032  0.53440  Biso   1.000  N
  N15      1.0000 0.59118  0.98601  0.42550  Biso   1.000  N
  N16      1.0000 0.66156  0.93274  0.93620  Biso   1.000  N
  C109     1.0000 0.61856  0.17317  0.59400  Biso   1.000  C
  H85      1.0000 0.62590  0.19000  0.54530  Biso   1.000  H
  C110     1.0000 0.57789  0.16952  0.62590  Biso   1.000  C
  H86      1.0000 0.57130  0.18680  0.59090  Biso   1.000  H
  C111     1.0000 0.60978  0.12925  0.57080  Biso   1.000  C
  H87      1.0000 0.63590  0.12980  0.55650  Biso   1.000  H
  C112     1.0000 0.58016  0.11587  0.50070  Biso   1.000  C
  H88      1.0000 0.59350  0.13770  0.46000  Biso   1.000  H
  C113     1.0000 0.53949  0.11498  0.52650  Biso   1.000  C
  H89      1.0000 0.53760  0.13720  0.49790  Biso   1.000  H
  C114     1.0000 0.54261  0.12468  0.61550  Biso   1.000  C
  H90      1.0000 0.51610  0.12150  0.63530  Biso   1.000  H
  C115     1.0000 0.58847  0.09956  0.63640  Biso   1.000  C
  H91      1.0000 0.59940  0.08410  0.65990  Biso   1.000  H
  C116     1.0000 0.55352  0.09663  0.65880  Biso   1.000  C
  H92      1.0000 0.53670  0.07840  0.69860  Biso   1.000  H
  C117     1.0000 0.65596  0.19396  0.64840  Biso   1.000  C
  C118     1.0000 0.57961  0.18561  0.70820  Biso   1.000  C
  C119     1.0000 0.57103  0.07497  0.46400  Biso   1.000  C
  C120     1.0000 0.50079  0.07439  0.51060  Biso   1.000  C
  C121     1.0000 0.73649  0.17267  0.70170  Biso   1.000  C
  H93      1.0000 0.72710  0.18520  0.66520  Biso   1.000  H
  C122     1.0000 0.75984  0.15618  0.67510  Biso   1.000  C
  H94      1.0000 0.76580  0.15710  0.62120  Biso   1.000  H
  C123     1.0000 0.77485  0.13811  0.72690  Biso   1.000  C
  C124     1.0000 0.76672  0.13958  0.80580  Biso   1.000  C
  H95      1.0000 0.77780  0.12940  0.84380  Biso   1.000  H
  C125     1.0000 0.74226  0.15599  0.82840  Biso   1.000  C
  H96      1.0000 0.73630  0.15600  0.88210  Biso   1.000  H
  C126     1.0000 0.79526  0.11520  0.70190  Biso   1.000  C
  H97      1.0000 0.80550  0.10480  0.74110  Biso   1.000  H
  C127     1.0000 0.80047  0.10797  0.62790  Biso   1.000  C
  H98      1.0000 0.79470  0.12270  0.58970  Biso   1.000  H
  C128     1.0000 0.81414  0.07989  0.59860  Biso   1.000  C
  C129     1.0000 0.81126  0.07188  0.51890  Biso   1.000  C
  H99      1.0000 0.80390  0.08700  0.48450  Biso   1.000  H
  C130     1.0000 0.81898  0.04215  0.48990  Biso   1.000  C
  H100     1.0000 0.81610  0.03690  0.43560  Biso   1.000  H
  C131     1.0000 0.83485  0.02887  0.61060  Biso   1.000  C
  H101     1.0000 0.84370  0.01420  0.64290  Biso   1.000  H
  C132     1.0000 0.82729  0.05801  0.64470  Biso   1.000  C
  H102     1.0000 0.83110  0.06310  0.69900  Biso   1.000  H
  C133     1.0000 0.60181  0.95706  0.42270  Biso   1.000  C
  H103     1.0000 0.59920  0.94180  0.46850  Biso   1.000  H
  C134     1.0000 0.61654  0.94826  0.35580  Biso   1.000  C
  H104     1.0000 0.62390  0.92740  0.35630  Biso   1.000  H
  C135     1.0000 0.62060  0.97016  0.28780  Biso   1.000  C
  C136     1.0000 0.60979  0.00096  0.29160  Biso   1.000  C
  H105     1.0000 0.61250  0.01710  0.24700  Biso   1.000  H
  C137     1.0000 0.59514  0.00766  0.36090  Biso   1.000  C
  H106     1.0000 0.58760  0.02840  0.36270  Biso   1.000  H
  C138     1.0000 0.63501  0.96082  0.21620  Biso   1.000  C
  H107     1.0000 0.65310  0.95010  0.22050  Biso   1.000  H
  C139     1.0000 0.62454  0.96631  0.14460  Biso   1.000  C
  H108     1.0000 0.60710  0.97780  0.14010  Biso   1.000  H
  C140     1.0000 0.63821  0.95579  0.07290  Biso   1.000  C
  C141     1.0000 0.61287  0.94320  0.00640  Biso   1.000  C
  H109     1.0000 0.58730  0.94270  0.00710  Biso   1.000  H
  C142     1.0000 0.62541  0.93172  0.94040  Biso   1.000  C
  H110     1.0000 0.60780  0.92280  0.89630  Biso   1.000  H
  C143     1.0000 0.68677  0.94658  0.99860  Biso   1.000  C
  H111     1.0000 0.71300  0.94860  0.99500  Biso   1.000  H
  C144     1.0000 0.67613  0.95789  0.06710  Biso   1.000  C
  H112     1.0000 0.69460  0.96710  0.11000  Biso   1.000  H
  Ni9      1.0000 0.35754  0.53128  0.14387  Biso   1.000  Ni
  Ni10     1.0000 0.22733  0.32548  0.85299  Biso   1.000  Ni
  O33      1.0000 0.32060  0.51068  0.04599  Biso   1.000  O
  O34      1.0000 0.35425  0.55860  0.95603  Biso   1.000  O
  O35      1.0000 0.27339  0.55596  0.05560  Biso   1.000  O
  O36      1.0000 0.21860  0.49531  0.08819  Biso   1.000  O
  O37      1.0000 0.13989  0.40637  0.79876  Biso   1.000  O
  O38      1.0000 0.16183  0.37506  0.87572  Biso   1.000  O
  O39      1.0000 0.21957  0.39950  0.73329  Biso   1.000  O
  O40      1.0000 0.24891  0.38647  0.83431  Biso   1.000  O
  N17      1.0000 0.39312  0.50526  0.11023  Biso   1.000  N
  N18      1.0000 0.49696  0.35365  0.86773  Biso   1.000  N
  N19      1.0000 0.25785  0.31934  0.75883  Biso   1.000  N
  N20      1.0000 0.32823  0.26607  0.26953  Biso   1.000  N
  C145     1.0000 0.28523  0.50650  0.92733  Biso   1.000  C
  H113     1.0000 0.29257  0.52333  0.87863  Biso   1.000  H
  C146     1.0000 0.24456  0.50285  0.95923  Biso   1.000  C
  H114     1.0000 0.23797  0.52013  0.92423  Biso   1.000  H
  C147     1.0000 0.27645  0.46258  0.90413  Biso   1.000  C
  H115     1.0000 0.30257  0.46313  0.88983  Biso   1.000  H
  C148     1.0000 0.24683  0.44920  0.83403  Biso   1.000  C
  H116     1.0000 0.26017  0.47103  0.79333  Biso   1.000  H
  C149     1.0000 0.20616  0.44831  0.85983  Biso   1.000  C
  H117     1.0000 0.20427  0.47053  0.83123  Biso   1.000  H
  C150     1.0000 0.20928  0.45801  0.94883  Biso   1.000  C
  H118     1.0000 0.18277  0.45483  0.96863  Biso   1.000  H
  C151     1.0000 0.25514  0.43289  0.96973  Biso   1.000  C
  H119     1.0000 0.26607  0.41743  0.99323  Biso   1.000  H
  C152     1.0000 0.22019  0.42996  0.99213  Biso   1.000  C
  H120     1.0000 0.20337  0.41173  0.03193  Biso   1.000  H
  C153     1.0000 0.32263  0.52729  0.98173  Biso   1.000  C
  C154     1.0000 0.24628  0.51894  0.04153  Biso   1.000  C
  C155     1.0000 0.23770  0.40830  0.79733  Biso   1.000  C
  C156     1.0000 0.16746  0.40772  0.84393  Biso   1.000  C
  C157     1.0000 0.40316  0.50600  0.03503  Biso   1.000  C
  H121     1.0000 0.39377  0.51853  0.99853  Biso   1.000  H
  C158     1.0000 0.42651  0.48951  0.00843  Biso   1.000  C
  H122     1.0000 0.43247  0.49043  0.95453  Biso   1.000  H
  C159     1.0000 0.44152  0.47144  0.06023  Biso   1.000  C
  C160     1.0000 0.43339  0.47291  0.13913  Biso   1.000  C
  H123     1.0000 0.44447  0.46273  0.17713  Biso   1.000  H
  C161     1.0000 0.40893  0.48932  0.16173  Biso   1.000  C
  H124     1.0000 0.40297  0.48933  0.21543  Biso   1.000  H
  C162     1.0000 0.46193  0.44853  0.03523  Biso   1.000  C
  H125     1.0000 0.47217  0.43813  0.07443  Biso   1.000  H
  C163     1.0000 0.46714  0.44130  0.96123  Biso   1.000  C
  H126     1.0000 0.46137  0.45603  0.92303  Biso   1.000  H
  C164     1.0000 0.48081  0.41322  0.93193  Biso   1.000  C
  C165     1.0000 0.47793  0.40521  0.85223  Biso   1.000  C
  H127     1.0000 0.47057  0.42033  0.81783  Biso   1.000  H
  C166     1.0000 0.48565  0.37548  0.82323  Biso   1.000  C
  H128     1.0000 0.48277  0.37023  0.76893  Biso   1.000  H
  C167     1.0000 0.50152  0.36220  0.94393  Biso   1.000  C
  H129     1.0000 0.51037  0.34753  0.97623  Biso   1.000  H
  C168     1.0000 0.49396  0.39134  0.97803  Biso   1.000  C
  H130     1.0000 0.49777  0.39643  0.03233  Biso   1.000  H
  C169     1.0000 0.26848  0.29039  0.75603  Biso   1.000  C
  H131     1.0000 0.26587  0.27513  0.80183  Biso   1.000  H
  C170     1.0000 0.28321  0.28159  0.68913  Biso   1.000  C
  H132     1.0000 0.29057  0.26073  0.68963  Biso   1.000  H
  C171     1.0000 0.28727  0.30349  0.62113  Biso   1.000  C
  C172     1.0000 0.27646  0.33429  0.62493  Biso   1.000  C
  H133     1.0000 0.27917  0.35043  0.58033  Biso   1.000  H
  C173     1.0000 0.26181  0.34099  0.69423  Biso   1.000  C
  H134     1.0000 0.25427  0.36173  0.69603  Biso   1.000  H
  C174     1.0000 0.30168  0.29415  0.54953  Biso   1.000  C
  H135     1.0000 0.31977  0.28343  0.55383  Biso   1.000  H
  C175     1.0000 0.29121  0.29964  0.47793  Biso   1.000  C
  H136     1.0000 0.27377  0.31113  0.47343  Biso   1.000  H
  C176     1.0000 0.30488  0.28912  0.40623  Biso   1.000  C
  C177     1.0000 0.27954  0.27653  0.33973  Biso   1.000  C
  H137     1.0000 0.25397  0.27603  0.34043  Biso   1.000  H
  C178     1.0000 0.29208  0.26505  0.27373  Biso   1.000  C
  H138     1.0000 0.27447  0.25613  0.22963  Biso   1.000  H
  C179     1.0000 0.35344  0.27991  0.33193  Biso   1.000  C
  H139     1.0000 0.37967  0.28193  0.32833  Biso   1.000  H
  C180     1.0000 0.34280  0.29122  0.40043  Biso   1.000  C
  H140     1.0000 0.36127  0.30043  0.44333  Biso   1.000  H
  Ni11     1.0000 0.02420  0.86462  0.47721  Biso   1.000  Ni
  Ni12     1.0000 0.89399  0.65882  0.18633  Biso   1.000  Ni
  O41      1.0000 0.98726  0.84402  0.37933  Biso   1.000  O
  O42      1.0000 0.02091  0.89194  0.28937  Biso   1.000  O
  O43      1.0000 0.94005  0.88930  0.38894  Biso   1.000  O
  O44      1.0000 0.88526  0.82865  0.42153  Biso   1.000  O
  O45      1.0000 0.80655  0.73971  0.13210  Biso   1.000  O
  O46      1.0000 0.82849  0.70840  0.20906  Biso   1.000  O
  O47      1.0000 0.88623  0.73284  0.06663  Biso   1.000  O
  O48      1.0000 0.91557  0.71981  0.16765  Biso   1.000  O
  N21      1.0000 0.05978  0.83860  0.44357  Biso   1.000  N
  N22      1.0000 0.16362  0.68699  0.20107  Biso   1.000  N
  N23      1.0000 0.92451  0.65268  0.09217  Biso   1.000  N
  N24      1.0000 0.99489  0.59941  0.60287  Biso   1.000  N
  C181     1.0000 0.95189  0.83984  0.26067  Biso   1.000  C
  H141     1.0000 0.95923  0.85667  0.21197  Biso   1.000  H
  C182     1.0000 0.91122  0.83619  0.29257  Biso   1.000  C
  H142     1.0000 0.90463  0.85347  0.25757  Biso   1.000  H
  C183     1.0000 0.94311  0.79592  0.23747  Biso   1.000  C
  H143     1.0000 0.96923  0.79647  0.22317  Biso   1.000  H
  C184     1.0000 0.91349  0.78254  0.16737  Biso   1.000  C
  H144     1.0000 0.92683  0.80437  0.12667  Biso   1.000  H
  C185     1.0000 0.87282  0.78165  0.19317  Biso   1.000  C
  H145     1.0000 0.87093  0.80387  0.16457  Biso   1.000  H
  C186     1.0000 0.87594  0.79135  0.28217  Biso   1.000  C
  H146     1.0000 0.84943  0.78817  0.30197  Biso   1.000  H
  C187     1.0000 0.92180  0.76623  0.30307  Biso   1.000  C
  H147     1.0000 0.93273  0.75077  0.32657  Biso   1.000  H
  C188     1.0000 0.88685  0.76330  0.32547  Biso   1.000  C
  H148     1.0000 0.87003  0.74507  0.36527  Biso   1.000  H
  C189     1.0000 0.98929  0.86063  0.31507  Biso   1.000  C
  C190     1.0000 0.91294  0.85228  0.37487  Biso   1.000  C
  C191     1.0000 0.90436  0.74164  0.13067  Biso   1.000  C
  C192     1.0000 0.83412  0.74106  0.17727  Biso   1.000  C
  C193     1.0000 0.06982  0.83934  0.36837  Biso   1.000  C
  H149     1.0000 0.06043  0.85187  0.33187  Biso   1.000  H
  C194     1.0000 0.09317  0.82285  0.34177  Biso   1.000  C
  H150     1.0000 0.09913  0.82377  0.28787  Biso   1.000  H
  C195     1.0000 0.10818  0.80478  0.39357  Biso   1.000  C
  C196     1.0000 0.10005  0.80625  0.47247  Biso   1.000  C
  H151     1.0000 0.11113  0.79607  0.51047  Biso   1.000  H
  C197     1.0000 0.07559  0.82266  0.49507  Biso   1.000  C
  H152     1.0000 0.06963  0.82267  0.54877  Biso   1.000  H
  C198     1.0000 0.12859  0.78187  0.36857  Biso   1.000  C
  H153     1.0000 0.13883  0.77147  0.40777  Biso   1.000  H
  C199     1.0000 0.13380  0.77464  0.29457  Biso   1.000  C
  H154     1.0000 0.12803  0.78937  0.25637  Biso   1.000  H
  C200     1.0000 0.14747  0.74656  0.26527  Biso   1.000  C
  C201     1.0000 0.14459  0.73855  0.18557  Biso   1.000  C
  H155     1.0000 0.13723  0.75367  0.15117  Biso   1.000  H
  C202     1.0000 0.15231  0.70882  0.15657  Biso   1.000  C
  H156     1.0000 0.14943  0.70357  0.10227  Biso   1.000  H
  C203     1.0000 0.16818  0.69554  0.27727  Biso   1.000  C
  H157     1.0000 0.17703  0.68087  0.30957  Biso   1.000  H
  C204     1.0000 0.16062  0.72468  0.31137  Biso   1.000  C
  H158     1.0000 0.16443  0.72977  0.36567  Biso   1.000  H
  C205     1.0000 0.93514  0.62373  0.08937  Biso   1.000  C
  H159     1.0000 0.93253  0.60847  0.13517  Biso   1.000  H
  C206     1.0000 0.94987  0.61493  0.02247  Biso   1.000  C
  H160     1.0000 0.95723  0.59407  0.02297  Biso   1.000  H
  C207     1.0000 0.95393  0.63683  0.95447  Biso   1.000  C
  C208     1.0000 0.94312  0.66763  0.95827  Biso   1.000  C
  H161     1.0000 0.94583  0.68377  0.91367  Biso   1.000  H
  C209     1.0000 0.92847  0.67433  0.02757  Biso   1.000  C
  H162     1.0000 0.92093  0.69507  0.02937  Biso   1.000  H
  C210     1.0000 0.96834  0.62749  0.88287  Biso   1.000  C
  H163     1.0000 0.98643  0.61677  0.88717  Biso   1.000  H
  C211     1.0000 0.95787  0.63298  0.81127  Biso   1.000  C
  H164     1.0000 0.94043  0.64447  0.80677  Biso   1.000  H
  C212     1.0000 0.97154  0.62246  0.73957  Biso   1.000  C
  C213     1.0000 0.94620  0.60987  0.67307  Biso   1.000  C
  H165     1.0000 0.92063  0.60937  0.67377  Biso   1.000  H
  C214     1.0000 0.95874  0.59839  0.60707  Biso   1.000  C
  H166     1.0000 0.94113  0.58947  0.56297  Biso   1.000  H
  C215     1.0000 0.02010  0.61325  0.66527  Biso   1.000  C
  H167     1.0000 0.04633  0.61527  0.66167  Biso   1.000  H
  C216     1.0000 0.00946  0.62456  0.73377  Biso   1.000  C
  H168     1.0000 0.02793  0.63377  0.77667  Biso   1.000  H
  Ni13     1.0000 0.80205  0.49292  0.81054  Biso   1.000  Ni
  Ni14     1.0000 0.00785  0.56851  0.51966  Biso   1.000  Ni
  O49      1.0000 0.82265  0.47658  0.71266  Biso   1.000  O
  O50      1.0000 0.77473  0.46231  0.62270  Biso   1.000  O
  O51      1.0000 0.77737  0.38409  0.72227  Biso   1.000  O
  O52      1.0000 0.83802  0.38995  0.75486  Biso   1.000  O
  O53      1.0000 0.92696  0.40018  0.46543  Biso   1.000  O
  O54      1.0000 0.95827  0.45343  0.54239  Biso   1.000  O
  O55      1.0000 0.93383  0.48673  0.39996  Biso   1.000  O
  O56      1.0000 0.94686  0.52910  0.50098  Biso   1.000  O
  N25      1.0000 0.82807  0.55452  0.77690  Biso   1.000  N
  N26      1.0000 0.97968  0.80997  0.53440  Biso   1.000  N
  N27      1.0000 0.01399  0.60517  0.42550  Biso   1.000  N
  N28      1.0000 0.06726  0.72882  0.93620  Biso   1.000  N
  C217     1.0000 0.82683  0.44539  0.59400  Biso   1.000  C
  H169     1.0000 0.81000  0.43590  0.54530  Biso   1.000  H
  C218     1.0000 0.83048  0.40837  0.62590  Biso   1.000  C
  H170     1.0000 0.81320  0.38450  0.59090  Biso   1.000  H
  C219     1.0000 0.87075  0.48053  0.57080  Biso   1.000  C
  H171     1.0000 0.87020  0.50610  0.55650  Biso   1.000  H
  C220     1.0000 0.88413  0.46429  0.50070  Biso   1.000  C
  H172     1.0000 0.86230  0.45580  0.46000  Biso   1.000  H
  C221     1.0000 0.88502  0.42451  0.52650  Biso   1.000  C
  H173     1.0000 0.86280  0.40040  0.49790  Biso   1.000  H
  C222     1.0000 0.87532  0.41793  0.61550  Biso   1.000  C
  H174     1.0000 0.87850  0.39460  0.63530  Biso   1.000  H
  C223     1.0000 0.90044  0.48891  0.63640  Biso   1.000  C
  H175     1.0000 0.91590  0.51530  0.65990  Biso   1.000  H
  C224     1.0000 0.90337  0.45689  0.65880  Biso   1.000  C
  H176     1.0000 0.92160  0.45830  0.69860  Biso   1.000  H
  C225     1.0000 0.80604  0.46200  0.64840  Biso   1.000  C
  C226     1.0000 0.81439  0.39400  0.70820  Biso   1.000  C
  C227     1.0000 0.92503  0.49606  0.46400  Biso   1.000  C
  C228     1.0000 0.92561  0.42640  0.51060  Biso   1.000  C
  C229     1.0000 0.82733  0.56382  0.70170  Biso   1.000  C
  H177     1.0000 0.81480  0.54190  0.66520  Biso   1.000  H
  C230     1.0000 0.84382  0.60366  0.67510  Biso   1.000  C
  H178     1.0000 0.84290  0.60870  0.62120  Biso   1.000  H
  C231     1.0000 0.86189  0.63674  0.72690  Biso   1.000  C
  C232     1.0000 0.86042  0.62714  0.80580  Biso   1.000  C
  H179     1.0000 0.87060  0.64840  0.84380  Biso   1.000  H
  C233     1.0000 0.84401  0.58627  0.82840  Biso   1.000  C
  H180     1.0000 0.84400  0.58030  0.88210  Biso   1.000  H
  C234     1.0000 0.88480  0.68006  0.70190  Biso   1.000  C
  H181     1.0000 0.89520  0.70070  0.74110  Biso   1.000  H
  C235     1.0000 0.89203  0.69250  0.62790  Biso   1.000  C
  H182     1.0000 0.87730  0.67200  0.58970  Biso   1.000  H
  C236     1.0000 0.92011  0.73425  0.59860  Biso   1.000  C
  C237     1.0000 0.92812  0.73938  0.51890  Biso   1.000  C
  H183     1.0000 0.91300  0.71690  0.48450  Biso   1.000  H
  C238     1.0000 0.95785  0.77683  0.48990  Biso   1.000  C
  H184     1.0000 0.96310  0.77920  0.43560  Biso   1.000  H
  C239     1.0000 0.97113  0.80598  0.61060  Biso   1.000  C
  H185     1.0000 0.98580  0.82950  0.64290  Biso   1.000  H
  C240     1.0000 0.94199  0.76928  0.64470  Biso   1.000  C
  H186     1.0000 0.93690  0.76800  0.69900  Biso   1.000  H
  C241     1.0000 0.04294  0.64475  0.42270  Biso   1.000  C
  H187     1.0000 0.05820  0.65740  0.46850  Biso   1.000  H
  C242     1.0000 0.05174  0.66828  0.35580  Biso   1.000  C
  H188     1.0000 0.07260  0.69650  0.35630  Biso   1.000  H
  C243     1.0000 0.02984  0.65044  0.28780  Biso   1.000  C
  C244     1.0000 0.99904  0.60883  0.29160  Biso   1.000  C
  H189     1.0000 0.98290  0.59540  0.24700  Biso   1.000  H
  C245     1.0000 0.99234  0.58748  0.36090  Biso   1.000  C
  H190     1.0000 0.97160  0.55920  0.36270  Biso   1.000  H
  C246     1.0000 0.03918  0.67419  0.21620  Biso   1.000  C
  H191     1.0000 0.04990  0.70300  0.22050  Biso   1.000  H
  C247     1.0000 0.03369  0.65823  0.14460  Biso   1.000  C
  H192     1.0000 0.02220  0.62930  0.14010  Biso   1.000  H
  C248     1.0000 0.04421  0.68242  0.07290  Biso   1.000  C
  C249     1.0000 0.05680  0.66967  0.00640  Biso   1.000  C
  H193     1.0000 0.05730  0.64460  0.00710  Biso   1.000  H
  C250     1.0000 0.06828  0.69369  0.94040  Biso   1.000  C
  H194     1.0000 0.07720  0.68500  0.89630  Biso   1.000  H
  C251     1.0000 0.05342  0.74019  0.99860  Biso   1.000  C
  H195     1.0000 0.05140  0.76440  0.99500  Biso   1.000  H
  C252     1.0000 0.04211  0.71824  0.06710  Biso   1.000  C
  H196     1.0000 0.03290  0.72750  0.11000  Biso   1.000  H
  Ni15     1.0000 0.46872  0.82625  0.14387  Biso   1.000  Ni
  Ni16     1.0000 0.67452  0.90184  0.85299  Biso   1.000  Ni
  O57      1.0000 0.48932  0.80991  0.04599  Biso   1.000  O
  O58      1.0000 0.44140  0.79564  0.95603  Biso   1.000  O
  O59      1.0000 0.44404  0.71742  0.05560  Biso   1.000  O
  O60      1.0000 0.50469  0.72328  0.08819  Biso   1.000  O
  O61      1.0000 0.59363  0.73351  0.79876  Biso   1.000  O
  O62      1.0000 0.62494  0.78676  0.87572  Biso   1.000  O
  O63      1.0000 0.60050  0.82006  0.73329  Biso   1.000  O
  O64      1.0000 0.61353  0.86243  0.83431  Biso   1.000  O
  N29      1.0000 0.49474  0.88785  0.11023  Biso   1.000  N
  N30      1.0000 0.64635  0.14330  0.86773  Biso   1.000  N
  N31      1.0000 0.68066  0.93850  0.75883  Biso   1.000  N
  N32      1.0000 0.73393  0.06215  0.26953  Biso   1.000  N
  C253     1.0000 0.49350  0.77872  0.92733  Biso   1.000  C
  H197     1.0000 0.47667  0.76923  0.87863  Biso   1.000  H
  C254     1.0000 0.49715  0.74170  0.95923  Biso   1.000  C
  H198     1.0000 0.47987  0.71783  0.92423  Biso   1.000  H
  C255     1.0000 0.53742  0.81386  0.90413  Biso   1.000  C
  H199     1.0000 0.53687  0.83943  0.88983  Biso   1.000  H
  C256     1.0000 0.55080  0.79762  0.83403  Biso   1.000  C
  H200     1.0000 0.52897  0.78913  0.79333  Biso   1.000  H
  C257     1.0000 0.55169  0.75784  0.85983  Biso   1.000  C
  H201     1.0000 0.52947  0.73373  0.83123  Biso   1.000  H
  C258     1.0000 0.54199  0.75126  0.94883  Biso   1.000  C
  H202     1.0000 0.54517  0.72793  0.96863  Biso   1.000  H
  C259     1.0000 0.56711  0.82224  0.96973  Biso   1.000  C
  H203     1.0000 0.58257  0.84863  0.99323  Biso   1.000  H
  C260     1.0000 0.57004  0.79022  0.99213  Biso   1.000  C
  H204     1.0000 0.58827  0.79163  0.03193  Biso   1.000  H
  C261     1.0000 0.47271  0.79533  0.98173  Biso   1.000  C
  C262     1.0000 0.48106  0.72733  0.04153  Biso   1.000  C
  C263     1.0000 0.59170  0.82939  0.79733  Biso   1.000  C
  C264     1.0000 0.59228  0.75973  0.84393  Biso   1.000  C
  C265     1.0000 0.49400  0.89715  0.03503  Biso   1.000  C
  H205     1.0000 0.48147  0.87523  0.99853  Biso   1.000  H
  C266     1.0000 0.51049  0.93699  0.00843  Biso   1.000  C
  H206     1.0000 0.50957  0.94203  0.95453  Biso   1.000  H
  C267     1.0000 0.52856  0.97007  0.06023  Biso   1.000  C
  C268     1.0000 0.52709  0.96047  0.13913  Biso   1.000  C
  H207     1.0000 0.53727  0.98173  0.17713  Biso   1.000  H
  C269     1.0000 0.51068  0.91960  0.16173  Biso   1.000  C
  H208     1.0000 0.51067  0.91363  0.21543  Biso   1.000  H
  C270     1.0000 0.55147  0.01339  0.03523  Biso   1.000  C
  H209     1.0000 0.56187  0.03403  0.07443  Biso   1.000  H
  C271     1.0000 0.55870  0.02583  0.96123  Biso   1.000  C
  H210     1.0000 0.54397  0.00533  0.92303  Biso   1.000  H
  C272     1.0000 0.58678  0.06758  0.93193  Biso   1.000  C
  C273     1.0000 0.59479  0.07271  0.85223  Biso   1.000  C
  H211     1.0000 0.57967  0.05023  0.81783  Biso   1.000  H
  C274     1.0000 0.62452  0.11016  0.82323  Biso   1.000  C
  H212     1.0000 0.62977  0.11253  0.76893  Biso   1.000  H
  C275     1.0000 0.63780  0.13931  0.94393  Biso   1.000  C
  H213     1.0000 0.65247  0.16283  0.97623  Biso   1.000  H
  C276     1.0000 0.60866  0.10261  0.97803  Biso   1.000  C
  H214     1.0000 0.60357  0.10133  0.03233  Biso   1.000  H
  C277     1.0000 0.70961  0.97808  0.75603  Biso   1.000  C
  H215     1.0000 0.72487  0.99073  0.80183  Biso   1.000  H
  C278     1.0000 0.71841  0.00161  0.68913  Biso   1.000  C
  H216     1.0000 0.73927  0.02983  0.68963  Biso   1.000  H
  C279     1.0000 0.69651  0.98377  0.62113  Biso   1.000  C
  C280     1.0000 0.66571  0.94216  0.62493  Biso   1.000  C
  H217     1.0000 0.64957  0.92873  0.58033  Biso   1.000  H
  C281     1.0000 0.65901  0.92081  0.69423  Biso   1.000  C
  H218     1.0000 0.63827  0.89253  0.69603  Biso   1.000  H
  C282     1.0000 0.70585  0.00752  0.54953  Biso   1.000  C
  H219     1.0000 0.71657  0.03633  0.55383  Biso   1.000  H
  C283     1.0000 0.70036  0.99156  0.47793  Biso   1.000  C
  H220     1.0000 0.68887  0.96263  0.47343  Biso   1.000  H
  C284     1.0000 0.71088  0.01575  0.40623  Biso   1.000  C
  C285     1.0000 0.72347  0.00300  0.33973  Biso   1.000  C
  H221     1.0000 0.72397  0.97793  0.34043  Biso   1.000  H
  C286     1.0000 0.73495  0.02702  0.27373  Biso   1.000  C
  H222     1.0000 0.74387  0.01833  0.22963  Biso   1.000  H
  C287     1.0000 0.72009  0.07352  0.33193  Biso   1.000  C
  H223     1.0000 0.71807  0.09773  0.32833  Biso   1.000  H
  C288     1.0000 0.70878  0.05157  0.40043  Biso   1.000  C
  H224     1.0000 0.69957  0.06083  0.44333  Biso   1.000  H
  Ni17     1.0000 0.13538  0.15959  0.47721  Biso   1.000  Ni
  Ni18     1.0000 0.34118  0.23518  0.18633  Biso   1.000  Ni
  O65      1.0000 0.15598  0.14325  0.37933  Biso   1.000  O
  O66      1.0000 0.10806  0.12898  0.28937  Biso   1.000  O
  O67      1.0000 0.11070  0.05076  0.38894  Biso   1.000  O
  O68      1.0000 0.17135  0.05662  0.42153  Biso   1.000  O
  O69      1.0000 0.26029  0.06685  0.13210  Biso   1.000  O
  O70      1.0000 0.29160  0.12010  0.20906  Biso   1.000  O
  O71      1.0000 0.26716  0.15340  0.06663  Biso   1.000  O
  O72      1.0000 0.28019  0.19577  0.16765  Biso   1.000  O
  N33      1.0000 0.16140  0.22119  0.44357  Biso   1.000  N
  N34      1.0000 0.31301  0.47664  0.20107  Biso   1.000  N
  N35      1.0000 0.34732  0.27184  0.09217  Biso   1.000  N
  N36      1.0000 0.40059  0.39549  0.60287  Biso   1.000  N
  C289     1.0000 0.16016  0.11206  0.26067  Biso   1.000  C
  H225     1.0000 0.14333  0.10257  0.21197  Biso   1.000  H
  C290     1.0000 0.16381  0.07504  0.29257  Biso   1.000  C
  H226     1.0000 0.14653  0.05117  0.25757  Biso   1.000  H
  C291     1.0000 0.20408  0.14720  0.23747  Biso   1.000  C
  H227     1.0000 0.20353  0.17277  0.22317  Biso   1.000  H
  C292     1.0000 0.21746  0.13096  0.16737  Biso   1.000  C
  H228     1.0000 0.19563  0.12247  0.12667  Biso   1.000  H
  C293     1.0000 0.21835  0.09118  0.19317  Biso   1.000  C
  H229     1.0000 0.19613  0.06707  0.16457  Biso   1.000  H
  C294     1.0000 0.20865  0.08460  0.28217  Biso   1.000  C
  H230     1.0000 0.21183  0.06127  0.30197  Biso   1.000  H
  C295     1.0000 0.23377  0.15558  0.30307  Biso   1.000  C
  H231     1.0000 0.24923  0.18197  0.32657  Biso   1.000  H
  C296     1.0000 0.23670  0.12356  0.32547  Biso   1.000  C
  H232     1.0000 0.25493  0.12497  0.36527  Biso   1.000  H
  C297     1.0000 0.13937  0.12867  0.31507  Biso   1.000  C
  C298     1.0000 0.14772  0.06067  0.37487  Biso   1.000  C
  C299     1.0000 0.25836  0.16273  0.13067  Biso   1.000  C
  C300     1.0000 0.25894  0.09307  0.17727  Biso   1.000  C
  C301     1.0000 0.16066  0.23049  0.36837  Biso   1.000  C
  H233     1.0000 0.14813  0.20857  0.33187  Biso   1.000  H
  C302     1.0000 0.17715  0.27033  0.34177  Biso   1.000  C
  H234     1.0000 0.17623  0.27537  0.28787  Biso   1.000  H
  C303     1.0000 0.19522  0.30341  0.39357  Biso   1.000  C
  C304     1.0000 0.19375  0.29381  0.47247  Biso   1.000  C
  H235     1.0000 0.20393  0.31507  0.51047  Biso   1.000  H
  C305     1.0000 0.17734  0.25294  0.49507  Biso   1.000  C
  H236     1.0000 0.17733  0.24697  0.54877  Biso   1.000  H
  C306     1.0000 0.21813  0.34673  0.36857  Biso   1.000  C
  H237     1.0000 0.22853  0.36737  0.40777  Biso   1.000  H
  C307     1.0000 0.22536  0.35917  0.29457  Biso   1.000  C
  H238     1.0000 0.21063  0.33867  0.25637  Biso   1.000  H
  C308     1.0000 0.25344  0.40092  0.26527  Biso   1.000  C
  C309     1.0000 0.26145  0.40605  0.18557  Biso   1.000  C
  H239     1.0000 0.24633  0.38357  0.15117  Biso   1.000  H
  C310     1.0000 0.29118  0.44350  0.15657  Biso   1.000  C
  H240     1.0000 0.29643  0.44587  0.10227  Biso   1.000  H
  C311     1.0000 0.30446  0.47265  0.27727  Biso   1.000  C
  H241     1.0000 0.31913  0.49617  0.30957  Biso   1.000  H
  C312     1.0000 0.27532  0.43595  0.31137  Biso   1.000  C
  H242     1.0000 0.27023  0.43467  0.36567  Biso   1.000  H
  C313     1.0000 0.37627  0.31142  0.08937  Biso   1.000  C
  H243     1.0000 0.39153  0.32407  0.13517  Biso   1.000  H
  C314     1.0000 0.38507  0.33495  0.02247  Biso   1.000  C
  H244     1.0000 0.40593  0.36317  0.02297  Biso   1.000  H
  C315     1.0000 0.36317  0.31711  0.95447  Biso   1.000  C
  C316     1.0000 0.33237  0.27550  0.95827  Biso   1.000  C
  H245     1.0000 0.31623  0.26207  0.91367  Biso   1.000  H
  C317     1.0000 0.32567  0.25415  0.02757  Biso   1.000  C
  H246     1.0000 0.30493  0.22587  0.02937  Biso   1.000  H
  C318     1.0000 0.37251  0.34086  0.88287  Biso   1.000  C
  H247     1.0000 0.38323  0.36967  0.88717  Biso   1.000  H
  C319     1.0000 0.36702  0.32490  0.81127  Biso   1.000  C
  H248     1.0000 0.35553  0.29597  0.80677  Biso   1.000  H
  C320     1.0000 0.37754  0.34909  0.73957  Biso   1.000  C
  C321     1.0000 0.39013  0.33634  0.67307  Biso   1.000  C
  H249     1.0000 0.39063  0.31127  0.67377  Biso   1.000  H
  C322     1.0000 0.40161  0.36036  0.60707  Biso   1.000  C
  H250     1.0000 0.41053  0.35167  0.56297  Biso   1.000  H
  C323     1.0000 0.38675  0.40686  0.66527  Biso   1.000  C
  H251     1.0000 0.38473  0.43107  0.66167  Biso   1.000  H
  C324     1.0000 0.37544  0.38491  0.73377  Biso   1.000  C
  H252     1.0000 0.36623  0.39417  0.77667  Biso   1.000  H
  Ni19     1.0000 0.49292  0.69087  0.18946  Biso   1.000  Ni
  Ni20     1.0000 0.56851  0.56066  0.48034  Biso   1.000  Ni
  O73      1.0000 0.47658  0.65393  0.28734  Biso   1.000  O
  O74      1.0000 0.46231  0.68758  0.37730  Biso   1.000  O
  O75      1.0000 0.38409  0.60672  0.27773  Biso   1.000  O
  O76      1.0000 0.38995  0.55193  0.24514  Biso   1.000  O
  O77      1.0000 0.40018  0.47322  0.53457  Biso   1.000  O
  O78      1.0000 0.45343  0.49516  0.45761  Biso   1.000  O
  O79      1.0000 0.48673  0.55290  0.60004  Biso   1.000  O
  O80      1.0000 0.52910  0.58224  0.49902  Biso   1.000  O
  N37      1.0000 0.55452  0.72645  0.22310  Biso   1.000  N
  N38      1.0000 0.80997  0.83029  0.46560  Biso   1.000  N
  N39      1.0000 0.60517  0.59118  0.57450  Biso   1.000  N
  N40      1.0000 0.72882  0.66156  0.06380  Biso   1.000  N
  C325     1.0000 0.44539  0.61856  0.40600  Biso   1.000  C
  H253     1.0000 0.43590  0.62590  0.45470  Biso   1.000  H
  C326     1.0000 0.40837  0.57789  0.37410  Biso   1.000  C
  H254     1.0000 0.38450  0.57130  0.40910  Biso   1.000  H
  C327     1.0000 0.48053  0.60978  0.42920  Biso   1.000  C
  H255     1.0000 0.50610  0.63590  0.44350  Biso   1.000  H
  C328     1.0000 0.46429  0.58016  0.49930  Biso   1.000  C
  H256     1.0000 0.45580  0.59350  0.54000  Biso   1.000  H
  C329     1.0000 0.42451  0.53949  0.47350  Biso   1.000  C
  H257     1.0000 0.40040  0.53760  0.50210  Biso   1.000  H
  C330     1.0000 0.41793  0.54261  0.38450  Biso   1.000  C
  H258     1.0000 0.39460  0.51610  0.36470  Biso   1.000  H
  C331     1.0000 0.48891  0.58847  0.36360  Biso   1.000  C
  H259     1.0000 0.51530  0.59940  0.34010  Biso   1.000  H
  C332     1.0000 0.45689  0.55352  0.34120  Biso   1.000  C
  H260     1.0000 0.45830  0.53670  0.30140  Biso   1.000  H
  C333     1.0000 0.46200  0.65596  0.35160  Biso   1.000  C
  C334     1.0000 0.39400  0.57961  0.29180  Biso   1.000  C
  C335     1.0000 0.49606  0.57103  0.53600  Biso   1.000  C
  C336     1.0000 0.42640  0.50079  0.48940  Biso   1.000  C
  C337     1.0000 0.56382  0.73649  0.29830  Biso   1.000  C
  H261     1.0000 0.54190  0.72710  0.33480  Biso   1.000  H
  C338     1.0000 0.60366  0.75984  0.32490  Biso   1.000  C
  H262     1.0000 0.60870  0.76580  0.37880  Biso   1.000  H
  C339     1.0000 0.63674  0.77485  0.27310  Biso   1.000  C
  C340     1.0000 0.62714  0.76672  0.19420  Biso   1.000  C
  H263     1.0000 0.64840  0.77780  0.15620  Biso   1.000  H
  C341     1.0000 0.58627  0.74226  0.17160  Biso   1.000  C
  H264     1.0000 0.58030  0.73630  0.11790  Biso   1.000  H
  C342     1.0000 0.68006  0.79526  0.29810  Biso   1.000  C
  H265     1.0000 0.70070  0.80550  0.25890  Biso   1.000  H
  C343     1.0000 0.69250  0.80047  0.37210  Biso   1.000  C
  H266     1.0000 0.67200  0.79470  0.41030  Biso   1.000  H
  C344     1.0000 0.73425  0.81414  0.40140  Biso   1.000  C
  C345     1.0000 0.73938  0.81126  0.48110  Biso   1.000  C
  H267     1.0000 0.71690  0.80390  0.51550  Biso   1.000  H
  C346     1.0000 0.77683  0.81898  0.51010  Biso   1.000  C
  H268     1.0000 0.77920  0.81610  0.56440  Biso   1.000  H
  C347     1.0000 0.80598  0.83485  0.38940  Biso   1.000  C
  H269     1.0000 0.82950  0.84370  0.35710  Biso   1.000  H
  C348     1.0000 0.76928  0.82729  0.35530  Biso   1.000  C
  H270     1.0000 0.76800  0.83110  0.30100  Biso   1.000  H
  C349     1.0000 0.64475  0.60181  0.57730  Biso   1.000  C
  H271     1.0000 0.65740  0.59920  0.53150  Biso   1.000  H
  C350     1.0000 0.66828  0.61654  0.64420  Biso   1.000  C
  H272     1.0000 0.69650  0.62390  0.64370  Biso   1.000  H
  C351     1.0000 0.65044  0.62060  0.71220  Biso   1.000  C
  C352     1.0000 0.60883  0.60979  0.70840  Biso   1.000  C
  H273     1.0000 0.59540  0.61250  0.75300  Biso   1.000  H
  C353     1.0000 0.58748  0.59514  0.63910  Biso   1.000  C
  H274     1.0000 0.55920  0.58760  0.63730  Biso   1.000  H
  C354     1.0000 0.67419  0.63501  0.78380  Biso   1.000  C
  H275     1.0000 0.70300  0.65310  0.77950  Biso   1.000  H
  C355     1.0000 0.65823  0.62454  0.85540  Biso   1.000  C
  H276     1.0000 0.62930  0.60710  0.85990  Biso   1.000  H
  C356     1.0000 0.68242  0.63821  0.92710  Biso   1.000  C
  C357     1.0000 0.66967  0.61287  0.99360  Biso   1.000  C
  H277     1.0000 0.64460  0.58730  0.99290  Biso   1.000  H
  C358     1.0000 0.69369  0.62541  0.05960  Biso   1.000  C
  H278     1.0000 0.68500  0.60780  0.10370  Biso   1.000  H
  C359     1.0000 0.74019  0.68677  0.00140  Biso   1.000  C
  H279     1.0000 0.76440  0.71300  0.00500  Biso   1.000  H
  C360     1.0000 0.71824  0.67613  0.93290  Biso   1.000  C
  H280     1.0000 0.72750  0.69460  0.89000  Biso   1.000  H
  Ni21     1.0000 0.15959  0.02420  0.52279  Biso   1.000  Ni
  Ni22     1.0000 0.23518  0.89399  0.81367  Biso   1.000  Ni
  O81      1.0000 0.14325  0.98726  0.62067  Biso   1.000  O
  O82      1.0000 0.12898  0.02091  0.71063  Biso   1.000  O
  O83      1.0000 0.05076  0.94005  0.61106  Biso   1.000  O
  O84      1.0000 0.05662  0.88526  0.57847  Biso   1.000  O
  O85      1.0000 0.06685  0.80655  0.86790  Biso   1.000  O
  O86      1.0000 0.12010  0.82849  0.79094  Biso   1.000  O
  O87      1.0000 0.15340  0.88623  0.93337  Biso   1.000  O
  O88      1.0000 0.19577  0.91557  0.83235  Biso   1.000  O
  N41      1.0000 0.22119  0.05978  0.55643  Biso   1.000  N
  N42      1.0000 0.47664  0.16362  0.79893  Biso   1.000  N
  N43      1.0000 0.27184  0.92451  0.90783  Biso   1.000  N
  N44      1.0000 0.39549  0.99489  0.39713  Biso   1.000  N
  C361     1.0000 0.11206  0.95189  0.73933  Biso   1.000  C
  H281     1.0000 0.10257  0.95923  0.78803  Biso   1.000  H
  C362     1.0000 0.07504  0.91122  0.70743  Biso   1.000  C
  H282     1.0000 0.05117  0.90463  0.74243  Biso   1.000  H
  C363     1.0000 0.14720  0.94311  0.76253  Biso   1.000  C
  H283     1.0000 0.17277  0.96923  0.77683  Biso   1.000  H
  C364     1.0000 0.13096  0.91349  0.83263  Biso   1.000  C
  H284     1.0000 0.12247  0.92683  0.87333  Biso   1.000  H
  C365     1.0000 0.09118  0.87282  0.80683  Biso   1.000  C
  H285     1.0000 0.06707  0.87093  0.83543  Biso   1.000  H
  C366     1.0000 0.08460  0.87594  0.71783  Biso   1.000  C
  H286     1.0000 0.06127  0.84943  0.69803  Biso   1.000  H
  C367     1.0000 0.15558  0.92180  0.69693  Biso   1.000  C
  H287     1.0000 0.18197  0.93273  0.67343  Biso   1.000  H
  C368     1.0000 0.12356  0.88685  0.67453  Biso   1.000  C
  H288     1.0000 0.12497  0.87003  0.63473  Biso   1.000  H
  C369     1.0000 0.12867  0.98929  0.68493  Biso   1.000  C
  C370     1.0000 0.06067  0.91294  0.62513  Biso   1.000  C
  C371     1.0000 0.16273  0.90436  0.86933  Biso   1.000  C
  C372     1.0000 0.09307  0.83412  0.82273  Biso   1.000  C
  C373     1.0000 0.23049  0.06982  0.63163  Biso   1.000  C
  H289     1.0000 0.20857  0.06043  0.66813  Biso   1.000  H
  C374     1.0000 0.27033  0.09317  0.65823  Biso   1.000  C
  H290     1.0000 0.27537  0.09913  0.71213  Biso   1.000  H
  C375     1.0000 0.30341  0.10818  0.60643  Biso   1.000  C
  C376     1.0000 0.29381  0.10005  0.52753  Biso   1.000  C
  H291     1.0000 0.31507  0.11113  0.48953  Biso   1.000  H
  C377     1.0000 0.25294  0.07559  0.50493  Biso   1.000  C
  H292     1.0000 0.24697  0.06963  0.45123  Biso   1.000  H
  C378     1.0000 0.34673  0.12859  0.63143  Biso   1.000  C
  H293     1.0000 0.36737  0.13883  0.59223  Biso   1.000  H
  C379     1.0000 0.35917  0.13380  0.70543  Biso   1.000  C
  H294     1.0000 0.33867  0.12803  0.74363  Biso   1.000  H
  C380     1.0000 0.40092  0.14747  0.73473  Biso   1.000  C
  C381     1.0000 0.40605  0.14459  0.81443  Biso   1.000  C
  H295     1.0000 0.38357  0.13723  0.84883  Biso   1.000  H
  C382     1.0000 0.44350  0.15231  0.84343  Biso   1.000  C
  H296     1.0000 0.44587  0.14943  0.89773  Biso   1.000  H
  C383     1.0000 0.47265  0.16818  0.72273  Biso   1.000  C
  H297     1.0000 0.49617  0.17703  0.69043  Biso   1.000  H
  C384     1.0000 0.43595  0.16062  0.68863  Biso   1.000  C
  H298     1.0000 0.43467  0.16443  0.63433  Biso   1.000  H
  C385     1.0000 0.31142  0.93514  0.91063  Biso   1.000  C
  H299     1.0000 0.32407  0.93253  0.86483  Biso   1.000  H
  C386     1.0000 0.33495  0.94987  0.97753  Biso   1.000  C
  H300     1.0000 0.36317  0.95723  0.97703  Biso   1.000  H
  C387     1.0000 0.31711  0.95393  0.04553  Biso   1.000  C
  C388     1.0000 0.27550  0.94312  0.04173  Biso   1.000  C
  H301     1.0000 0.26207  0.94583  0.08633  Biso   1.000  H
  C389     1.0000 0.25415  0.92847  0.97243  Biso   1.000  C
  H302     1.0000 0.22587  0.92093  0.97063  Biso   1.000  H
  C390     1.0000 0.34086  0.96834  0.11713  Biso   1.000  C
  H303     1.0000 0.36967  0.98643  0.11283  Biso   1.000  H
  C391     1.0000 0.32490  0.95787  0.18873  Biso   1.000  C
  H304     1.0000 0.29597  0.94043  0.19323  Biso   1.000  H
  C392     1.0000 0.34909  0.97154  0.26043  Biso   1.000  C
  C393     1.0000 0.33634  0.94620  0.32693  Biso   1.000  C
  H305     1.0000 0.31127  0.92063  0.32623  Biso   1.000  H
  C394     1.0000 0.36036  0.95874  0.39293  Biso   1.000  C
  H306     1.0000 0.35167  0.94113  0.43703  Biso   1.000  H
  C395     1.0000 0.40686  0.02010  0.33473  Biso   1.000  C
  H307     1.0000 0.43107  0.04633  0.33833  Biso   1.000  H
  C396     1.0000 0.38491  0.00946  0.26623  Biso   1.000  C
  H308     1.0000 0.39417  0.02793  0.22333  Biso   1.000  H
  Ni23     1.0000 0.82625  0.35754  0.85613  Biso   1.000  Ni
  Ni24     1.0000 0.90184  0.22733  0.14701  Biso   1.000  Ni
  O89      1.0000 0.80991  0.32060  0.95401  Biso   1.000  O
  O90      1.0000 0.79564  0.35425  0.04397  Biso   1.000  O
  O91      1.0000 0.71742  0.27339  0.94440  Biso   1.000  O
  O92      1.0000 0.72328  0.21860  0.91181  Biso   1.000  O
  O93      1.0000 0.73351  0.13989  0.20124  Biso   1.000  O
  O94      1.0000 0.78676  0.16183  0.12428  Biso   1.000  O
  O95      1.0000 0.82006  0.21957  0.26671  Biso   1.000  O
  O96      1.0000 0.86243  0.24891  0.16569  Biso   1.000  O
  N45      1.0000 0.88785  0.39312  0.88977  Biso   1.000  N
  N46      1.0000 0.14330  0.49696  0.13227  Biso   1.000  N
  N47      1.0000 0.93850  0.25785  0.24117  Biso   1.000  N
  N48      1.0000 0.06215  0.32823  0.73047  Biso   1.000  N
  C397     1.0000 0.77872  0.28523  0.07267  Biso   1.000  C
  H309     1.0000 0.76923  0.29257  0.12137  Biso   1.000  H
  C398     1.0000 0.74170  0.24456  0.04077  Biso   1.000  C
  H310     1.0000 0.71783  0.23797  0.07577  Biso   1.000  H
  C399     1.0000 0.81386  0.27645  0.09587  Biso   1.000  C
  H311     1.0000 0.83943  0.30257  0.11017  Biso   1.000  H
  C400     1.0000 0.79762  0.24683  0.16597  Biso   1.000  C
  H312     1.0000 0.78913  0.26017  0.20667  Biso   1.000  H
  C401     1.0000 0.75784  0.20616  0.14017  Biso   1.000  C
  H313     1.0000 0.73373  0.20427  0.16877  Biso   1.000  H
  C402     1.0000 0.75126  0.20928  0.05117  Biso   1.000  C
  H314     1.0000 0.72793  0.18277  0.03137  Biso   1.000  H
  C403     1.0000 0.82224  0.25514  0.03027  Biso   1.000  C
  H315     1.0000 0.84863  0.26607  0.00677  Biso   1.000  H
  C404     1.0000 0.79022  0.22019  0.00787  Biso   1.000  C
  H316     1.0000 0.79163  0.20337  0.96807  Biso   1.000  H
  C405     1.0000 0.79533  0.32263  0.01827  Biso   1.000  C
  C406     1.0000 0.72733  0.24628  0.95847  Biso   1.000  C
  C407     1.0000 0.82939  0.23770  0.20267  Biso   1.000  C
  C408     1.0000 0.75973  0.16746  0.15607  Biso   1.000  C
  C409     1.0000 0.89715  0.40316  0.96497  Biso   1.000  C
  H317     1.0000 0.87523  0.39377  0.00147  Biso   1.000  H
  C410     1.0000 0.93699  0.42651  0.99157  Biso   1.000  C
  H318     1.0000 0.94203  0.43247  0.04547  Biso   1.000  H
  C411     1.0000 0.97007  0.44152  0.93977  Biso   1.000  C
  C412     1.0000 0.96047  0.43339  0.86087  Biso   1.000  C
  H319     1.0000 0.98173  0.44447  0.82287  Biso   1.000  H
  C413     1.0000 0.91960  0.40893  0.83827  Biso   1.000  C
  H320     1.0000 0.91363  0.40297  0.78457  Biso   1.000  H
  C414     1.0000 0.01339  0.46193  0.96477  Biso   1.000  C
  H321     1.0000 0.03403  0.47217  0.92557  Biso   1.000  H
  C415     1.0000 0.02583  0.46714  0.03877  Biso   1.000  C
  H322     1.0000 0.00533  0.46137  0.07697  Biso   1.000  H
  C416     1.0000 0.06758  0.48081  0.06807  Biso   1.000  C
  C417     1.0000 0.07271  0.47793  0.14777  Biso   1.000  C
  H323     1.0000 0.05023  0.47057  0.18217  Biso   1.000  H
  C418     1.0000 0.11016  0.48565  0.17677  Biso   1.000  C
  H324     1.0000 0.11253  0.48277  0.23107  Biso   1.000  H
  C419     1.0000 0.13931  0.50152  0.05607  Biso   1.000  C
  H325     1.0000 0.16283  0.51037  0.02377  Biso   1.000  H
  C420     1.0000 0.10261  0.49396  0.02197  Biso   1.000  C
  H326     1.0000 0.10133  0.49777  0.96767  Biso   1.000  H
  C421     1.0000 0.97808  0.26848  0.24397  Biso   1.000  C
  H327     1.0000 0.99073  0.26587  0.19817  Biso   1.000  H
  C422     1.0000 0.00161  0.28321  0.31087  Biso   1.000  C
  H328     1.0000 0.02983  0.29057  0.31037  Biso   1.000  H
  C423     1.0000 0.98377  0.28727  0.37887  Biso   1.000  C
  C424     1.0000 0.94216  0.27646  0.37507  Biso   1.000  C
  H329     1.0000 0.92873  0.27917  0.41967  Biso   1.000  H
  C425     1.0000 0.92081  0.26181  0.30577  Biso   1.000  C
  H330     1.0000 0.89253  0.25427  0.30397  Biso   1.000  H
  C426     1.0000 0.00752  0.30168  0.45047  Biso   1.000  C
  H331     1.0000 0.03633  0.31977  0.44617  Biso   1.000  H
  C427     1.0000 0.99156  0.29121  0.52207  Biso   1.000  C
  H332     1.0000 0.96263  0.27377  0.52657  Biso   1.000  H
  C428     1.0000 0.01575  0.30488  0.59377  Biso   1.000  C
  C429     1.0000 0.00300  0.27954  0.66027  Biso   1.000  C
  H333     1.0000 0.97793  0.25397  0.65957  Biso   1.000  H
  C430     1.0000 0.02702  0.29208  0.72627  Biso   1.000  C
  H334     1.0000 0.01833  0.27447  0.77037  Biso   1.000  H
  C431     1.0000 0.07352  0.35344  0.66807  Biso   1.000  C
  H335     1.0000 0.09773  0.37967  0.67167  Biso   1.000  H
  C432     1.0000 0.05157  0.34280  0.59957  Biso   1.000  C
  H336     1.0000 0.06083  0.36127  0.55667  Biso   1.000  H
  Ni25     1.0000 0.30913  0.80205  0.18946  Biso   1.000  Ni
  Ni26     1.0000 0.43934  0.00785  0.48034  Biso   1.000  Ni
  O97      1.0000 0.34607  0.82265  0.28734  Biso   1.000  O
  O98      1.0000 0.31242  0.77473  0.37730  Biso   1.000  O
  O99      1.0000 0.39328  0.77737  0.27773  Biso   1.000  O
  O100     1.0000 0.44807  0.83802  0.24514  Biso   1.000  O
  O101     1.0000 0.52678  0.92696  0.53457  Biso   1.000  O
  O102     1.0000 0.50484  0.95827  0.45761  Biso   1.000  O
  O103     1.0000 0.44710  0.93383  0.60004  Biso   1.000  O
  O104     1.0000 0.41776  0.94686  0.49902  Biso   1.000  O
  N49      1.0000 0.27355  0.82807  0.22310  Biso   1.000  N
  N50      1.0000 0.16971  0.97968  0.46560  Biso   1.000  N
  N51      1.0000 0.40882  0.01399  0.57450  Biso   1.000  N
  N52      1.0000 0.33844  0.06726  0.06380  Biso   1.000  N
  C433     1.0000 0.38144  0.82683  0.40600  Biso   1.000  C
  H337     1.0000 0.37410  0.81000  0.45470  Biso   1.000  H
  C434     1.0000 0.42211  0.83048  0.37410  Biso   1.000  C
  H338     1.0000 0.42870  0.81320  0.40910  Biso   1.000  H
  C435     1.0000 0.39022  0.87075  0.42920  Biso   1.000  C
  H339     1.0000 0.36410  0.87020  0.44350  Biso   1.000  H
  C436     1.0000 0.41984  0.88413  0.49930  Biso   1.000  C
  H340     1.0000 0.40650  0.86230  0.54000  Biso   1.000  H
  C437     1.0000 0.46051  0.88502  0.47350  Biso   1.000  C
  H341     1.0000 0.46240  0.86280  0.50210  Biso   1.000  H
  C438     1.0000 0.45739  0.87532  0.38450  Biso   1.000  C
  H342     1.0000 0.48390  0.87850  0.36470  Biso   1.000  H
  C439     1.0000 0.41153  0.90044  0.36360  Biso   1.000  C
  H343     1.0000 0.40060  0.91590  0.34010  Biso   1.000  H
  C440     1.0000 0.44648  0.90337  0.34120  Biso   1.000  C
  H344     1.0000 0.46330  0.92160  0.30140  Biso   1.000  H
  C441     1.0000 0.34404  0.80604  0.35160  Biso   1.000  C
  C442     1.0000 0.42039  0.81439  0.29180  Biso   1.000  C
  C443     1.0000 0.42897  0.92503  0.53600  Biso   1.000  C
  C444     1.0000 0.49921  0.92561  0.48940  Biso   1.000  C
  C445     1.0000 0.26351  0.82733  0.29830  Biso   1.000  C
  H345     1.0000 0.27290  0.81480  0.33480  Biso   1.000  H
  C446     1.0000 0.24016  0.84382  0.32490  Biso   1.000  C
  H346     1.0000 0.23420  0.84290  0.37880  Biso   1.000  H
  C447     1.0000 0.22515  0.86189  0.27310  Biso   1.000  C
  C448     1.0000 0.23328  0.86042  0.19420  Biso   1.000  C
  H347     1.0000 0.22220  0.87060  0.15620  Biso   1.000  H
  C449     1.0000 0.25774  0.84401  0.17160  Biso   1.000  C
  H348     1.0000 0.26370  0.84400  0.11790  Biso   1.000  H
  C450     1.0000 0.20474  0.88480  0.29810  Biso   1.000  C
  H349     1.0000 0.19450  0.89520  0.25890  Biso   1.000  H
  C451     1.0000 0.19953  0.89203  0.37210  Biso   1.000  C
  H350     1.0000 0.20530  0.87730  0.41030  Biso   1.000  H
  C452     1.0000 0.18586  0.92011  0.40140  Biso   1.000  C
  C453     1.0000 0.18874  0.92812  0.48110  Biso   1.000  C
  H351     1.0000 0.19610  0.91300  0.51550  Biso   1.000  H
  C454     1.0000 0.18102  0.95785  0.51010  Biso   1.000  C
  H352     1.0000 0.18390  0.96310  0.56440  Biso   1.000  H
  C455     1.0000 0.16515  0.97113  0.38940  Biso   1.000  C
  H353     1.0000 0.15630  0.98580  0.35710  Biso   1.000  H
  C456     1.0000 0.17271  0.94199  0.35530  Biso   1.000  C
  H354     1.0000 0.16890  0.93690  0.30100  Biso   1.000  H
  C457     1.0000 0.39819  0.04294  0.57730  Biso   1.000  C
  H355     1.0000 0.40080  0.05820  0.53150  Biso   1.000  H
  C458     1.0000 0.38346  0.05174  0.64420  Biso   1.000  C
  H356     1.0000 0.37610  0.07260  0.64370  Biso   1.000  H
  C459     1.0000 0.37940  0.02984  0.71220  Biso   1.000  C
  C460     1.0000 0.39021  0.99904  0.70840  Biso   1.000  C
  H357     1.0000 0.38750  0.98290  0.75300  Biso   1.000  H
  C461     1.0000 0.40486  0.99234  0.63910  Biso   1.000  C
  H358     1.0000 0.41240  0.97160  0.63730  Biso   1.000  H
  C462     1.0000 0.36499  0.03918  0.78380  Biso   1.000  C
  H359     1.0000 0.34690  0.04990  0.77950  Biso   1.000  H
  C463     1.0000 0.37546  0.03369  0.85540  Biso   1.000  C
  H360     1.0000 0.39290  0.02220  0.85990  Biso   1.000  H
  C464     1.0000 0.36179  0.04421  0.92710  Biso   1.000  C
  C465     1.0000 0.38713  0.05680  0.99360  Biso   1.000  C
  H361     1.0000 0.41270  0.05730  0.99290  Biso   1.000  H
  C466     1.0000 0.37459  0.06828  0.05960  Biso   1.000  C
  H362     1.0000 0.39220  0.07720  0.10370  Biso   1.000  H
  C467     1.0000 0.31323  0.05342  0.00140  Biso   1.000  C
  H363     1.0000 0.28700  0.05140  0.00500  Biso   1.000  H
  C468     1.0000 0.32387  0.04211  0.93290  Biso   1.000  C
  H364     1.0000 0.30540  0.03290  0.89000  Biso   1.000  H
  Ni27     1.0000 0.97580  0.13538  0.52279  Biso   1.000  Ni
  Ni28     1.0000 0.10601  0.34118  0.81367  Biso   1.000  Ni
  O105     1.0000 0.01274  0.15598  0.62067  Biso   1.000  O
  O106     1.0000 0.97909  0.10806  0.71063  Biso   1.000  O
  O107     1.0000 0.05995  0.11070  0.61106  Biso   1.000  O
  O108     1.0000 0.11474  0.17135  0.57847  Biso   1.000  O
  O109     1.0000 0.19345  0.26029  0.86790  Biso   1.000  O
  O110     1.0000 0.17151  0.29160  0.79094  Biso   1.000  O
  O111     1.0000 0.11377  0.26716  0.93337  Biso   1.000  O
  O112     1.0000 0.08443  0.28019  0.83235  Biso   1.000  O
  N53      1.0000 0.94022  0.16140  0.55643  Biso   1.000  N
  N54      1.0000 0.83638  0.31301  0.79893  Biso   1.000  N
  N55      1.0000 0.07549  0.34732  0.90783  Biso   1.000  N
  N56      1.0000 0.00511  0.40059  0.39713  Biso   1.000  N
  C469     1.0000 0.04811  0.16016  0.73933  Biso   1.000  C
  H365     1.0000 0.04077  0.14333  0.78803  Biso   1.000  H
  C470     1.0000 0.08878  0.16381  0.70743  Biso   1.000  C
  H366     1.0000 0.09537  0.14653  0.74243  Biso   1.000  H
  C471     1.0000 0.05689  0.20408  0.76253  Biso   1.000  C
  H367     1.0000 0.03077  0.20353  0.77683  Biso   1.000  H
  C472     1.0000 0.08651  0.21746  0.83263  Biso   1.000  C
  H368     1.0000 0.07317  0.19563  0.87333  Biso   1.000  H
  C473     1.0000 0.12718  0.21835  0.80683  Biso   1.000  C
  H369     1.0000 0.12907  0.19613  0.83543  Biso   1.000  H
  C474     1.0000 0.12406  0.20865  0.71783  Biso   1.000  C
  H370     1.0000 0.15057  0.21183  0.69803  Biso   1.000  H
  C475     1.0000 0.07820  0.23377  0.69693  Biso   1.000  C
  H371     1.0000 0.06727  0.24923  0.67343  Biso   1.000  H
  C476     1.0000 0.11315  0.23670  0.67453  Biso   1.000  C
  H372     1.0000 0.12997  0.25493  0.63473  Biso   1.000  H
  C477     1.0000 0.01071  0.13937  0.68493  Biso   1.000  C
  C478     1.0000 0.08706  0.14772  0.62513  Biso   1.000  C
  C479     1.0000 0.09564  0.25836  0.86933  Biso   1.000  C
  C480     1.0000 0.16588  0.25894  0.82273  Biso   1.000  C
  C481     1.0000 0.93018  0.16066  0.63163  Biso   1.000  C
  H373     1.0000 0.93957  0.14813  0.66813  Biso   1.000  H
  C482     1.0000 0.90683  0.17715  0.65823  Biso   1.000  C
  H374     1.0000 0.90087  0.17623  0.71213  Biso   1.000  H
  C483     1.0000 0.89182  0.19522  0.60643  Biso   1.000  C
  C484     1.0000 0.89995  0.19375  0.52753  Biso   1.000  C
  H375     1.0000 0.88887  0.20393  0.48953  Biso   1.000  H
  C485     1.0000 0.92441  0.17734  0.50493  Biso   1.000  C
  H376     1.0000 0.93037  0.17733  0.45123  Biso   1.000  H
  C486     1.0000 0.87141  0.21813  0.63143  Biso   1.000  C
  H377     1.0000 0.86117  0.22853  0.59223  Biso   1.000  H
  C487     1.0000 0.86620  0.22536  0.70543  Biso   1.000  C
  H378     1.0000 0.87197  0.21063  0.74363  Biso   1.000  H
  C488     1.0000 0.85253  0.25344  0.73473  Biso   1.000  C
  C489     1.0000 0.85541  0.26145  0.81443  Biso   1.000  C
  H379     1.0000 0.86277  0.24633  0.84883  Biso   1.000  H
  C490     1.0000 0.84769  0.29118  0.84343  Biso   1.000  C
  H380     1.0000 0.85057  0.29643  0.89773  Biso   1.000  H
  C491     1.0000 0.83182  0.30446  0.72273  Biso   1.000  C
  H381     1.0000 0.82297  0.31913  0.69043  Biso   1.000  H
  C492     1.0000 0.83938  0.27532  0.68863  Biso   1.000  C
  H382     1.0000 0.83557  0.27023  0.63433  Biso   1.000  H
  C493     1.0000 0.06486  0.37627  0.91063  Biso   1.000  C
  H383     1.0000 0.06747  0.39153  0.86483  Biso   1.000  H
  C494     1.0000 0.05013  0.38507  0.97753  Biso   1.000  C
  H384     1.0000 0.04277  0.40593  0.97703  Biso   1.000  H
  C495     1.0000 0.04607  0.36317  0.04553  Biso   1.000  C
  C496     1.0000 0.05688  0.33237  0.04173  Biso   1.000  C
  H385     1.0000 0.05417  0.31623  0.08633  Biso   1.000  H
  C497     1.0000 0.07153  0.32567  0.97243  Biso   1.000  C
  H386     1.0000 0.07907  0.30493  0.97063  Biso   1.000  H
  C498     1.0000 0.03166  0.37251  0.11713  Biso   1.000  C
  H387     1.0000 0.01357  0.38323  0.11283  Biso   1.000  H
  C499     1.0000 0.04213  0.36702  0.18873  Biso   1.000  C
  H388     1.0000 0.05957  0.35553  0.19323  Biso   1.000  H
  C500     1.0000 0.02846  0.37754  0.26043  Biso   1.000  C
  C501     1.0000 0.05380  0.39013  0.32693  Biso   1.000  C
  H389     1.0000 0.07937  0.39063  0.32623  Biso   1.000  H
  C502     1.0000 0.04126  0.40161  0.39293  Biso   1.000  C
  H390     1.0000 0.05887  0.41053  0.43703  Biso   1.000  H
  C503     1.0000 0.97990  0.38675  0.33473  Biso   1.000  C
  H391     1.0000 0.95367  0.38473  0.33833  Biso   1.000  H
  C504     1.0000 0.99054  0.37544  0.26623  Biso   1.000  C
  H392     1.0000 0.97207  0.36623  0.22333  Biso   1.000  H
  Ni29     1.0000 0.64246  0.46872  0.85613  Biso   1.000  Ni
  Ni30     1.0000 0.77267  0.67452  0.14701  Biso   1.000  Ni
  O113     1.0000 0.67940  0.48932  0.95401  Biso   1.000  O
  O114     1.0000 0.64575  0.44140  0.04397  Biso   1.000  O
  O115     1.0000 0.72661  0.44404  0.94440  Biso   1.000  O
  O116     1.0000 0.78140  0.50469  0.91181  Biso   1.000  O
  O117     1.0000 0.86011  0.59363  0.20124  Biso   1.000  O
  O118     1.0000 0.83817  0.62494  0.12428  Biso   1.000  O
  O119     1.0000 0.78043  0.60050  0.26671  Biso   1.000  O
  O120     1.0000 0.75109  0.61353  0.16569  Biso   1.000  O
  N57      1.0000 0.60688  0.49474  0.88977  Biso   1.000  N
  N58      1.0000 0.50304  0.64635  0.13227  Biso   1.000  N
  N59      1.0000 0.74215  0.68066  0.24117  Biso   1.000  N
  N60      1.0000 0.67177  0.73393  0.73047  Biso   1.000  N
  C505     1.0000 0.71477  0.49350  0.07267  Biso   1.000  C
  H393     1.0000 0.70743  0.47667  0.12137  Biso   1.000  H
  C506     1.0000 0.75544  0.49715  0.04077  Biso   1.000  C
  H394     1.0000 0.76203  0.47987  0.07577  Biso   1.000  H
  C507     1.0000 0.72355  0.53742  0.09587  Biso   1.000  C
  H395     1.0000 0.69743  0.53687  0.11017  Biso   1.000  H
  C508     1.0000 0.75317  0.55080  0.16597  Biso   1.000  C
  H396     1.0000 0.73983  0.52897  0.20667  Biso   1.000  H
  C509     1.0000 0.79384  0.55169  0.14017  Biso   1.000  C
  H397     1.0000 0.79573  0.52947  0.16877  Biso   1.000  H
  C510     1.0000 0.79072  0.54199  0.05117  Biso   1.000  C
  H398     1.0000 0.81723  0.54517  0.03137  Biso   1.000  H
  C511     1.0000 0.74486  0.56711  0.03027  Biso   1.000  C
  H399     1.0000 0.73393  0.58257  0.00677  Biso   1.000  H
  C512     1.0000 0.77981  0.57004  0.00787  Biso   1.000  C
  H400     1.0000 0.79663  0.58827  0.96807  Biso   1.000  H
  C513     1.0000 0.67737  0.47271  0.01827  Biso   1.000  C
  C514     1.0000 0.75372  0.48106  0.95847  Biso   1.000  C
  C515     1.0000 0.76230  0.59170  0.20267  Biso   1.000  C
  C516     1.0000 0.83254  0.59228  0.15607  Biso   1.000  C
  C517     1.0000 0.59684  0.49400  0.96497  Biso   1.000  C
  H401     1.0000 0.60623  0.48147  0.00147  Biso   1.000  H
  C518     1.0000 0.57349  0.51049  0.99157  Biso   1.000  C
  H402     1.0000 0.56753  0.50957  0.04547  Biso   1.000  H
  C519     1.0000 0.55848  0.52856  0.93977  Biso   1.000  C
  C520     1.0000 0.56661  0.52709  0.86087  Biso   1.000  C
  H403     1.0000 0.55553  0.53727  0.82287  Biso   1.000  H
  C521     1.0000 0.59107  0.51068  0.83827  Biso   1.000  C
  H404     1.0000 0.59703  0.51067  0.78457  Biso   1.000  H
  C522     1.0000 0.53807  0.55147  0.96477  Biso   1.000  C
  H405     1.0000 0.52783  0.56187  0.92557  Biso   1.000  H
  C523     1.0000 0.53286  0.55870  0.03877  Biso   1.000  C
  H406     1.0000 0.53863  0.54397  0.07697  Biso   1.000  H
  C524     1.0000 0.51919  0.58678  0.06807  Biso   1.000  C
  C525     1.0000 0.52207  0.59479  0.14777  Biso   1.000  C
  H407     1.0000 0.52943  0.57967  0.18217  Biso   1.000  H
  C526     1.0000 0.51435  0.62452  0.17677  Biso   1.000  C
  H408     1.0000 0.51723  0.62977  0.23107  Biso   1.000  H
  C527     1.0000 0.49848  0.63780  0.05607  Biso   1.000  C
  H409     1.0000 0.48963  0.65247  0.02377  Biso   1.000  H
  C528     1.0000 0.50604  0.60866  0.02197  Biso   1.000  C
  H410     1.0000 0.50223  0.60357  0.96767  Biso   1.000  H
  C529     1.0000 0.73152  0.70961  0.24397  Biso   1.000  C
  H411     1.0000 0.73413  0.72487  0.19817  Biso   1.000  H
  C530     1.0000 0.71679  0.71841  0.31087  Biso   1.000  C
  H412     1.0000 0.70943  0.73927  0.31037  Biso   1.000  H
  C531     1.0000 0.71273  0.69651  0.37887  Biso   1.000  C
  C532     1.0000 0.72354  0.66571  0.37507  Biso   1.000  C
  H413     1.0000 0.72083  0.64957  0.41967  Biso   1.000  H
  C533     1.0000 0.73819  0.65901  0.30577  Biso   1.000  C
  H414     1.0000 0.74573  0.63827  0.30397  Biso   1.000  H
  C534     1.0000 0.69832  0.70585  0.45047  Biso   1.000  C
  H415     1.0000 0.68023  0.71657  0.44617  Biso   1.000  H
  C535     1.0000 0.70879  0.70036  0.52207  Biso   1.000  C
  H416     1.0000 0.72623  0.68887  0.52657  Biso   1.000  H
  C536     1.0000 0.69512  0.71088  0.59377  Biso   1.000  C
  C537     1.0000 0.72046  0.72347  0.66027  Biso   1.000  C
  H417     1.0000 0.74603  0.72397  0.65957  Biso   1.000  H
  C538     1.0000 0.70792  0.73495  0.72627  Biso   1.000  C
  H418     1.0000 0.72553  0.74387  0.77037  Biso   1.000  H
  C539     1.0000 0.64656  0.72009  0.66807  Biso   1.000  C
  H419     1.0000 0.62033  0.71807  0.67167  Biso   1.000  H
  C540     1.0000 0.65720  0.70878  0.59957  Biso   1.000  C
  H420     1.0000 0.63873  0.69957  0.55667  Biso   1.000  H
  Ni31     1.0000 0.19795  0.50708  0.18946  Biso   1.000  Ni
  Ni32     1.0000 0.99215  0.43149  0.48034  Biso   1.000  Ni
  O121     1.0000 0.17735  0.52342  0.28734  Biso   1.000  O
  O122     1.0000 0.22527  0.53769  0.37730  Biso   1.000  O
  O123     1.0000 0.22263  0.61591  0.27773  Biso   1.000  O
  O124     1.0000 0.16198  0.61005  0.24514  Biso   1.000  O
  O125     1.0000 0.07304  0.59982  0.53457  Biso   1.000  O
  O126     1.0000 0.04173  0.54657  0.45761  Biso   1.000  O
  O127     1.0000 0.06617  0.51327  0.60004  Biso   1.000  O
  O128     1.0000 0.05314  0.47090  0.49902  Biso   1.000  O
  N61      1.0000 0.17193  0.44548  0.22310  Biso   1.000  N
  N62      1.0000 0.02032  0.19003  0.46560  Biso   1.000  N
  N63      1.0000 0.98601  0.39483  0.57450  Biso   1.000  N
  N64      1.0000 0.93274  0.27118  0.06380  Biso   1.000  N
  C541     1.0000 0.17317  0.55461  0.40600  Biso   1.000  C
  H421     1.0000 0.19000  0.56410  0.45470  Biso   1.000  H
  C542     1.0000 0.16952  0.59163  0.37410  Biso   1.000  C
  H422     1.0000 0.18680  0.61550  0.40910  Biso   1.000  H
  C543     1.0000 0.12925  0.51947  0.42920  Biso   1.000  C
  H423     1.0000 0.12980  0.49390  0.44350  Biso   1.000  H
  C544     1.0000 0.11587  0.53571  0.49930  Biso   1.000  C
  H424     1.0000 0.13770  0.54420  0.54000  Biso   1.000  H
  C545     1.0000 0.11498  0.57549  0.47350  Biso   1.000  C
  H425     1.0000 0.13720  0.59960  0.50210  Biso   1.000  H
  C546     1.0000 0.12468  0.58207  0.38450  Biso   1.000  C
  H426     1.0000 0.12150  0.60540  0.36470  Biso   1.000  H
  C547     1.0000 0.09956  0.51109  0.36360  Biso   1.000  C
  H427     1.0000 0.08410  0.48470  0.34010  Biso   1.000  H
  C548     1.0000 0.09663  0.54311  0.34120  Biso   1.000  C
  H428     1.0000 0.07840  0.54170  0.30140  Biso   1.000  H
  C549     1.0000 0.19396  0.53800  0.35160  Biso   1.000  C
  C550     1.0000 0.18561  0.60600  0.29180  Biso   1.000  C
  C551     1.0000 0.07497  0.50394  0.53600  Biso   1.000  C
  C552     1.0000 0.07439  0.57360  0.48940  Biso   1.000  C
  C553     1.0000 0.17267  0.43618  0.29830  Biso   1.000  C
  H429     1.0000 0.18520  0.45810  0.33480  Biso   1.000  H
  C554     1.0000 0.15618  0.39634  0.32490  Biso   1.000  C
  H430     1.0000 0.15710  0.39130  0.37880  Biso   1.000  H
  C555     1.0000 0.13811  0.36326  0.27310  Biso   1.000  C
  C556     1.0000 0.13958  0.37286  0.19420  Biso   1.000  C
  H431     1.0000 0.12940  0.35160  0.15620  Biso   1.000  H
  C557     1.0000 0.15599  0.41373  0.17160  Biso   1.000  C
  H432     1.0000 0.15600  0.41970  0.11790  Biso   1.000  H
  C558     1.0000 0.11520  0.31994  0.29810  Biso   1.000  C
  H433     1.0000 0.10480  0.29930  0.25890  Biso   1.000  H
  C559     1.0000 0.10797  0.30750  0.37210  Biso   1.000  C
  H434     1.0000 0.12270  0.32800  0.41030  Biso   1.000  H
  C560     1.0000 0.07989  0.26575  0.40140  Biso   1.000  C
  C561     1.0000 0.07188  0.26062  0.48110  Biso   1.000  C
  H435     1.0000 0.08700  0.28310  0.51550  Biso   1.000  H
  C562     1.0000 0.04215  0.22317  0.51010  Biso   1.000  C
  H436     1.0000 0.03690  0.22080  0.56440  Biso   1.000  H
  C563     1.0000 0.02887  0.19402  0.38940  Biso   1.000  C
  H437     1.0000 0.01420  0.17050  0.35710  Biso   1.000  H
  C564     1.0000 0.05801  0.23072  0.35530  Biso   1.000  C
  H438     1.0000 0.06310  0.23200  0.30100  Biso   1.000  H
  C565     1.0000 0.95706  0.35525  0.57730  Biso   1.000  C
  H439     1.0000 0.94180  0.34260  0.53150  Biso   1.000  H
  C566     1.0000 0.94826  0.33172  0.64420  Biso   1.000  C
  H440     1.0000 0.92740  0.30350  0.64370  Biso   1.000  H
  C567     1.0000 0.97016  0.34956  0.71220  Biso   1.000  C
  C568     1.0000 0.00096  0.39117  0.70840  Biso   1.000  C
  H441     1.0000 0.01710  0.40460  0.75300  Biso   1.000  H
  C569     1.0000 0.00766  0.41252  0.63910  Biso   1.000  C
  H442     1.0000 0.02840  0.44080  0.63730  Biso   1.000  H
  C570     1.0000 0.96082  0.32581  0.78380  Biso   1.000  C
  H443     1.0000 0.95010  0.29700  0.77950  Biso   1.000  H
  C571     1.0000 0.96631  0.34177  0.85540  Biso   1.000  C
  H444     1.0000 0.97780  0.37070  0.85990  Biso   1.000  H
  C572     1.0000 0.95579  0.31758  0.92710  Biso   1.000  C
  C573     1.0000 0.94320  0.33033  0.99360  Biso   1.000  C
  H445     1.0000 0.94270  0.35540  0.99290  Biso   1.000  H
  C574     1.0000 0.93172  0.30631  0.05960  Biso   1.000  C
  H446     1.0000 0.92280  0.31500  0.10370  Biso   1.000  H
  C575     1.0000 0.94658  0.25981  0.00140  Biso   1.000  C
  H447     1.0000 0.94860  0.23560  0.00500  Biso   1.000  H
  C576     1.0000 0.95789  0.28176  0.93290  Biso   1.000  C
  H448     1.0000 0.96710  0.27250  0.89000  Biso   1.000  H
  Ni33     1.0000 0.86462  0.84041  0.52279  Biso   1.000  Ni
  Ni34     1.0000 0.65882  0.76482  0.81367  Biso   1.000  Ni
  O129     1.0000 0.84402  0.85675  0.62067  Biso   1.000  O
  O130     1.0000 0.89194  0.87102  0.71063  Biso   1.000  O
  O131     1.0000 0.88930  0.94924  0.61106  Biso   1.000  O
  O132     1.0000 0.82865  0.94338  0.57847  Biso   1.000  O
  O133     1.0000 0.73971  0.93315  0.86790  Biso   1.000  O
  O134     1.0000 0.70840  0.87990  0.79094  Biso   1.000  O
  O135     1.0000 0.73284  0.84660  0.93337  Biso   1.000  O
  O136     1.0000 0.71981  0.80423  0.83235  Biso   1.000  O
  N65      1.0000 0.83860  0.77881  0.55643  Biso   1.000  N
  N66      1.0000 0.68699  0.52336  0.79893  Biso   1.000  N
  N67      1.0000 0.65268  0.72816  0.90783  Biso   1.000  N
  N68      1.0000 0.59941  0.60451  0.39713  Biso   1.000  N
  C577     1.0000 0.83984  0.88794  0.73933  Biso   1.000  C
  H449     1.0000 0.85667  0.89743  0.78803  Biso   1.000  H
  C578     1.0000 0.83619  0.92496  0.70743  Biso   1.000  C
  H450     1.0000 0.85347  0.94883  0.74243  Biso   1.000  H
  C579     1.0000 0.79592  0.85280  0.76253  Biso   1.000  C
  H451     1.0000 0.79647  0.82723  0.77683  Biso   1.000  H
  C580     1.0000 0.78254  0.86904  0.83263  Biso   1.000  C
  H452     1.0000 0.80437  0.87753  0.87333  Biso   1.000  H
  C581     1.0000 0.78165  0.90882  0.80683  Biso   1.000  C
  H453     1.0000 0.80387  0.93293  0.83543  Biso   1.000  H
  C582     1.0000 0.79135  0.91540  0.71783  Biso   1.000  C
  H454     1.0000 0.78817  0.93873  0.69803  Biso   1.000  H
  C583     1.0000 0.76623  0.84442  0.69693  Biso   1.000  C
  H455     1.0000 0.75077  0.81803  0.67343  Biso   1.000  H
  C584     1.0000 0.76330  0.87644  0.67453  Biso   1.000  C
  H456     1.0000 0.74507  0.87503  0.63473  Biso   1.000  H
  C585     1.0000 0.86063  0.87133  0.68493  Biso   1.000  C
  C586     1.0000 0.85228  0.93933  0.62513  Biso   1.000  C
  C587     1.0000 0.74164  0.83727  0.86933  Biso   1.000  C
  C588     1.0000 0.74106  0.90693  0.82273  Biso   1.000  C
  C589     1.0000 0.83934  0.76951  0.63163  Biso   1.000  C
  H457     1.0000 0.85187  0.79143  0.66813  Biso   1.000  H
  C590     1.0000 0.82285  0.72967  0.65823  Biso   1.000  C
  H458     1.0000 0.82377  0.72463  0.71213  Biso   1.000  H
  C591     1.0000 0.80478  0.69659  0.60643  Biso   1.000  C
  C592     1.0000 0.80625  0.70619  0.52753  Biso   1.000  C
  H459     1.0000 0.79607  0.68493  0.48953  Biso   1.000  H
  C593     1.0000 0.82266  0.74706  0.50493  Biso   1.000  C
  H460     1.0000 0.82267  0.75303  0.45123  Biso   1.000  H
  C594     1.0000 0.78187  0.65327  0.63143  Biso   1.000  C
  H461     1.0000 0.77147  0.63263  0.59223  Biso   1.000  H
  C595     1.0000 0.77464  0.64083  0.70543  Biso   1.000  C
  H462     1.0000 0.78937  0.66133  0.74363  Biso   1.000  H
  C596     1.0000 0.74656  0.59908  0.73473  Biso   1.000  C
  C597     1.0000 0.73855  0.59395  0.81443  Biso   1.000  C
  H463     1.0000 0.75367  0.61643  0.84883  Biso   1.000  H
  C598     1.0000 0.70882  0.55650  0.84343  Biso   1.000  C
  H464     1.0000 0.70357  0.55413  0.89773  Biso   1.000  H
  C599     1.0000 0.69554  0.52735  0.72273  Biso   1.000  C
  H465     1.0000 0.68087  0.50383  0.69043  Biso   1.000  H
  C600     1.0000 0.72468  0.56405  0.68863  Biso   1.000  C
  H466     1.0000 0.72977  0.56533  0.63433  Biso   1.000  H
  C601     1.0000 0.62373  0.68858  0.91063  Biso   1.000  C
  H467     1.0000 0.60847  0.67593  0.86483  Biso   1.000  H
  C602     1.0000 0.61493  0.66505  0.97753  Biso   1.000  C
  H468     1.0000 0.59407  0.63683  0.97703  Biso   1.000  H
  C603     1.0000 0.63683  0.68289  0.04553  Biso   1.000  C
  C604     1.0000 0.66763  0.72450  0.04173  Biso   1.000  C
  H469     1.0000 0.68377  0.73793  0.08633  Biso   1.000  H
  C605     1.0000 0.67433  0.74585  0.97243  Biso   1.000  C
  H470     1.0000 0.69507  0.77413  0.97063  Biso   1.000  H
  C606     1.0000 0.62749  0.65914  0.11713  Biso   1.000  C
  H471     1.0000 0.61677  0.63033  0.11283  Biso   1.000  H
  C607     1.0000 0.63298  0.67510  0.18873  Biso   1.000  C
  H472     1.0000 0.64447  0.70403  0.19323  Biso   1.000  H
  C608     1.0000 0.62246  0.65091  0.26043  Biso   1.000  C
  C609     1.0000 0.60987  0.66366  0.32693  Biso   1.000  C
  H473     1.0000 0.60937  0.68873  0.32623  Biso   1.000  H
  C610     1.0000 0.59839  0.63964  0.39293  Biso   1.000  C
  H474     1.0000 0.58947  0.64833  0.43703  Biso   1.000  H
  C611     1.0000 0.61325  0.59314  0.33473  Biso   1.000  C
  H475     1.0000 0.61527  0.56893  0.33833  Biso   1.000  H
  C612     1.0000 0.62456  0.61509  0.26623  Biso   1.000  C
  H476     1.0000 0.63377  0.60583  0.22333  Biso   1.000  H
  Ni35     1.0000 0.53128  0.17375  0.85613  Biso   1.000  Ni
  Ni36     1.0000 0.32548  0.09816  0.14701  Biso   1.000  Ni
  O137     1.0000 0.51068  0.19009  0.95401  Biso   1.000  O
  O138     1.0000 0.55860  0.20436  0.04397  Biso   1.000  O
  O139     1.0000 0.55596  0.28258  0.94440  Biso   1.000  O
  O140     1.0000 0.49531  0.27672  0.91181  Biso   1.000  O
  O141     1.0000 0.40637  0.26649  0.20124  Biso   1.000  O
  O142     1.0000 0.37506  0.21324  0.12428  Biso   1.000  O
  O143     1.0000 0.39950  0.17994  0.26671  Biso   1.000  O
  O144     1.0000 0.38647  0.13757  0.16569  Biso   1.000  O
  N69      1.0000 0.50526  0.11215  0.88977  Biso   1.000  N
  N70      1.0000 0.35365  0.85670  0.13227  Biso   1.000  N
  N71      1.0000 0.31934  0.06150  0.24117  Biso   1.000  N
  N72      1.0000 0.26607  0.93785  0.73047  Biso   1.000  N
  C613     1.0000 0.50650  0.22128  0.07267  Biso   1.000  C
  H477     1.0000 0.52333  0.23077  0.12137  Biso   1.000  H
  C614     1.0000 0.50285  0.25830  0.04077  Biso   1.000  C
  H478     1.0000 0.52013  0.28217  0.07577  Biso   1.000  H
  C615     1.0000 0.46258  0.18614  0.09587  Biso   1.000  C
  H479     1.0000 0.46313  0.16057  0.11017  Biso   1.000  H
  C616     1.0000 0.44920  0.20238  0.16597  Biso   1.000  C
  H480     1.0000 0.47103  0.21087  0.20667  Biso   1.000  H
  C617     1.0000 0.44831  0.24216  0.14017  Biso   1.000  C
  H481     1.0000 0.47053  0.26627  0.16877  Biso   1.000  H
  C618     1.0000 0.45801  0.24874  0.05117  Biso   1.000  C
  H482     1.0000 0.45483  0.27207  0.03137  Biso   1.000  H
  C619     1.0000 0.43289  0.17776  0.03027  Biso   1.000  C
  H483     1.0000 0.41743  0.15137  0.00677  Biso   1.000  H
  C620     1.0000 0.42996  0.20978  0.00787  Biso   1.000  C
  H484     1.0000 0.41173  0.20837  0.96807  Biso   1.000  H
  C621     1.0000 0.52729  0.20467  0.01827  Biso   1.000  C
  C622     1.0000 0.51894  0.27267  0.95847  Biso   1.000  C
  C623     1.0000 0.40830  0.17061  0.20267  Biso   1.000  C
  C624     1.0000 0.40772  0.24027  0.15607  Biso   1.000  C
  C625     1.0000 0.50600  0.10285  0.96497  Biso   1.000  C
  H485     1.0000 0.51853  0.12477  0.00147  Biso   1.000  H
  C626     1.0000 0.48951  0.06301  0.99157  Biso   1.000  C
  H486     1.0000 0.49043  0.05797  0.04547  Biso   1.000  H
  C627     1.0000 0.47144  0.02993  0.93977  Biso   1.000  C
  C628     1.0000 0.47291  0.03953  0.86087  Biso   1.000  C
  H487     1.0000 0.46273  0.01827  0.82287  Biso   1.000  H
  C629     1.0000 0.48932  0.08040  0.83827  Biso   1.000  C
  H488     1.0000 0.48933  0.08637  0.78457  Biso   1.000  H
  C630     1.0000 0.44853  0.98661  0.96477  Biso   1.000  C
  H489     1.0000 0.43813  0.96597  0.92557  Biso   1.000  H
  C631     1.0000 0.44130  0.97417  0.03877  Biso   1.000  C
  H490     1.0000 0.45603  0.99467  0.07697  Biso   1.000  H
  C632     1.0000 0.41322  0.93242  0.06807  Biso   1.000  C
  C633     1.0000 0.40521  0.92729  0.14777  Biso   1.000  C
  H491     1.0000 0.42033  0.94977  0.18217  Biso   1.000  H
  C634     1.0000 0.37548  0.88984  0.17677  Biso   1.000  C
  H492     1.0000 0.37023  0.88747  0.23107  Biso   1.000  H
  C635     1.0000 0.36220  0.86069  0.05607  Biso   1.000  C
  H493     1.0000 0.34753  0.83717  0.02377  Biso   1.000  H
  C636     1.0000 0.39134  0.89739  0.02197  Biso   1.000  C
  H494     1.0000 0.39643  0.89867  0.96767  Biso   1.000  H
  C637     1.0000 0.29039  0.02192  0.24397  Biso   1.000  C
  H495     1.0000 0.27513  0.00927  0.19817  Biso   1.000  H
  C638     1.0000 0.28159  0.99839  0.31087  Biso   1.000  C
  H496     1.0000 0.26073  0.97017  0.31037  Biso   1.000  H
  C639     1.0000 0.30349  0.01623  0.37887  Biso   1.000  C
  C640     1.0000 0.33429  0.05784  0.37507  Biso   1.000  C
  H497     1.0000 0.35043  0.07127  0.41967  Biso   1.000  H
  C641     1.0000 0.34099  0.07919  0.30577  Biso   1.000  C
  H498     1.0000 0.36173  0.10747  0.30397  Biso   1.000  H
  C642     1.0000 0.29415  0.99248  0.45047  Biso   1.000  C
  H499     1.0000 0.28343  0.96367  0.44617  Biso   1.000  H
  C643     1.0000 0.29964  0.00844  0.52207  Biso   1.000  C
  H500     1.0000 0.31113  0.03737  0.52657  Biso   1.000  H
  C644     1.0000 0.28912  0.98425  0.59377  Biso   1.000  C
  C645     1.0000 0.27653  0.99700  0.66027  Biso   1.000  C
  H501     1.0000 0.27603  0.02207  0.65957  Biso   1.000  H
  C646     1.0000 0.26505  0.97298  0.72627  Biso   1.000  C
  H502     1.0000 0.25613  0.98167  0.77037  Biso   1.000  H
  C647     1.0000 0.27991  0.92648  0.66807  Biso   1.000  C
  H503     1.0000 0.28193  0.90227  0.67167  Biso   1.000  H
  C648     1.0000 0.29122  0.94843  0.59957  Biso   1.000  C
  H504     1.0000 0.30043  0.93917  0.55667  Biso   1.000  H
