data_image0
_cell_length_a       27.908
_cell_length_b       13.845
_cell_length_c       44.236
_cell_angle_alpha    90
_cell_angle_beta     90
_cell_angle_gamma    90

_symmetry_space_group_name_H-M    "P 1"
_symmetry_int_tables_number       1

loop_
  _symmetry_equiv_pos_as_xyz
  'x, y, z'

loop_
  _atom_site_label
  _atom_site_occupancy
  _atom_site_fract_x
  _atom_site_fract_y
  _atom_site_fract_z
  _atom_site_thermal_displace_type
  _atom_site_B_iso_or_equiv
  _atom_site_type_symbol
  Zn1      1.0000 0.45374  0.85923  0.08775  Biso   1.000  Zn
  Zn2      1.0000 0.23999  0.18258  0.31968  Biso   1.000  Zn
  Zn3      1.0000 0.47623  0.61954  0.91383  Biso   1.000  Zn
  I1       1.0000 0.44572  0.67658  0.08409  Biso   1.000  I
  I2       1.0000 0.51783  0.94726  0.11766  Biso   1.000  I
  I3       1.0000 0.32878  0.18743  0.33249  Biso   1.000  I
  I4       1.0000 0.19487  0.34091  0.31181  Biso   1.000  I
  I5       1.0000 0.42807  0.70606  0.87375  Biso   1.000  I
  I6       1.0000 0.49372  0.69537  0.96553  Biso   1.000  I
  C1       1.0000 0.31690  0.85390  0.87428  Biso   1.000  C
  H1       1.0000 0.31620  0.78540  0.87510  Biso   1.000  H
  C2       1.0000 0.34050  0.90380  0.89730  Biso   1.000  C
  H2       1.0000 0.35500  0.87000  0.91360  Biso   1.000  H
  C3       1.0000 0.29760  0.99450  0.85032  Biso   1.000  C
  H3       1.0000 0.28240  0.02680  0.83390  Biso   1.000  H
  C4       1.0000 0.32050  0.04910  0.87190  Biso   1.000  C
  H4       1.0000 0.32150  0.11750  0.87030  Biso   1.000  H
  C5       1.0000 0.34214  0.00290  0.89588  Biso   1.000  C
  C6       1.0000 0.36805  0.05820  0.91951  Biso   1.000  C
  C7       1.0000 0.42657  0.43450  0.89968  Biso   1.000  C
  H5       1.0000 0.42390  0.46350  0.88030  Biso   1.000  H
  C8       1.0000 0.41080  0.34140  0.90333  Biso   1.000  C
  H6       1.0000 0.39720  0.30720  0.88680  Biso   1.000  H
  C9       1.0000 0.44947  0.44450  0.94955  Biso   1.000  C
  H7       1.0000 0.46300  0.48040  0.96570  Biso   1.000  H
  C10      1.0000 0.43450  0.35160  0.95498  Biso   1.000  C
  H8       1.0000 0.43760  0.32420  0.97460  Biso   1.000  H
  C11      1.0000 0.41488  0.29820  0.93140  Biso   1.000  C
  C12      1.0000 0.40161  0.19590  0.93609  Biso   1.000  C
  C13      1.0000 0.45716  0.01270  0.04117  Biso   1.000  C
  H9       1.0000 0.47180  0.04810  0.05710  Biso   1.000  H
  C14      1.0000 0.44512  0.06040  0.01502  Biso   1.000  C
  H10      1.0000 0.45140  0.12760  0.01300  Biso   1.000  H
  C15      1.0000 0.43080  0.86780  0.02194  Biso   1.000  C
  H11      1.0000 0.42680  0.80000  0.02410  Biso   1.000  H
  C16      1.0000 0.41730  0.91000  0.99477  Biso   1.000  C
  H12      1.0000 0.40420  0.87230  0.97880  Biso   1.000  H
  C17      1.0000 0.42367  0.00930  0.99159  Biso   1.000  C
  C18      1.0000 0.40763  0.05990  0.96387  Biso   1.000  C
  C19      1.0000 0.34732  0.89220  0.08989  Biso   1.000  C
  H13      1.0000 0.34850  0.87170  0.06940  Biso   1.000  H
  C20      1.0000 0.30287  0.90800  0.10286  Biso   1.000  C
  H14      1.0000 0.27420  0.89880  0.09160  Biso   1.000  H
  C21      1.0000 0.38673  0.93650  0.13345  Biso   1.000  C
  H15      1.0000 0.41580  0.94880  0.14390  Biso   1.000  H
  C22      1.0000 0.34411  0.95180  0.14800  Biso   1.000  C
  H16      1.0000 0.34390  0.97210  0.16850  Biso   1.000  H
  C23      1.0000 0.30151  0.93760  0.13289  Biso   1.000  C
  C24      1.0000 0.25544  0.95160  0.14886  Biso   1.000  C
  C25      1.0000 0.26830  0.06510  0.26668  Biso   1.000  C
  H17      1.0000 0.29860  0.06510  0.27650  Biso   1.000  H
  C26      1.0000 0.26508  0.02650  0.23802  Biso   1.000  C
  H18      1.0000 0.29280  0.00230  0.22810  Biso   1.000  H
  C27      1.0000 0.18730  0.09800  0.26769  Biso   1.000  C
  H19      1.0000 0.16020  0.12310  0.27810  Biso   1.000  H
  C28      1.0000 0.18090  0.05790  0.23931  Biso   1.000  C
  H20      1.0000 0.14990  0.05410  0.23060  Biso   1.000  H
  C29      1.0000 0.22074  0.02330  0.22379  Biso   1.000  C
  C30      1.0000 0.21733  0.98910  0.19230  Biso   1.000  C
  C31      1.0000 0.04280  0.93170  0.13585  Biso   1.000  C
  H21      1.0000 0.01370  0.93510  0.14690  Biso   1.000  H
  C32      1.0000 0.08540  0.94600  0.15111  Biso   1.000  C
  H22      1.0000 0.08540  0.95920  0.17220  Biso   1.000  H
  C33      1.0000 0.08189  0.91030  0.09091  Biso   1.000  C
  H23      1.0000 0.08080  0.89850  0.06980  Biso   1.000  H
  C34      1.0000 0.12620  0.92350  0.10467  Biso   1.000  C
  H24      1.0000 0.15480  0.92060  0.09310  Biso   1.000  H
  C35      1.0000 0.12822  0.94090  0.13507  Biso   1.000  C
  C36      1.0000 0.17486  0.95240  0.15045  Biso   1.000  C
  N1       1.0000 0.29565  0.89800  0.85139  Biso   1.000  N
  N2       1.0000 0.44568  0.48660  0.92235  Biso   1.000  N
  N3       1.0000 0.44898  0.91710  0.04512  Biso   1.000  N
  N4       1.0000 0.37569  0.15260  0.91496  Biso   1.000  N
  N5       1.0000 0.41855  0.15320  0.96118  Biso   1.000  N
  N6       1.0000 0.38294  0.00850  0.94371  Biso   1.000  N
  N7       1.0000 0.38872  0.90430  0.10468  Biso   1.000  N
  N8       1.0000 0.23058  0.10270  0.28109  Biso   1.000  N
  N9       1.0000 0.04079  0.91340  0.10634  Biso   1.000  N
  N10      1.0000 0.25876  0.97600  0.17811  Biso   1.000  N
  N11      1.0000 0.17397  0.97820  0.17990  Biso   1.000  N
  N12      1.0000 0.21427  0.93850  0.13399  Biso   1.000  N
  Zn4      1.0000 0.04626  0.14077  0.58775  Biso   1.000  Zn
  Zn5      1.0000 0.26001  0.81742  0.81968  Biso   1.000  Zn
  Zn6      1.0000 0.02377  0.38046  0.41383  Biso   1.000  Zn
  I7       1.0000 0.05428  0.32342  0.58409  Biso   1.000  I
  I8       1.0000 0.98217  0.05274  0.61766  Biso   1.000  I
  I9       1.0000 0.17122  0.81257  0.83249  Biso   1.000  I
  I10      1.0000 0.30513  0.65909  0.81181  Biso   1.000  I
  I11      1.0000 0.07193  0.29394  0.37375  Biso   1.000  I
  I12      1.0000 0.00628  0.30463  0.46553  Biso   1.000  I
  C37      1.0000 0.18310  0.14610  0.37428  Biso   1.000  C
  H25      1.0000 0.18380  0.21460  0.37510  Biso   1.000  H
  C38      1.0000 0.15950  0.09620  0.39730  Biso   1.000  C
  H26      1.0000 0.14500  0.13000  0.41360  Biso   1.000  H
  C39      1.0000 0.20240  0.00550  0.35032  Biso   1.000  C
  H27      1.0000 0.21760  0.97320  0.33390  Biso   1.000  H
  C40      1.0000 0.17950  0.95090  0.37190  Biso   1.000  C
  H28      1.0000 0.17850  0.88250  0.37030  Biso   1.000  H
  C41      1.0000 0.15786  0.99710  0.39588  Biso   1.000  C
  C42      1.0000 0.13195  0.94180  0.41951  Biso   1.000  C
  C43      1.0000 0.07343  0.56550  0.39968  Biso   1.000  C
  H29      1.0000 0.07610  0.53650  0.38030  Biso   1.000  H
  C44      1.0000 0.08920  0.65860  0.40333  Biso   1.000  C
  H30      1.0000 0.10280  0.69280  0.38680  Biso   1.000  H
  C45      1.0000 0.05053  0.55550  0.44955  Biso   1.000  C
  H31      1.0000 0.03700  0.51960  0.46570  Biso   1.000  H
  C46      1.0000 0.06550  0.64840  0.45498  Biso   1.000  C
  H32      1.0000 0.06240  0.67580  0.47460  Biso   1.000  H
  C47      1.0000 0.08512  0.70180  0.43140  Biso   1.000  C
  C48      1.0000 0.09839  0.80410  0.43609  Biso   1.000  C
  C49      1.0000 0.04284  0.98730  0.54117  Biso   1.000  C
  H33      1.0000 0.02820  0.95190  0.55710  Biso   1.000  H
  C50      1.0000 0.05488  0.93960  0.51502  Biso   1.000  C
  H34      1.0000 0.04860  0.87240  0.51300  Biso   1.000  H
  C51      1.0000 0.06920  0.13220  0.52194  Biso   1.000  C
  H35      1.0000 0.07320  0.20000  0.52410  Biso   1.000  H
  C52      1.0000 0.08270  0.09000  0.49477  Biso   1.000  C
  H36      1.0000 0.09580  0.12770  0.47880  Biso   1.000  H
  C53      1.0000 0.07633  0.99070  0.49159  Biso   1.000  C
  C54      1.0000 0.09237  0.94010  0.46387  Biso   1.000  C
  C55      1.0000 0.15268  0.10780  0.58989  Biso   1.000  C
  H37      1.0000 0.15150  0.12830  0.56940  Biso   1.000  H
  C56      1.0000 0.19713  0.09200  0.60286  Biso   1.000  C
  H38      1.0000 0.22580  0.10120  0.59160  Biso   1.000  H
  C57      1.0000 0.11327  0.06350  0.63345  Biso   1.000  C
  H39      1.0000 0.08420  0.05120  0.64390  Biso   1.000  H
  C58      1.0000 0.15589  0.04820  0.64800  Biso   1.000  C
  H40      1.0000 0.15610  0.02790  0.66850  Biso   1.000  H
  C59      1.0000 0.19849  0.06240  0.63289  Biso   1.000  C
  C60      1.0000 0.24456  0.04840  0.64886  Biso   1.000  C
  C61      1.0000 0.23170  0.93490  0.76668  Biso   1.000  C
  H41      1.0000 0.20140  0.93490  0.77650  Biso   1.000  H
  C62      1.0000 0.23492  0.97350  0.73802  Biso   1.000  C
  H42      1.0000 0.20720  0.99770  0.72810  Biso   1.000  H
  C63      1.0000 0.31270  0.90200  0.76769  Biso   1.000  C
  H43      1.0000 0.33980  0.87690  0.77810  Biso   1.000  H
  C64      1.0000 0.31910  0.94210  0.73931  Biso   1.000  C
  H44      1.0000 0.35010  0.94590  0.73060  Biso   1.000  H
  C65      1.0000 0.27926  0.97670  0.72379  Biso   1.000  C
  C66      1.0000 0.28267  0.01090  0.69230  Biso   1.000  C
  C67      1.0000 0.45720  0.06830  0.63585  Biso   1.000  C
  H45      1.0000 0.48630  0.06490  0.64690  Biso   1.000  H
  C68      1.0000 0.41460  0.05400  0.65111  Biso   1.000  C
  H46      1.0000 0.41460  0.04080  0.67220  Biso   1.000  H
  C69      1.0000 0.41811  0.08970  0.59091  Biso   1.000  C
  H47      1.0000 0.41920  0.10150  0.56980  Biso   1.000  H
  C70      1.0000 0.37380  0.07650  0.60467  Biso   1.000  C
  H48      1.0000 0.34520  0.07940  0.59310  Biso   1.000  H
  C71      1.0000 0.37178  0.05910  0.63507  Biso   1.000  C
  C72      1.0000 0.32514  0.04760  0.65045  Biso   1.000  C
  N13      1.0000 0.20435  0.10200  0.35139  Biso   1.000  N
  N14      1.0000 0.05432  0.51340  0.42235  Biso   1.000  N
  N15      1.0000 0.05102  0.08290  0.54512  Biso   1.000  N
  N16      1.0000 0.12431  0.84740  0.41496  Biso   1.000  N
  N17      1.0000 0.08145  0.84680  0.46118  Biso   1.000  N
  N18      1.0000 0.11706  0.99150  0.44371  Biso   1.000  N
  N19      1.0000 0.11128  0.09570  0.60468  Biso   1.000  N
  N20      1.0000 0.26942  0.89730  0.78109  Biso   1.000  N
  N21      1.0000 0.45921  0.08660  0.60634  Biso   1.000  N
  N22      1.0000 0.24124  0.02400  0.67811  Biso   1.000  N
  N23      1.0000 0.32603  0.02180  0.67990  Biso   1.000  N
  N24      1.0000 0.28573  0.06150  0.63399  Biso   1.000  N
  Zn7      1.0000 0.54626  0.35923  0.41225  Biso   1.000  Zn
  Zn8      1.0000 0.76001  0.68258  0.18032  Biso   1.000  Zn
  Zn9      1.0000 0.52377  0.11954  0.58617  Biso   1.000  Zn
  I13      1.0000 0.55428  0.17658  0.41591  Biso   1.000  I
  I14      1.0000 0.48217  0.44726  0.38234  Biso   1.000  I
  I15      1.0000 0.67122  0.68743  0.16751  Biso   1.000  I
  I16      1.0000 0.80513  0.84091  0.18819  Biso   1.000  I
  I17      1.0000 0.57193  0.20606  0.62625  Biso   1.000  I
  I18      1.0000 0.50628  0.19537  0.53447  Biso   1.000  I
  C73      1.0000 0.68310  0.35390  0.62572  Biso   1.000  C
  H49      1.0000 0.68380  0.28540  0.62490  Biso   1.000  H
  C74      1.0000 0.65950  0.40380  0.60270  Biso   1.000  C
  H50      1.0000 0.64500  0.37000  0.58640  Biso   1.000  H
  C75      1.0000 0.70240  0.49450  0.64968  Biso   1.000  C
  H51      1.0000 0.71760  0.52680  0.66610  Biso   1.000  H
  C76      1.0000 0.67950  0.54910  0.62810  Biso   1.000  C
  H52      1.0000 0.67850  0.61750  0.62970  Biso   1.000  H
  C77      1.0000 0.65786  0.50290  0.60412  Biso   1.000  C
  C78      1.0000 0.63195  0.55820  0.58049  Biso   1.000  C
  C79      1.0000 0.57343  0.93450  0.60032  Biso   1.000  C
  H53      1.0000 0.57610  0.96350  0.61970  Biso   1.000  H
  C80      1.0000 0.58920  0.84140  0.59667  Biso   1.000  C
  H54      1.0000 0.60280  0.80720  0.61320  Biso   1.000  H
  C81      1.0000 0.55053  0.94450  0.55045  Biso   1.000  C
  H55      1.0000 0.53700  0.98040  0.53430  Biso   1.000  H
  C82      1.0000 0.56550  0.85160  0.54502  Biso   1.000  C
  H56      1.0000 0.56240  0.82420  0.52540  Biso   1.000  H
  C83      1.0000 0.58512  0.79820  0.56860  Biso   1.000  C
  C84      1.0000 0.59839  0.69590  0.56391  Biso   1.000  C
  C85      1.0000 0.54284  0.51270  0.45883  Biso   1.000  C
  H57      1.0000 0.52820  0.54810  0.44290  Biso   1.000  H
  C86      1.0000 0.55488  0.56040  0.48498  Biso   1.000  C
  H58      1.0000 0.54860  0.62760  0.48700  Biso   1.000  H
  C87      1.0000 0.56920  0.36780  0.47806  Biso   1.000  C
  H59      1.0000 0.57320  0.30000  0.47590  Biso   1.000  H
  C88      1.0000 0.58270  0.41000  0.50523  Biso   1.000  C
  H60      1.0000 0.59580  0.37230  0.52120  Biso   1.000  H
  C89      1.0000 0.57633  0.50930  0.50841  Biso   1.000  C
  C90      1.0000 0.59237  0.55990  0.53613  Biso   1.000  C
  C91      1.0000 0.65268  0.39220  0.41011  Biso   1.000  C
  H61      1.0000 0.65150  0.37170  0.43060  Biso   1.000  H
  C92      1.0000 0.69713  0.40800  0.39714  Biso   1.000  C
  H62      1.0000 0.72580  0.39880  0.40840  Biso   1.000  H
  C93      1.0000 0.61327  0.43650  0.36655  Biso   1.000  C
  H63      1.0000 0.58420  0.44880  0.35610  Biso   1.000  H
  C94      1.0000 0.65589  0.45180  0.35200  Biso   1.000  C
  H64      1.0000 0.65610  0.47210  0.33150  Biso   1.000  H
  C95      1.0000 0.69849  0.43760  0.36711  Biso   1.000  C
  C96      1.0000 0.74456  0.45160  0.35114  Biso   1.000  C
  C97      1.0000 0.73170  0.56510  0.23332  Biso   1.000  C
  H65      1.0000 0.70140  0.56510  0.22350  Biso   1.000  H
  C98      1.0000 0.73492  0.52650  0.26198  Biso   1.000  C
  H66      1.0000 0.70720  0.50230  0.27190  Biso   1.000  H
  C99      1.0000 0.81270  0.59800  0.23231  Biso   1.000  C
  H67      1.0000 0.83980  0.62310  0.22190  Biso   1.000  H
  C100     1.0000 0.81910  0.55790  0.26069  Biso   1.000  C
  H68      1.0000 0.85010  0.55410  0.26940  Biso   1.000  H
  C101     1.0000 0.77926  0.52330  0.27621  Biso   1.000  C
  C102     1.0000 0.78267  0.48910  0.30770  Biso   1.000  C
  C103     1.0000 0.95720  0.43170  0.36415  Biso   1.000  C
  H69      1.0000 0.98630  0.43510  0.35310  Biso   1.000  H
  C104     1.0000 0.91460  0.44600  0.34889  Biso   1.000  C
  H70      1.0000 0.91460  0.45920  0.32780  Biso   1.000  H
  C105     1.0000 0.91811  0.41030  0.40909  Biso   1.000  C
  H71      1.0000 0.91920  0.39850  0.43020  Biso   1.000  H
  C106     1.0000 0.87380  0.42350  0.39533  Biso   1.000  C
  H72      1.0000 0.84520  0.42060  0.40690  Biso   1.000  H
  C107     1.0000 0.87178  0.44090  0.36493  Biso   1.000  C
  C108     1.0000 0.82514  0.45240  0.34955  Biso   1.000  C
  N25      1.0000 0.70435  0.39800  0.64861  Biso   1.000  N
  N26      1.0000 0.55432  0.98660  0.57765  Biso   1.000  N
  N27      1.0000 0.55102  0.41710  0.45488  Biso   1.000  N
  N28      1.0000 0.62431  0.65260  0.58504  Biso   1.000  N
  N29      1.0000 0.58145  0.65320  0.53882  Biso   1.000  N
  N30      1.0000 0.61706  0.50850  0.55629  Biso   1.000  N
  N31      1.0000 0.61128  0.40430  0.39532  Biso   1.000  N
  N32      1.0000 0.76942  0.60270  0.21891  Biso   1.000  N
  N33      1.0000 0.95921  0.41340  0.39366  Biso   1.000  N
  N34      1.0000 0.74124  0.47600  0.32189  Biso   1.000  N
  N35      1.0000 0.82603  0.47820  0.32010  Biso   1.000  N
  N36      1.0000 0.78573  0.43850  0.36601  Biso   1.000  N
  Zn10     1.0000 0.95374  0.64077  0.91225  Biso   1.000  Zn
  Zn11     1.0000 0.73999  0.31742  0.68032  Biso   1.000  Zn
  Zn12     1.0000 0.97623  0.88046  0.08617  Biso   1.000  Zn
  I19      1.0000 0.94572  0.82342  0.91591  Biso   1.000  I
  I20      1.0000 0.01783  0.55274  0.88234  Biso   1.000  I
  I21      1.0000 0.82878  0.31257  0.66751  Biso   1.000  I
  I22      1.0000 0.69487  0.15909  0.68819  Biso   1.000  I
  I23      1.0000 0.92807  0.79394  0.12625  Biso   1.000  I
  I24      1.0000 0.99372  0.80463  0.03447  Biso   1.000  I
  C109     1.0000 0.81690  0.64610  0.12572  Biso   1.000  C
  H73      1.0000 0.81620  0.71460  0.12490  Biso   1.000  H
  C110     1.0000 0.84050  0.59620  0.10270  Biso   1.000  C
  H74      1.0000 0.85500  0.63000  0.08640  Biso   1.000  H
  C111     1.0000 0.79760  0.50550  0.14968  Biso   1.000  C
  H75      1.0000 0.78240  0.47320  0.16610  Biso   1.000  H
  C112     1.0000 0.82050  0.45090  0.12810  Biso   1.000  C
  H76      1.0000 0.82150  0.38250  0.12970  Biso   1.000  H
  C113     1.0000 0.84214  0.49710  0.10412  Biso   1.000  C
  C114     1.0000 0.86805  0.44180  0.08049  Biso   1.000  C
  C115     1.0000 0.92657  0.06550  0.10032  Biso   1.000  C
  H77      1.0000 0.92390  0.03650  0.11970  Biso   1.000  H
  C116     1.0000 0.91080  0.15860  0.09667  Biso   1.000  C
  H78      1.0000 0.89720  0.19280  0.11320  Biso   1.000  H
  C117     1.0000 0.94947  0.05550  0.05045  Biso   1.000  C
  H79      1.0000 0.96300  0.01960  0.03430  Biso   1.000  H
  C118     1.0000 0.93450  0.14840  0.04502  Biso   1.000  C
  H80      1.0000 0.93760  0.17580  0.02540  Biso   1.000  H
  C119     1.0000 0.91488  0.20180  0.06860  Biso   1.000  C
  C120     1.0000 0.90161  0.30410  0.06391  Biso   1.000  C
  C121     1.0000 0.95716  0.48730  0.95883  Biso   1.000  C
  H81      1.0000 0.97180  0.45190  0.94290  Biso   1.000  H
  C122     1.0000 0.94512  0.43960  0.98498  Biso   1.000  C
  H82      1.0000 0.95140  0.37240  0.98700  Biso   1.000  H
  C123     1.0000 0.93080  0.63220  0.97806  Biso   1.000  C
  H83      1.0000 0.92680  0.70000  0.97590  Biso   1.000  H
  C124     1.0000 0.91730  0.59000  0.00523  Biso   1.000  C
  H84      1.0000 0.90420  0.62770  0.02120  Biso   1.000  H
  C125     1.0000 0.92367  0.49070  0.00841  Biso   1.000  C
  C126     1.0000 0.90763  0.44010  0.03613  Biso   1.000  C
  C127     1.0000 0.84732  0.60780  0.91011  Biso   1.000  C
  H85      1.0000 0.84850  0.62830  0.93060  Biso   1.000  H
  C128     1.0000 0.80287  0.59200  0.89714  Biso   1.000  C
  H86      1.0000 0.77420  0.60120  0.90840  Biso   1.000  H
  C129     1.0000 0.88673  0.56350  0.86655  Biso   1.000  C
  H87      1.0000 0.91580  0.55120  0.85610  Biso   1.000  H
  C130     1.0000 0.84411  0.54820  0.85200  Biso   1.000  C
  H88      1.0000 0.84390  0.52790  0.83150  Biso   1.000  H
  C131     1.0000 0.80151  0.56240  0.86711  Biso   1.000  C
  C132     1.0000 0.75544  0.54840  0.85114  Biso   1.000  C
  C133     1.0000 0.76830  0.43490  0.73332  Biso   1.000  C
  H89      1.0000 0.79860  0.43490  0.72350  Biso   1.000  H
  C134     1.0000 0.76508  0.47350  0.76198  Biso   1.000  C
  H90      1.0000 0.79280  0.49770  0.77190  Biso   1.000  H
  C135     1.0000 0.68730  0.40200  0.73231  Biso   1.000  C
  H91      1.0000 0.66020  0.37690  0.72190  Biso   1.000  H
  C136     1.0000 0.68090  0.44210  0.76069  Biso   1.000  C
  H92      1.0000 0.64990  0.44590  0.76940  Biso   1.000  H
  C137     1.0000 0.72074  0.47670  0.77621  Biso   1.000  C
  C138     1.0000 0.71733  0.51090  0.80770  Biso   1.000  C
  C139     1.0000 0.54280  0.56830  0.86415  Biso   1.000  C
  H93      1.0000 0.51370  0.56490  0.85310  Biso   1.000  H
  C140     1.0000 0.58540  0.55400  0.84889  Biso   1.000  C
  H94      1.0000 0.58540  0.54080  0.82780  Biso   1.000  H
  C141     1.0000 0.58189  0.58970  0.90909  Biso   1.000  C
  H95      1.0000 0.58080  0.60150  0.93020  Biso   1.000  H
  C142     1.0000 0.62620  0.57650  0.89533  Biso   1.000  C
  H96      1.0000 0.65480  0.57940  0.90690  Biso   1.000  H
  C143     1.0000 0.62822  0.55910  0.86493  Biso   1.000  C
  C144     1.0000 0.67486  0.54760  0.84955  Biso   1.000  C
  N37      1.0000 0.79565  0.60200  0.14861  Biso   1.000  N
  N38      1.0000 0.94568  0.01340  0.07765  Biso   1.000  N
  N39      1.0000 0.94898  0.58290  0.95488  Biso   1.000  N
  N40      1.0000 0.87569  0.34740  0.08504  Biso   1.000  N
  N41      1.0000 0.91855  0.34680  0.03882  Biso   1.000  N
  N42      1.0000 0.88294  0.49150  0.05629  Biso   1.000  N
  N43      1.0000 0.88872  0.59570  0.89532  Biso   1.000  N
  N44      1.0000 0.73058  0.39730  0.71891  Biso   1.000  N
  N45      1.0000 0.54079  0.58660  0.89366  Biso   1.000  N
  N46      1.0000 0.75876  0.52400  0.82189  Biso   1.000  N
  N47      1.0000 0.67397  0.52180  0.82010  Biso   1.000  N
  N48      1.0000 0.71427  0.56150  0.86601  Biso   1.000  N
  Zn13     1.0000 0.54626  0.14077  0.91225  Biso   1.000  Zn
  Zn14     1.0000 0.76001  0.81742  0.68032  Biso   1.000  Zn
  Zn15     1.0000 0.52377  0.38046  0.08617  Biso   1.000  Zn
  I25      1.0000 0.55428  0.32342  0.91591  Biso   1.000  I
  I26      1.0000 0.48217  0.05274  0.88234  Biso   1.000  I
  I27      1.0000 0.67122  0.81257  0.66751  Biso   1.000  I
  I28      1.0000 0.80513  0.65909  0.68819  Biso   1.000  I
  I29      1.0000 0.57193  0.29394  0.12625  Biso   1.000  I
  I30      1.0000 0.50628  0.30463  0.03447  Biso   1.000  I
  C145     1.0000 0.68310  0.14610  0.12572  Biso   1.000  C
  H97      1.0000 0.68380  0.21460  0.12490  Biso   1.000  H
  C146     1.0000 0.65950  0.09620  0.10270  Biso   1.000  C
  H98      1.0000 0.64500  0.13000  0.08640  Biso   1.000  H
  C147     1.0000 0.70240  0.00550  0.14968  Biso   1.000  C
  H99      1.0000 0.71760  0.97320  0.16610  Biso   1.000  H
  C148     1.0000 0.67950  0.95090  0.12810  Biso   1.000  C
  H100     1.0000 0.67850  0.88250  0.12970  Biso   1.000  H
  C149     1.0000 0.65786  0.99710  0.10412  Biso   1.000  C
  C150     1.0000 0.63195  0.94180  0.08049  Biso   1.000  C
  C151     1.0000 0.57343  0.56550  0.10032  Biso   1.000  C
  H101     1.0000 0.57610  0.53650  0.11970  Biso   1.000  H
  C152     1.0000 0.58920  0.65860  0.09667  Biso   1.000  C
  H102     1.0000 0.60280  0.69280  0.11320  Biso   1.000  H
  C153     1.0000 0.55053  0.55550  0.05045  Biso   1.000  C
  H103     1.0000 0.53700  0.51960  0.03430  Biso   1.000  H
  C154     1.0000 0.56550  0.64840  0.04502  Biso   1.000  C
  H104     1.0000 0.56240  0.67580  0.02540  Biso   1.000  H
  C155     1.0000 0.58512  0.70180  0.06860  Biso   1.000  C
  C156     1.0000 0.59839  0.80410  0.06391  Biso   1.000  C
  C157     1.0000 0.54284  0.98730  0.95883  Biso   1.000  C
  H105     1.0000 0.52820  0.95190  0.94290  Biso   1.000  H
  C158     1.0000 0.55488  0.93960  0.98498  Biso   1.000  C
  H106     1.0000 0.54860  0.87240  0.98700  Biso   1.000  H
  C159     1.0000 0.56920  0.13220  0.97806  Biso   1.000  C
  H107     1.0000 0.57320  0.20000  0.97590  Biso   1.000  H
  C160     1.0000 0.58270  0.09000  0.00523  Biso   1.000  C
  H108     1.0000 0.59580  0.12770  0.02120  Biso   1.000  H
  C161     1.0000 0.57633  0.99070  0.00841  Biso   1.000  C
  C162     1.0000 0.59237  0.94010  0.03613  Biso   1.000  C
  C163     1.0000 0.65268  0.10780  0.91011  Biso   1.000  C
  H109     1.0000 0.65150  0.12830  0.93060  Biso   1.000  H
  C164     1.0000 0.69713  0.09200  0.89714  Biso   1.000  C
  H110     1.0000 0.72580  0.10120  0.90840  Biso   1.000  H
  C165     1.0000 0.61327  0.06350  0.86655  Biso   1.000  C
  H111     1.0000 0.58420  0.05120  0.85610  Biso   1.000  H
  C166     1.0000 0.65589  0.04820  0.85200  Biso   1.000  C
  H112     1.0000 0.65610  0.02790  0.83150  Biso   1.000  H
  C167     1.0000 0.69849  0.06240  0.86711  Biso   1.000  C
  C168     1.0000 0.74456  0.04840  0.85114  Biso   1.000  C
  C169     1.0000 0.73170  0.93490  0.73332  Biso   1.000  C
  H113     1.0000 0.70140  0.93490  0.72350  Biso   1.000  H
  C170     1.0000 0.73492  0.97350  0.76198  Biso   1.000  C
  H114     1.0000 0.70720  0.99770  0.77190  Biso   1.000  H
  C171     1.0000 0.81270  0.90200  0.73231  Biso   1.000  C
  H115     1.0000 0.83980  0.87690  0.72190  Biso   1.000  H
  C172     1.0000 0.81910  0.94210  0.76069  Biso   1.000  C
  H116     1.0000 0.85010  0.94590  0.76940  Biso   1.000  H
  C173     1.0000 0.77926  0.97670  0.77621  Biso   1.000  C
  C174     1.0000 0.78267  0.01090  0.80770  Biso   1.000  C
  C175     1.0000 0.95720  0.06830  0.86415  Biso   1.000  C
  H117     1.0000 0.98630  0.06490  0.85310  Biso   1.000  H
  C176     1.0000 0.91460  0.05400  0.84889  Biso   1.000  C
  H118     1.0000 0.91460  0.04080  0.82780  Biso   1.000  H
  C177     1.0000 0.91811  0.08970  0.90909  Biso   1.000  C
  H119     1.0000 0.91920  0.10150  0.93020  Biso   1.000  H
  C178     1.0000 0.87380  0.07650  0.89533  Biso   1.000  C
  H120     1.0000 0.84520  0.07940  0.90690  Biso   1.000  H
  C179     1.0000 0.87178  0.05910  0.86493  Biso   1.000  C
  C180     1.0000 0.82514  0.04760  0.84955  Biso   1.000  C
  N49      1.0000 0.70435  0.10200  0.14861  Biso   1.000  N
  N50      1.0000 0.55432  0.51340  0.07765  Biso   1.000  N
  N51      1.0000 0.55102  0.08290  0.95488  Biso   1.000  N
  N52      1.0000 0.62431  0.84740  0.08504  Biso   1.000  N
  N53      1.0000 0.58145  0.84680  0.03882  Biso   1.000  N
  N54      1.0000 0.61706  0.99150  0.05629  Biso   1.000  N
  N55      1.0000 0.61128  0.09570  0.89532  Biso   1.000  N
  N56      1.0000 0.76942  0.89730  0.71891  Biso   1.000  N
  N57      1.0000 0.95921  0.08660  0.89366  Biso   1.000  N
  N58      1.0000 0.74124  0.02400  0.82189  Biso   1.000  N
  N59      1.0000 0.82603  0.02180  0.82010  Biso   1.000  N
  N60      1.0000 0.78573  0.06150  0.86601  Biso   1.000  N
  Zn16     1.0000 0.95374  0.85923  0.41225  Biso   1.000  Zn
  Zn17     1.0000 0.73999  0.18258  0.18032  Biso   1.000  Zn
  Zn18     1.0000 0.97623  0.61954  0.58617  Biso   1.000  Zn
  I31      1.0000 0.94572  0.67658  0.41591  Biso   1.000  I
  I32      1.0000 0.01783  0.94726  0.38234  Biso   1.000  I
  I33      1.0000 0.82878  0.18743  0.16751  Biso   1.000  I
  I34      1.0000 0.69487  0.34091  0.18819  Biso   1.000  I
  I35      1.0000 0.92807  0.70606  0.62625  Biso   1.000  I
  I36      1.0000 0.99372  0.69537  0.53447  Biso   1.000  I
  C181     1.0000 0.81690  0.85390  0.62572  Biso   1.000  C
  H121     1.0000 0.81620  0.78540  0.62490  Biso   1.000  H
  C182     1.0000 0.84050  0.90380  0.60270  Biso   1.000  C
  H122     1.0000 0.85500  0.87000  0.58640  Biso   1.000  H
  C183     1.0000 0.79760  0.99450  0.64968  Biso   1.000  C
  H123     1.0000 0.78240  0.02680  0.66610  Biso   1.000  H
  C184     1.0000 0.82050  0.04910  0.62810  Biso   1.000  C
  H124     1.0000 0.82150  0.11750  0.62970  Biso   1.000  H
  C185     1.0000 0.84214  0.00290  0.60412  Biso   1.000  C
  C186     1.0000 0.86805  0.05820  0.58049  Biso   1.000  C
  C187     1.0000 0.92657  0.43450  0.60032  Biso   1.000  C
  H125     1.0000 0.92390  0.46350  0.61970  Biso   1.000  H
  C188     1.0000 0.91080  0.34140  0.59667  Biso   1.000  C
  H126     1.0000 0.89720  0.30720  0.61320  Biso   1.000  H
  C189     1.0000 0.94947  0.44450  0.55045  Biso   1.000  C
  H127     1.0000 0.96300  0.48040  0.53430  Biso   1.000  H
  C190     1.0000 0.93450  0.35160  0.54502  Biso   1.000  C
  H128     1.0000 0.93760  0.32420  0.52540  Biso   1.000  H
  C191     1.0000 0.91488  0.29820  0.56860  Biso   1.000  C
  C192     1.0000 0.90161  0.19590  0.56391  Biso   1.000  C
  C193     1.0000 0.95716  0.01270  0.45883  Biso   1.000  C
  H129     1.0000 0.97180  0.04810  0.44290  Biso   1.000  H
  C194     1.0000 0.94512  0.06040  0.48498  Biso   1.000  C
  H130     1.0000 0.95140  0.12760  0.48700  Biso   1.000  H
  C195     1.0000 0.93080  0.86780  0.47806  Biso   1.000  C
  H131     1.0000 0.92680  0.80000  0.47590  Biso   1.000  H
  C196     1.0000 0.91730  0.91000  0.50523  Biso   1.000  C
  H132     1.0000 0.90420  0.87230  0.52120  Biso   1.000  H
  C197     1.0000 0.92367  0.00930  0.50841  Biso   1.000  C
  C198     1.0000 0.90763  0.05990  0.53613  Biso   1.000  C
  C199     1.0000 0.84732  0.89220  0.41011  Biso   1.000  C
  H133     1.0000 0.84850  0.87170  0.43060  Biso   1.000  H
  C200     1.0000 0.80287  0.90800  0.39714  Biso   1.000  C
  H134     1.0000 0.77420  0.89880  0.40840  Biso   1.000  H
  C201     1.0000 0.88673  0.93650  0.36655  Biso   1.000  C
  H135     1.0000 0.91580  0.94880  0.35610  Biso   1.000  H
  C202     1.0000 0.84411  0.95180  0.35200  Biso   1.000  C
  H136     1.0000 0.84390  0.97210  0.33150  Biso   1.000  H
  C203     1.0000 0.80151  0.93760  0.36711  Biso   1.000  C
  C204     1.0000 0.75544  0.95160  0.35114  Biso   1.000  C
  C205     1.0000 0.76830  0.06510  0.23332  Biso   1.000  C
  H137     1.0000 0.79860  0.06510  0.22350  Biso   1.000  H
  C206     1.0000 0.76508  0.02650  0.26198  Biso   1.000  C
  H138     1.0000 0.79280  0.00230  0.27190  Biso   1.000  H
  C207     1.0000 0.68730  0.09800  0.23231  Biso   1.000  C
  H139     1.0000 0.66020  0.12310  0.22190  Biso   1.000  H
  C208     1.0000 0.68090  0.05790  0.26069  Biso   1.000  C
  H140     1.0000 0.64990  0.05410  0.26940  Biso   1.000  H
  C209     1.0000 0.72074  0.02330  0.27621  Biso   1.000  C
  C210     1.0000 0.71733  0.98910  0.30770  Biso   1.000  C
  C211     1.0000 0.54280  0.93170  0.36415  Biso   1.000  C
  H141     1.0000 0.51370  0.93510  0.35310  Biso   1.000  H
  C212     1.0000 0.58540  0.94600  0.34889  Biso   1.000  C
  H142     1.0000 0.58540  0.95920  0.32780  Biso   1.000  H
  C213     1.0000 0.58189  0.91030  0.40909  Biso   1.000  C
  H143     1.0000 0.58080  0.89850  0.43020  Biso   1.000  H
  C214     1.0000 0.62620  0.92350  0.39533  Biso   1.000  C
  H144     1.0000 0.65480  0.92060  0.40690  Biso   1.000  H
  C215     1.0000 0.62822  0.94090  0.36493  Biso   1.000  C
  C216     1.0000 0.67486  0.95240  0.34955  Biso   1.000  C
  N61      1.0000 0.79565  0.89800  0.64861  Biso   1.000  N
  N62      1.0000 0.94568  0.48660  0.57765  Biso   1.000  N
  N63      1.0000 0.94898  0.91710  0.45488  Biso   1.000  N
  N64      1.0000 0.87569  0.15260  0.58504  Biso   1.000  N
  N65      1.0000 0.91855  0.15320  0.53882  Biso   1.000  N
  N66      1.0000 0.88294  0.00850  0.55629  Biso   1.000  N
  N67      1.0000 0.88872  0.90430  0.39532  Biso   1.000  N
  N68      1.0000 0.73058  0.10270  0.21891  Biso   1.000  N
  N69      1.0000 0.54079  0.91340  0.39366  Biso   1.000  N
  N70      1.0000 0.75876  0.97600  0.32189  Biso   1.000  N
  N71      1.0000 0.67397  0.97820  0.32010  Biso   1.000  N
  N72      1.0000 0.71427  0.93850  0.36601  Biso   1.000  N
  Zn19     1.0000 0.45374  0.64077  0.58775  Biso   1.000  Zn
  Zn20     1.0000 0.23999  0.31742  0.81968  Biso   1.000  Zn
  Zn21     1.0000 0.47623  0.88046  0.41383  Biso   1.000  Zn
  I37      1.0000 0.44572  0.82342  0.58409  Biso   1.000  I
  I38      1.0000 0.51783  0.55274  0.61766  Biso   1.000  I
  I39      1.0000 0.32878  0.31257  0.83249  Biso   1.000  I
  I40      1.0000 0.19487  0.15909  0.81181  Biso   1.000  I
  I41      1.0000 0.42807  0.79394  0.37375  Biso   1.000  I
  I42      1.0000 0.49372  0.80463  0.46553  Biso   1.000  I
  C217     1.0000 0.31690  0.64610  0.37428  Biso   1.000  C
  H145     1.0000 0.31620  0.71460  0.37510  Biso   1.000  H
  C218     1.0000 0.34050  0.59620  0.39730  Biso   1.000  C
  H146     1.0000 0.35500  0.63000  0.41360  Biso   1.000  H
  C219     1.0000 0.29760  0.50550  0.35032  Biso   1.000  C
  H147     1.0000 0.28240  0.47320  0.33390  Biso   1.000  H
  C220     1.0000 0.32050  0.45090  0.37190  Biso   1.000  C
  H148     1.0000 0.32150  0.38250  0.37030  Biso   1.000  H
  C221     1.0000 0.34214  0.49710  0.39588  Biso   1.000  C
  C222     1.0000 0.36805  0.44180  0.41951  Biso   1.000  C
  C223     1.0000 0.42657  0.06550  0.39968  Biso   1.000  C
  H149     1.0000 0.42390  0.03650  0.38030  Biso   1.000  H
  C224     1.0000 0.41080  0.15860  0.40333  Biso   1.000  C
  H150     1.0000 0.39720  0.19280  0.38680  Biso   1.000  H
  C225     1.0000 0.44947  0.05550  0.44955  Biso   1.000  C
  H151     1.0000 0.46300  0.01960  0.46570  Biso   1.000  H
  C226     1.0000 0.43450  0.14840  0.45498  Biso   1.000  C
  H152     1.0000 0.43760  0.17580  0.47460  Biso   1.000  H
  C227     1.0000 0.41488  0.20180  0.43140  Biso   1.000  C
  C228     1.0000 0.40161  0.30410  0.43609  Biso   1.000  C
  C229     1.0000 0.45716  0.48730  0.54117  Biso   1.000  C
  H153     1.0000 0.47180  0.45190  0.55710  Biso   1.000  H
  C230     1.0000 0.44512  0.43960  0.51502  Biso   1.000  C
  H154     1.0000 0.45140  0.37240  0.51300  Biso   1.000  H
  C231     1.0000 0.43080  0.63220  0.52194  Biso   1.000  C
  H155     1.0000 0.42680  0.70000  0.52410  Biso   1.000  H
  C232     1.0000 0.41730  0.59000  0.49477  Biso   1.000  C
  H156     1.0000 0.40420  0.62770  0.47880  Biso   1.000  H
  C233     1.0000 0.42367  0.49070  0.49159  Biso   1.000  C
  C234     1.0000 0.40763  0.44010  0.46387  Biso   1.000  C
  C235     1.0000 0.34732  0.60780  0.58989  Biso   1.000  C
  H157     1.0000 0.34850  0.62830  0.56940  Biso   1.000  H
  C236     1.0000 0.30287  0.59200  0.60286  Biso   1.000  C
  H158     1.0000 0.27420  0.60120  0.59160  Biso   1.000  H
  C237     1.0000 0.38673  0.56350  0.63345  Biso   1.000  C
  H159     1.0000 0.41580  0.55120  0.64390  Biso   1.000  H
  C238     1.0000 0.34411  0.54820  0.64800  Biso   1.000  C
  H160     1.0000 0.34390  0.52790  0.66850  Biso   1.000  H
  C239     1.0000 0.30151  0.56240  0.63289  Biso   1.000  C
  C240     1.0000 0.25544  0.54840  0.64886  Biso   1.000  C
  C241     1.0000 0.26830  0.43490  0.76668  Biso   1.000  C
  H161     1.0000 0.29860  0.43490  0.77650  Biso   1.000  H
  C242     1.0000 0.26508  0.47350  0.73802  Biso   1.000  C
  H162     1.0000 0.29280  0.49770  0.72810  Biso   1.000  H
  C243     1.0000 0.18730  0.40200  0.76769  Biso   1.000  C
  H163     1.0000 0.16020  0.37690  0.77810  Biso   1.000  H
  C244     1.0000 0.18090  0.44210  0.73931  Biso   1.000  C
  H164     1.0000 0.14990  0.44590  0.73060  Biso   1.000  H
  C245     1.0000 0.22074  0.47670  0.72379  Biso   1.000  C
  C246     1.0000 0.21733  0.51090  0.69230  Biso   1.000  C
  C247     1.0000 0.04280  0.56830  0.63585  Biso   1.000  C
  H165     1.0000 0.01370  0.56490  0.64690  Biso   1.000  H
  C248     1.0000 0.08540  0.55400  0.65111  Biso   1.000  C
  H166     1.0000 0.08540  0.54080  0.67220  Biso   1.000  H
  C249     1.0000 0.08189  0.58970  0.59091  Biso   1.000  C
  H167     1.0000 0.08080  0.60150  0.56980  Biso   1.000  H
  C250     1.0000 0.12620  0.57650  0.60467  Biso   1.000  C
  H168     1.0000 0.15480  0.57940  0.59310  Biso   1.000  H
  C251     1.0000 0.12822  0.55910  0.63507  Biso   1.000  C
  C252     1.0000 0.17486  0.54760  0.65045  Biso   1.000  C
  N73      1.0000 0.29565  0.60200  0.35139  Biso   1.000  N
  N74      1.0000 0.44568  0.01340  0.42235  Biso   1.000  N
  N75      1.0000 0.44898  0.58290  0.54512  Biso   1.000  N
  N76      1.0000 0.37569  0.34740  0.41496  Biso   1.000  N
  N77      1.0000 0.41855  0.34680  0.46118  Biso   1.000  N
  N78      1.0000 0.38294  0.49150  0.44371  Biso   1.000  N
  N79      1.0000 0.38872  0.59570  0.60468  Biso   1.000  N
  N80      1.0000 0.23058  0.39730  0.78109  Biso   1.000  N
  N81      1.0000 0.04079  0.58660  0.60634  Biso   1.000  N
  N82      1.0000 0.25876  0.52400  0.67811  Biso   1.000  N
  N83      1.0000 0.17397  0.52180  0.67990  Biso   1.000  N
  N84      1.0000 0.21427  0.56150  0.63399  Biso   1.000  N
  Zn22     1.0000 0.04626  0.35923  0.08775  Biso   1.000  Zn
  Zn23     1.0000 0.26001  0.68258  0.31968  Biso   1.000  Zn
  Zn24     1.0000 0.02377  0.11954  0.91383  Biso   1.000  Zn
  I43      1.0000 0.05428  0.17658  0.08409  Biso   1.000  I
  I44      1.0000 0.98217  0.44726  0.11766  Biso   1.000  I
  I45      1.0000 0.17122  0.68743  0.33249  Biso   1.000  I
  I46      1.0000 0.30513  0.84091  0.31181  Biso   1.000  I
  I47      1.0000 0.07193  0.20606  0.87375  Biso   1.000  I
  I48      1.0000 0.00628  0.19537  0.96553  Biso   1.000  I
  C253     1.0000 0.18310  0.35390  0.87428  Biso   1.000  C
  H169     1.0000 0.18380  0.28540  0.87510  Biso   1.000  H
  C254     1.0000 0.15950  0.40380  0.89730  Biso   1.000  C
  H170     1.0000 0.14500  0.37000  0.91360  Biso   1.000  H
  C255     1.0000 0.20240  0.49450  0.85032  Biso   1.000  C
  H171     1.0000 0.21760  0.52680  0.83390  Biso   1.000  H
  C256     1.0000 0.17950  0.54910  0.87190  Biso   1.000  C
  H172     1.0000 0.17850  0.61750  0.87030  Biso   1.000  H
  C257     1.0000 0.15786  0.50290  0.89588  Biso   1.000  C
  C258     1.0000 0.13195  0.55820  0.91951  Biso   1.000  C
  C259     1.0000 0.07343  0.93450  0.89968  Biso   1.000  C
  H173     1.0000 0.07610  0.96350  0.88030  Biso   1.000  H
  C260     1.0000 0.08920  0.84140  0.90333  Biso   1.000  C
  H174     1.0000 0.10280  0.80720  0.88680  Biso   1.000  H
  C261     1.0000 0.05053  0.94450  0.94955  Biso   1.000  C
  H175     1.0000 0.03700  0.98040  0.96570  Biso   1.000  H
  C262     1.0000 0.06550  0.85160  0.95498  Biso   1.000  C
  H176     1.0000 0.06240  0.82420  0.97460  Biso   1.000  H
  C263     1.0000 0.08512  0.79820  0.93140  Biso   1.000  C
  C264     1.0000 0.09839  0.69590  0.93609  Biso   1.000  C
  C265     1.0000 0.04284  0.51270  0.04117  Biso   1.000  C
  H177     1.0000 0.02820  0.54810  0.05710  Biso   1.000  H
  C266     1.0000 0.05488  0.56040  0.01502  Biso   1.000  C
  H178     1.0000 0.04860  0.62760  0.01300  Biso   1.000  H
  C267     1.0000 0.06920  0.36780  0.02194  Biso   1.000  C
  H179     1.0000 0.07320  0.30000  0.02410  Biso   1.000  H
  C268     1.0000 0.08270  0.41000  0.99477  Biso   1.000  C
  H180     1.0000 0.09580  0.37230  0.97880  Biso   1.000  H
  C269     1.0000 0.07633  0.50930  0.99159  Biso   1.000  C
  C270     1.0000 0.09237  0.55990  0.96387  Biso   1.000  C
  C271     1.0000 0.15268  0.39220  0.08989  Biso   1.000  C
  H181     1.0000 0.15150  0.37170  0.06940  Biso   1.000  H
  C272     1.0000 0.19713  0.40800  0.10286  Biso   1.000  C
  H182     1.0000 0.22580  0.39880  0.09160  Biso   1.000  H
  C273     1.0000 0.11327  0.43650  0.13345  Biso   1.000  C
  H183     1.0000 0.08420  0.44880  0.14390  Biso   1.000  H
  C274     1.0000 0.15589  0.45180  0.14800  Biso   1.000  C
  H184     1.0000 0.15610  0.47210  0.16850  Biso   1.000  H
  C275     1.0000 0.19849  0.43760  0.13289  Biso   1.000  C
  C276     1.0000 0.24456  0.45160  0.14886  Biso   1.000  C
  C277     1.0000 0.23170  0.56510  0.26668  Biso   1.000  C
  H185     1.0000 0.20140  0.56510  0.27650  Biso   1.000  H
  C278     1.0000 0.23492  0.52650  0.23802  Biso   1.000  C
  H186     1.0000 0.20720  0.50230  0.22810  Biso   1.000  H
  C279     1.0000 0.31270  0.59800  0.26769  Biso   1.000  C
  H187     1.0000 0.33980  0.62310  0.27810  Biso   1.000  H
  C280     1.0000 0.31910  0.55790  0.23931  Biso   1.000  C
  H188     1.0000 0.35010  0.55410  0.23060  Biso   1.000  H
  C281     1.0000 0.27926  0.52330  0.22379  Biso   1.000  C
  C282     1.0000 0.28267  0.48910  0.19230  Biso   1.000  C
  C283     1.0000 0.45720  0.43170  0.13585  Biso   1.000  C
  H189     1.0000 0.48630  0.43510  0.14690  Biso   1.000  H
  C284     1.0000 0.41460  0.44600  0.15111  Biso   1.000  C
  H190     1.0000 0.41460  0.45920  0.17220  Biso   1.000  H
  C285     1.0000 0.41811  0.41030  0.09091  Biso   1.000  C
  H191     1.0000 0.41920  0.39850  0.06980  Biso   1.000  H
  C286     1.0000 0.37380  0.42350  0.10467  Biso   1.000  C
  H192     1.0000 0.34520  0.42060  0.09310  Biso   1.000  H
  C287     1.0000 0.37178  0.44090  0.13507  Biso   1.000  C
  C288     1.0000 0.32514  0.45240  0.15045  Biso   1.000  C
  N85      1.0000 0.20435  0.39800  0.85139  Biso   1.000  N
  N86      1.0000 0.05432  0.98660  0.92235  Biso   1.000  N
  N87      1.0000 0.05102  0.41710  0.04512  Biso   1.000  N
  N88      1.0000 0.12431  0.65260  0.91496  Biso   1.000  N
  N89      1.0000 0.08145  0.65320  0.96118  Biso   1.000  N
  N90      1.0000 0.11706  0.50850  0.94371  Biso   1.000  N
  N91      1.0000 0.11128  0.40430  0.10468  Biso   1.000  N
  N92      1.0000 0.26942  0.60270  0.28109  Biso   1.000  N
  N93      1.0000 0.45921  0.41340  0.10634  Biso   1.000  N
  N94      1.0000 0.24124  0.47600  0.17811  Biso   1.000  N
  N95      1.0000 0.32603  0.47820  0.17990  Biso   1.000  N
  N96      1.0000 0.28573  0.43850  0.13399  Biso   1.000  N
