data_FURQOZ01_ion_b
_audit_creation_date              2014-07-02
_audit_creation_method            'Materials Studio'
_symmetry_space_group_name_H-M    'P1'
_symmetry_Int_Tables_number       1
_symmetry_cell_setting            triclinic
loop_
_symmetry_equiv_pos_as_xyz
  x,y,z
_cell_length_a                    34.5383
_cell_length_b                    34.5383
_cell_length_c                    8.5169
_cell_angle_alpha                 90.0000
_cell_angle_beta                  90.0000
_cell_angle_gamma                 120.0000
loop_
_atom_site_label
_atom_site_type_symbol
_atom_site_fract_x
_atom_site_fract_y
_atom_site_fract_z
_atom_site_U_iso_or_equiv
_atom_site_adp_type
_atom_site_occupancy
Ag1    Ag    0.31747   0.14605   0.49392   0.00000  Uiso   1.00
O2     O     0.99413   0.66687   0.57603   0.00000  Uiso   1.00
N3     N     0.33689   0.20506   0.34390   0.00000  Uiso   1.00
N4     N     0.19644   0.27611   0.39630   0.00000  Uiso   1.00
C5     C     0.37203   0.21878   0.24920   0.00000  Uiso   1.00
H6     H     0.38690   0.20250   0.24700   0.00000  Uiso   1.00
C7     C     0.05401   0.58906   0.48813   0.00000  Uiso   1.00
H8     H     0.74533   0.93087   0.75667   0.00000  Uiso   1.00
C9     C     0.03258   0.61346   0.49053   0.00000  Uiso   1.00
H10    H     0.04267   0.63893   0.42863   0.00000  Uiso   1.00
C11    C     0.99559   0.59959   0.58663   0.00000  Uiso   1.00
C12    C     0.31562   0.22850   0.34500   0.00000  Uiso   1.00
H13    H     0.29090   0.21910   0.41000   0.00000  Uiso   1.00
C14    C     0.97279   0.62667   0.59493   0.00000  Uiso   1.00
C15    C     0.25721   0.27044   0.28880   0.00000  Uiso   1.00
C16    C     0.89466   0.56254   0.55983   0.00000  Uiso   1.00
H17    H     0.90517   0.54663   0.50303   0.00000  Uiso   1.00
C18    C     0.18291   0.21206   0.25000   0.00000  Uiso   1.00
H19    H     0.16240   0.18440   0.20800   0.00000  Uiso   1.00
C20    C     0.16854   0.23595   0.33580   0.00000  Uiso   1.00
H21    H     0.13800   0.22370   0.35280   0.00000  Uiso   1.00
C22    C     0.23995   0.29275   0.37200   0.00000  Uiso   1.00
H23    H     0.25980   0.32080   0.41300   0.00000  Uiso   1.00
C24    C     0.40761   0.15207   0.53190   0.00000  Uiso   1.00
O25    O     0.72128   0.82131   0.31297   0.00000  Uiso   1.00
O26    O     0.39493   0.14393   0.39620   0.00000  Uiso   1.00
C27    C     0.78817   0.82787   0.23197   0.00000  Uiso   1.00
F28    F     0.47290   0.15048   0.45050   0.00000  Uiso   1.00
F29    F     0.81516   0.86997   0.26397   0.00000  Uiso   1.00
F30    F     0.78777   0.80225   0.35337   0.00000  Uiso   1.00
Ag31   Ag    0.98414   0.47938   0.82725   0.00000  Uiso   1.00
O32    O     0.66079   0.00021   0.90937   0.00000  Uiso   1.00
N33    N     0.00356   0.53839   0.67723   0.00000  Uiso   1.00
N34    N     0.86311   0.60944   0.72963   0.00000  Uiso   1.00
C35    C     0.03870   0.55211   0.58253   0.00000  Uiso   1.00
H36    H     0.05357   0.53583   0.58033   0.00000  Uiso   1.00
C37    C     0.72067   0.92240   0.82147   0.00000  Uiso   1.00
H38    H     0.41200   0.26420   0.09000   0.00000  Uiso   1.00
C39    C     0.69924   0.94680   0.82387   0.00000  Uiso   1.00
H40    H     0.70933   0.97227   0.76197   0.00000  Uiso   1.00
C41    C     0.66225   0.93293   0.91997   0.00000  Uiso   1.00
C42    C     0.98229   0.56183   0.67833   0.00000  Uiso   1.00
H43    H     0.95757   0.55243   0.74333   0.00000  Uiso   1.00
C44    C     0.63945   0.96001   0.92827   0.00000  Uiso   1.00
C45    C     0.92388   0.60377   0.62213   0.00000  Uiso   1.00
C46    C     0.56132   0.89588   0.89317   0.00000  Uiso   1.00
H47    H     0.57183   0.87997   0.83637   0.00000  Uiso   1.00
C48    C     0.84958   0.54539   0.58333   0.00000  Uiso   1.00
H49    H     0.82907   0.51773   0.54133   0.00000  Uiso   1.00
C50    C     0.83521   0.56928   0.66913   0.00000  Uiso   1.00
H51    H     0.80467   0.55703   0.68613   0.00000  Uiso   1.00
C52    C     0.90662   0.62608   0.70533   0.00000  Uiso   1.00
H53    H     0.92647   0.65413   0.74633   0.00000  Uiso   1.00
C54    C     0.07428   0.48540   0.86523   0.00000  Uiso   1.00
O55    O     0.38795   0.15464   0.64630   0.00000  Uiso   1.00
O56    O     0.06160   0.47726   0.72953   0.00000  Uiso   1.00
C57    C     0.45484   0.16120   0.56530   0.00000  Uiso   1.00
F58    F     0.13957   0.48381   0.78383   0.00000  Uiso   1.00
F59    F     0.48183   0.20330   0.59730   0.00000  Uiso   1.00
F60    F     0.45444   0.13558   0.68670   0.00000  Uiso   1.00
Ag61   Ag    0.65081   0.81271   0.16058   0.00000  Uiso   1.00
O62    O     0.32746   0.33354   0.24270   0.00000  Uiso   1.00
N63    N     0.67022   0.87173   0.01057   0.00000  Uiso   1.00
N64    N     0.52977   0.94278   0.06297   0.00000  Uiso   1.00
C65    C     0.70536   0.88545   0.91587   0.00000  Uiso   1.00
H66    H     0.72023   0.86917   0.91367   0.00000  Uiso   1.00
C67    C     0.38734   0.25573   0.15480   0.00000  Uiso   1.00
H68    H     0.07867   0.59753   0.42333   0.00000  Uiso   1.00
C69    C     0.36591   0.28013   0.15720   0.00000  Uiso   1.00
H70    H     0.37600   0.30560   0.09530   0.00000  Uiso   1.00
C71    C     0.32892   0.26626   0.25330   0.00000  Uiso   1.00
C72    C     0.64895   0.89517   0.01167   0.00000  Uiso   1.00
H73    H     0.62423   0.88577   0.07667   0.00000  Uiso   1.00
C74    C     0.30612   0.29334   0.26160   0.00000  Uiso   1.00
C75    C     0.59054   0.93711   0.95547   0.00000  Uiso   1.00
C76    C     0.22799   0.22921   0.22650   0.00000  Uiso   1.00
H77    H     0.23850   0.21330   0.16970   0.00000  Uiso   1.00
C78    C     0.51624   0.87873   0.91667   0.00000  Uiso   1.00
H79    H     0.49573   0.85107   0.87467   0.00000  Uiso   1.00
C80    C     0.50187   0.90262   0.00247   0.00000  Uiso   1.00
H81    H     0.47133   0.89037   0.01947   0.00000  Uiso   1.00
C82    C     0.57328   0.95942   0.03867   0.00000  Uiso   1.00
H83    H     0.59313   0.98747   0.07967   0.00000  Uiso   1.00
C84    C     0.74094   0.81874   0.19857   0.00000  Uiso   1.00
O85    O     0.05462   0.48797   0.97963   0.00000  Uiso   1.00
O86    O     0.72826   0.81060   0.06287   0.00000  Uiso   1.00
C87    C     0.12151   0.49453   0.89863   0.00000  Uiso   1.00
F88    F     0.80623   0.81715   0.11717   0.00000  Uiso   1.00
F89    F     0.14850   0.53663   0.93063   0.00000  Uiso   1.00
F90    F     0.12111   0.46891   1.02003   0.00000  Uiso   1.00
Ag91   Ag    0.85395   0.17143   0.49392   0.00000  Uiso   1.00
O92    O     0.33313   0.32725   0.57603   0.00000  Uiso   1.00
N93    N     0.79494   0.13183   0.34390   0.00000  Uiso   1.00
N94    N     0.72389   0.92033   0.39630   0.00000  Uiso   1.00
C95    C     0.78122   0.15325   0.24920   0.00000  Uiso   1.00
H96    H     0.79750   0.18440   0.24700   0.00000  Uiso   1.00
C97    C     0.41094   0.46494   0.48813   0.00000  Uiso   1.00
H98    H     0.06913   0.81447   0.75667   0.00000  Uiso   1.00
C99    C     0.38654   0.41911   0.49053   0.00000  Uiso   1.00
H100   H     0.36107   0.40373   0.42863   0.00000  Uiso   1.00
C101   C     0.40041   0.39599   0.58663   0.00000  Uiso   1.00
C102   C     0.77150   0.08712   0.34500   0.00000  Uiso   1.00
H103   H     0.78090   0.07180   0.41000   0.00000  Uiso   1.00
C104   C     0.37333   0.34611   0.59493   0.00000  Uiso   1.00
C105   C     0.72956   0.98677   0.28880   0.00000  Uiso   1.00
C106   C     0.43746   0.33211   0.55983   0.00000  Uiso   1.00
H107   H     0.45337   0.35853   0.50303   0.00000  Uiso   1.00
C108   C     0.78794   0.97085   0.25000   0.00000  Uiso   1.00
H109   H     0.81560   0.97800   0.20800   0.00000  Uiso   1.00
C110   C     0.76405   0.93259   0.33580   0.00000  Uiso   1.00
H111   H     0.77630   0.91430   0.35280   0.00000  Uiso   1.00
C112   C     0.70725   0.94720   0.37200   0.00000  Uiso   1.00
H113   H     0.67920   0.93900   0.41300   0.00000  Uiso   1.00
C114   C     0.84793   0.25554   0.53190   0.00000  Uiso   1.00
O115   O     0.17869   0.89998   0.31297   0.00000  Uiso   1.00
O116   O     0.85607   0.25100   0.39620   0.00000  Uiso   1.00
C117   C     0.17213   0.96031   0.23197   0.00000  Uiso   1.00
F118   F     0.84952   0.32242   0.45050   0.00000  Uiso   1.00
F119   F     0.13003   0.94520   0.26397   0.00000  Uiso   1.00
F120   F     0.19775   0.98553   0.35337   0.00000  Uiso   1.00
Ag121  Ag    0.52062   0.50476   0.82725   0.00000  Uiso   1.00
O122   O     0.99979   0.66059   0.90937   0.00000  Uiso   1.00
N123   N     0.46161   0.46516   0.67723   0.00000  Uiso   1.00
N124   N     0.39056   0.25366   0.72963   0.00000  Uiso   1.00
C125   C     0.44789   0.48658   0.58253   0.00000  Uiso   1.00
H126   H     0.46417   0.51773   0.58033   0.00000  Uiso   1.00
C127   C     0.07760   0.79828   0.82147   0.00000  Uiso   1.00
H128   H     0.73580   0.14780   0.09000   0.00000  Uiso   1.00
C129   C     0.05320   0.75245   0.82387   0.00000  Uiso   1.00
H130   H     0.02773   0.73707   0.76197   0.00000  Uiso   1.00
C131   C     0.06707   0.72933   0.91997   0.00000  Uiso   1.00
C132   C     0.43817   0.42045   0.67833   0.00000  Uiso   1.00
H133   H     0.44757   0.40513   0.74333   0.00000  Uiso   1.00
C134   C     0.03999   0.67945   0.92827   0.00000  Uiso   1.00
C135   C     0.39623   0.32010   0.62213   0.00000  Uiso   1.00
C136   C     0.10412   0.66545   0.89317   0.00000  Uiso   1.00
H137   H     0.12003   0.69187   0.83637   0.00000  Uiso   1.00
C138   C     0.45461   0.30418   0.58333   0.00000  Uiso   1.00
H139   H     0.48227   0.31133   0.54133   0.00000  Uiso   1.00
C140   C     0.43072   0.26592   0.66913   0.00000  Uiso   1.00
H141   H     0.44297   0.24763   0.68613   0.00000  Uiso   1.00
C142   C     0.37392   0.28053   0.70533   0.00000  Uiso   1.00
H143   H     0.34587   0.27233   0.74633   0.00000  Uiso   1.00
C144   C     0.51460   0.58887   0.86523   0.00000  Uiso   1.00
O145   O     0.84536   0.23331   0.64630   0.00000  Uiso   1.00
O146   O     0.52274   0.58433   0.72953   0.00000  Uiso   1.00
C147   C     0.83880   0.29364   0.56530   0.00000  Uiso   1.00
F148   F     0.51619   0.65575   0.78383   0.00000  Uiso   1.00
F149   F     0.79670   0.27853   0.59730   0.00000  Uiso   1.00
F150   F     0.86442   0.31886   0.68670   0.00000  Uiso   1.00
Ag151  Ag    0.18729   0.83809   0.16058   0.00000  Uiso   1.00
O152   O     0.66646   0.99392   0.24270   0.00000  Uiso   1.00
N153   N     0.12827   0.79850   0.01057   0.00000  Uiso   1.00
N154   N     0.05722   0.58700   0.06297   0.00000  Uiso   1.00
C155   C     0.11455   0.81992   0.91587   0.00000  Uiso   1.00
H156   H     0.13083   0.85107   0.91367   0.00000  Uiso   1.00
C157   C     0.74427   0.13161   0.15480   0.00000  Uiso   1.00
H158   H     0.40247   0.48113   0.42333   0.00000  Uiso   1.00
C159   C     0.71987   0.08578   0.15720   0.00000  Uiso   1.00
H160   H     0.69440   0.07040   0.09530   0.00000  Uiso   1.00
C161   C     0.73374   0.06266   0.25330   0.00000  Uiso   1.00
C162   C     0.10483   0.75379   0.01167   0.00000  Uiso   1.00
H163   H     0.11423   0.73847   0.07667   0.00000  Uiso   1.00
C164   C     0.70666   0.01278   0.26160   0.00000  Uiso   1.00
C165   C     0.06289   0.65344   0.95547   0.00000  Uiso   1.00
C166   C     0.77079   0.99878   0.22650   0.00000  Uiso   1.00
H167   H     0.78670   0.02520   0.16970   0.00000  Uiso   1.00
C168   C     0.12127   0.63752   0.91667   0.00000  Uiso   1.00
H169   H     0.14893   0.64467   0.87467   0.00000  Uiso   1.00
C170   C     0.09738   0.59926   0.00247   0.00000  Uiso   1.00
H171   H     0.10963   0.58097   0.01947   0.00000  Uiso   1.00
C172   C     0.04058   0.61387   0.03867   0.00000  Uiso   1.00
H173   H     0.01253   0.60567   0.07967   0.00000  Uiso   1.00
C174   C     0.18126   0.92221   0.19857   0.00000  Uiso   1.00
O175   O     0.51203   0.56664   0.97963   0.00000  Uiso   1.00
O176   O     0.18940   0.91767   0.06287   0.00000  Uiso   1.00
C177   C     0.50547   0.62697   0.89863   0.00000  Uiso   1.00
F178   F     0.18285   0.98909   0.11717   0.00000  Uiso   1.00
F179   F     0.46337   0.61186   0.93063   0.00000  Uiso   1.00
F180   F     0.53109   0.65219   1.02003   0.00000  Uiso   1.00
Ag181  Ag    0.82857   0.68253   0.49392   0.00000  Uiso   1.00
O182   O     0.67275   0.00587   0.57603   0.00000  Uiso   1.00
N183   N     0.86817   0.66311   0.34390   0.00000  Uiso   1.00
N184   N     0.07967   0.80356   0.39630   0.00000  Uiso   1.00
C185   C     0.84675   0.62797   0.24920   0.00000  Uiso   1.00
H186   H     0.81560   0.61310   0.24700   0.00000  Uiso   1.00
C187   C     0.53506   0.94599   0.48813   0.00000  Uiso   1.00
H188   H     0.18553   0.25467   0.75667   0.00000  Uiso   1.00
C189   C     0.58089   0.96742   0.49053   0.00000  Uiso   1.00
H190   H     0.59627   0.95733   0.42863   0.00000  Uiso   1.00
C191   C     0.60401   0.00441   0.58663   0.00000  Uiso   1.00
C192   C     0.91288   0.68438   0.34500   0.00000  Uiso   1.00
H193   H     0.92820   0.70910   0.41000   0.00000  Uiso   1.00
C194   C     0.65389   0.02721   0.59493   0.00000  Uiso   1.00
C195   C     0.01323   0.74279   0.28880   0.00000  Uiso   1.00
C196   C     0.66789   0.10534   0.55983   0.00000  Uiso   1.00
H197   H     0.64147   0.09483   0.50303   0.00000  Uiso   1.00
C198   C     0.02915   0.81709   0.25000   0.00000  Uiso   1.00
H199   H     0.02200   0.83760   0.20800   0.00000  Uiso   1.00
C200   C     0.06741   0.83146   0.33580   0.00000  Uiso   1.00
H201   H     0.08570   0.86200   0.35280   0.00000  Uiso   1.00
C202   C     0.05280   0.76005   0.37200   0.00000  Uiso   1.00
H203   H     0.06100   0.74020   0.41300   0.00000  Uiso   1.00
C204   C     0.74446   0.59239   0.53190   0.00000  Uiso   1.00
O205   O     0.10002   0.27872   0.31297   0.00000  Uiso   1.00
O206   O     0.74900   0.60507   0.39620   0.00000  Uiso   1.00
C207   C     0.03969   0.21183   0.23197   0.00000  Uiso   1.00
F208   F     0.67758   0.52710   0.45050   0.00000  Uiso   1.00
F209   F     0.05480   0.18484   0.26397   0.00000  Uiso   1.00
F210   F     0.01447   0.21223   0.35337   0.00000  Uiso   1.00
Ag211  Ag    0.49524   0.01586   0.82725   0.00000  Uiso   1.00
O212   O     0.33941   0.33921   0.90937   0.00000  Uiso   1.00
N213   N     0.53484   0.99644   0.67723   0.00000  Uiso   1.00
N214   N     0.74634   0.13689   0.72963   0.00000  Uiso   1.00
C215   C     0.51342   0.96130   0.58253   0.00000  Uiso   1.00
H216   H     0.48227   0.94643   0.58033   0.00000  Uiso   1.00
C217   C     0.20172   0.27933   0.82147   0.00000  Uiso   1.00
H218   H     0.85220   0.58800   0.09000   0.00000  Uiso   1.00
C219   C     0.24755   0.30076   0.82387   0.00000  Uiso   1.00
H220   H     0.26293   0.29067   0.76197   0.00000  Uiso   1.00
C221   C     0.27067   0.33775   0.91997   0.00000  Uiso   1.00
C222   C     0.57955   0.01771   0.67833   0.00000  Uiso   1.00
H223   H     0.59487   0.04243   0.74333   0.00000  Uiso   1.00
C224   C     0.32055   0.36055   0.92827   0.00000  Uiso   1.00
C225   C     0.67990   0.07612   0.62213   0.00000  Uiso   1.00
C226   C     0.33455   0.43868   0.89317   0.00000  Uiso   1.00
H227   H     0.30813   0.42817   0.83637   0.00000  Uiso   1.00
C228   C     0.69582   0.15042   0.58333   0.00000  Uiso   1.00
H229   H     0.68867   0.17093   0.54133   0.00000  Uiso   1.00
C230   C     0.73408   0.16479   0.66913   0.00000  Uiso   1.00
H231   H     0.75237   0.19533   0.68613   0.00000  Uiso   1.00
C232   C     0.71947   0.09338   0.70533   0.00000  Uiso   1.00
H233   H     0.72767   0.07353   0.74633   0.00000  Uiso   1.00
C234   C     0.41113   0.92572   0.86523   0.00000  Uiso   1.00
O235   O     0.76669   0.61205   0.64630   0.00000  Uiso   1.00
O236   O     0.41567   0.93840   0.72953   0.00000  Uiso   1.00
C237   C     0.70636   0.54516   0.56530   0.00000  Uiso   1.00
F238   F     0.34425   0.86043   0.78383   0.00000  Uiso   1.00
F239   F     0.72147   0.51817   0.59730   0.00000  Uiso   1.00
F240   F     0.68114   0.54556   0.68670   0.00000  Uiso   1.00
Ag241  Ag    0.16191   0.34919   0.16058   0.00000  Uiso   1.00
O242   O     0.00608   0.67254   0.24270   0.00000  Uiso   1.00
N243   N     0.20150   0.32978   0.01057   0.00000  Uiso   1.00
N244   N     0.41300   0.47023   0.06297   0.00000  Uiso   1.00
C245   C     0.18008   0.29464   0.91587   0.00000  Uiso   1.00
H246   H     0.14893   0.27977   0.91367   0.00000  Uiso   1.00
C247   C     0.86839   0.61266   0.15480   0.00000  Uiso   1.00
H248   H     0.51887   0.92133   0.42333   0.00000  Uiso   1.00
C249   C     0.91422   0.63409   0.15720   0.00000  Uiso   1.00
H250   H     0.92960   0.62400   0.09530   0.00000  Uiso   1.00
C251   C     0.93734   0.67108   0.25330   0.00000  Uiso   1.00
C252   C     0.24621   0.35105   0.01167   0.00000  Uiso   1.00
H253   H     0.26153   0.37577   0.07667   0.00000  Uiso   1.00
C254   C     0.98722   0.69388   0.26160   0.00000  Uiso   1.00
C255   C     0.34656   0.40946   0.95547   0.00000  Uiso   1.00
C256   C     0.00122   0.77201   0.22650   0.00000  Uiso   1.00
H257   H     0.97480   0.76150   0.16970   0.00000  Uiso   1.00
C258   C     0.36248   0.48376   0.91667   0.00000  Uiso   1.00
H259   H     0.35533   0.50427   0.87467   0.00000  Uiso   1.00
C260   C     0.40074   0.49813   0.00247   0.00000  Uiso   1.00
H261   H     0.41903   0.52867   0.01947   0.00000  Uiso   1.00
C262   C     0.38613   0.42672   0.03867   0.00000  Uiso   1.00
H263   H     0.39433   0.40687   0.07967   0.00000  Uiso   1.00
C264   C     0.07779   0.25906   0.19857   0.00000  Uiso   1.00
O265   O     0.43336   0.94538   0.97963   0.00000  Uiso   1.00
O266   O     0.08233   0.27174   0.06287   0.00000  Uiso   1.00
C267   C     0.37303   0.87849   0.89863   0.00000  Uiso   1.00
F268   F     0.01091   0.19377   0.11717   0.00000  Uiso   1.00
F269   F     0.38814   0.85150   0.93063   0.00000  Uiso   1.00
F270   F     0.34781   0.87889   1.02003   0.00000  Uiso   1.00
Ag271  Ag    0.68253   0.85395   0.50608   0.00000  Uiso   1.00
O272   O     0.00587   0.33313   0.42397   0.00000  Uiso   1.00
N273   N     0.66311   0.79494   0.65610   0.00000  Uiso   1.00
N274   N     0.80356   0.72389   0.60370   0.00000  Uiso   1.00
C275   C     0.62797   0.78122   0.75080   0.00000  Uiso   1.00
H276   H     0.61310   0.79750   0.75300   0.00000  Uiso   1.00
C277   C     0.94599   0.41094   0.51187   0.00000  Uiso   1.00
H278   H     0.25467   0.06913   0.24333   0.00000  Uiso   1.00
C279   C     0.96742   0.38654   0.50947   0.00000  Uiso   1.00
H280   H     0.95733   0.36107   0.57137   0.00000  Uiso   1.00
C281   C     0.00441   0.40041   0.41337   0.00000  Uiso   1.00
C282   C     0.68438   0.77150   0.65500   0.00000  Uiso   1.00
H283   H     0.70910   0.78090   0.59000   0.00000  Uiso   1.00
C284   C     0.02721   0.37333   0.40507   0.00000  Uiso   1.00
C285   C     0.74279   0.72956   0.71120   0.00000  Uiso   1.00
C286   C     0.10534   0.43746   0.44017   0.00000  Uiso   1.00
H287   H     0.09483   0.45337   0.49697   0.00000  Uiso   1.00
C288   C     0.81709   0.78794   0.75000   0.00000  Uiso   1.00
H289   H     0.83760   0.81560   0.79200   0.00000  Uiso   1.00
C290   C     0.83146   0.76405   0.66420   0.00000  Uiso   1.00
H291   H     0.86200   0.77630   0.64720   0.00000  Uiso   1.00
C292   C     0.76005   0.70725   0.62800   0.00000  Uiso   1.00
H293   H     0.74020   0.67920   0.58700   0.00000  Uiso   1.00
C294   C     0.59239   0.84793   0.46810   0.00000  Uiso   1.00
O295   O     0.27872   0.17869   0.68703   0.00000  Uiso   1.00
O296   O     0.60507   0.85607   0.60380   0.00000  Uiso   1.00
C297   C     0.21183   0.17213   0.76803   0.00000  Uiso   1.00
F298   F     0.52710   0.84952   0.54950   0.00000  Uiso   1.00
F299   F     0.18484   0.13003   0.73603   0.00000  Uiso   1.00
F300   F     0.21223   0.19775   0.64663   0.00000  Uiso   1.00
Ag301  Ag    0.34919   0.18729   0.83942   0.00000  Uiso   1.00
O302   O     0.67254   0.66646   0.75730   0.00000  Uiso   1.00
N303   N     0.32978   0.12827   0.98943   0.00000  Uiso   1.00
N304   N     0.47023   0.05722   0.93703   0.00000  Uiso   1.00
C305   C     0.29464   0.11455   0.08413   0.00000  Uiso   1.00
H306   H     0.27977   0.13083   0.08633   0.00000  Uiso   1.00
C307   C     0.61266   0.74427   0.84520   0.00000  Uiso   1.00
H308   H     0.92133   0.40247   0.57667   0.00000  Uiso   1.00
C309   C     0.63409   0.71987   0.84280   0.00000  Uiso   1.00
H310   H     0.62400   0.69440   0.90470   0.00000  Uiso   1.00
C311   C     0.67108   0.73374   0.74670   0.00000  Uiso   1.00
C312   C     0.35105   0.10483   0.98833   0.00000  Uiso   1.00
H313   H     0.37577   0.11423   0.92333   0.00000  Uiso   1.00
C314   C     0.69388   0.70666   0.73840   0.00000  Uiso   1.00
C315   C     0.40946   0.06289   0.04453   0.00000  Uiso   1.00
C316   C     0.77201   0.77079   0.77350   0.00000  Uiso   1.00
H317   H     0.76150   0.78670   0.83030   0.00000  Uiso   1.00
C318   C     0.48376   0.12127   0.08333   0.00000  Uiso   1.00
H319   H     0.50427   0.14893   0.12533   0.00000  Uiso   1.00
C320   C     0.49813   0.09738   0.99753   0.00000  Uiso   1.00
H321   H     0.52867   0.10963   0.98053   0.00000  Uiso   1.00
C322   C     0.42672   0.04058   0.96133   0.00000  Uiso   1.00
H323   H     0.40687   0.01253   0.92033   0.00000  Uiso   1.00
C324   C     0.25906   0.18126   0.80143   0.00000  Uiso   1.00
O325   O     0.94538   0.51203   0.02037   0.00000  Uiso   1.00
O326   O     0.27174   0.18940   0.93713   0.00000  Uiso   1.00
C327   C     0.87849   0.50547   0.10137   0.00000  Uiso   1.00
F328   F     0.19377   0.18285   0.88283   0.00000  Uiso   1.00
F329   F     0.85150   0.46337   0.06937   0.00000  Uiso   1.00
F330   F     0.87889   0.53109  -0.02003   0.00000  Uiso   1.00
Ag331  Ag    0.01586   0.52062   0.17275   0.00000  Uiso   1.00
O332   O     0.33921   0.99979   0.09063   0.00000  Uiso   1.00
N333   N     0.99644   0.46161   0.32277   0.00000  Uiso   1.00
N334   N     0.13689   0.39056   0.27037   0.00000  Uiso   1.00
C335   C     0.96130   0.44789   0.41747   0.00000  Uiso   1.00
H336   H     0.94643   0.46417   0.41967   0.00000  Uiso   1.00
C337   C     0.27933   0.07760   0.17853   0.00000  Uiso   1.00
H338   H     0.58800   0.73580   0.91000   0.00000  Uiso   1.00
C339   C     0.30076   0.05320   0.17613   0.00000  Uiso   1.00
H340   H     0.29067   0.02773   0.23803   0.00000  Uiso   1.00
C341   C     0.33775   0.06707   0.08003   0.00000  Uiso   1.00
C342   C     0.01771   0.43817   0.32167   0.00000  Uiso   1.00
H343   H     0.04243   0.44757   0.25667   0.00000  Uiso   1.00
C344   C     0.36055   0.03999   0.07173   0.00000  Uiso   1.00
C345   C     0.07612   0.39623   0.37787   0.00000  Uiso   1.00
C346   C     0.43868   0.10412   0.10683   0.00000  Uiso   1.00
H347   H     0.42817   0.12003   0.16363   0.00000  Uiso   1.00
C348   C     0.15042   0.45461   0.41667   0.00000  Uiso   1.00
H349   H     0.17093   0.48227   0.45867   0.00000  Uiso   1.00
C350   C     0.16479   0.43072   0.33087   0.00000  Uiso   1.00
H351   H     0.19533   0.44297   0.31387   0.00000  Uiso   1.00
C352   C     0.09338   0.37392   0.29467   0.00000  Uiso   1.00
H353   H     0.07353   0.34587   0.25367   0.00000  Uiso   1.00
C354   C     0.92572   0.51460   0.13477   0.00000  Uiso   1.00
O355   O     0.61205   0.84536   0.35370   0.00000  Uiso   1.00
O356   O     0.93840   0.52274   0.27047   0.00000  Uiso   1.00
C357   C     0.54516   0.83880   0.43470   0.00000  Uiso   1.00
F358   F     0.86043   0.51619   0.21617   0.00000  Uiso   1.00
F359   F     0.51817   0.79670   0.40270   0.00000  Uiso   1.00
F360   F     0.54556   0.86442   0.31330   0.00000  Uiso   1.00
Ag361  Ag    0.14605   0.82857   0.50608   0.00000  Uiso   1.00
O362   O     0.66687   0.67275   0.42397   0.00000  Uiso   1.00
N363   N     0.20506   0.86817   0.65610   0.00000  Uiso   1.00
N364   N     0.27611   0.07967   0.60370   0.00000  Uiso   1.00
C365   C     0.21878   0.84675   0.75080   0.00000  Uiso   1.00
H366   H     0.20250   0.81560   0.75300   0.00000  Uiso   1.00
C367   C     0.58906   0.53506   0.51187   0.00000  Uiso   1.00
H368   H     0.93087   0.18553   0.24333   0.00000  Uiso   1.00
C369   C     0.61346   0.58089   0.50947   0.00000  Uiso   1.00
H370   H     0.63893   0.59627   0.57137   0.00000  Uiso   1.00
C371   C     0.59959   0.60401   0.41337   0.00000  Uiso   1.00
C372   C     0.22850   0.91288   0.65500   0.00000  Uiso   1.00
H373   H     0.21910   0.92820   0.59000   0.00000  Uiso   1.00
C374   C     0.62667   0.65389   0.40507   0.00000  Uiso   1.00
C375   C     0.27044   0.01323   0.71120   0.00000  Uiso   1.00
C376   C     0.56254   0.66789   0.44017   0.00000  Uiso   1.00
H377   H     0.54663   0.64147   0.49697   0.00000  Uiso   1.00
C378   C     0.21206   0.02915   0.75000   0.00000  Uiso   1.00
H379   H     0.18440   0.02200   0.79200   0.00000  Uiso   1.00
C380   C     0.23595   0.06741   0.66420   0.00000  Uiso   1.00
H381   H     0.22370   0.08570   0.64720   0.00000  Uiso   1.00
C382   C     0.29275   0.05280   0.62800   0.00000  Uiso   1.00
H383   H     0.32080   0.06100   0.58700   0.00000  Uiso   1.00
C384   C     0.15207   0.74446   0.46810   0.00000  Uiso   1.00
O385   O     0.82131   0.10002   0.68703   0.00000  Uiso   1.00
O386   O     0.14393   0.74900   0.60380   0.00000  Uiso   1.00
C387   C     0.82787   0.03969   0.76803   0.00000  Uiso   1.00
F388   F     0.15048   0.67758   0.54950   0.00000  Uiso   1.00
F389   F     0.86997   0.05480   0.73603   0.00000  Uiso   1.00
F390   F     0.80225   0.01447   0.64663   0.00000  Uiso   1.00
Ag391  Ag    0.81271   0.16191   0.83942   0.00000  Uiso   1.00
O392   O     0.33354   0.00608   0.75730   0.00000  Uiso   1.00
N393   N     0.87173   0.20150   0.98943   0.00000  Uiso   1.00
N394   N     0.94278   0.41300   0.93703   0.00000  Uiso   1.00
C395   C     0.88545   0.18008   0.08413   0.00000  Uiso   1.00
H396   H     0.86917   0.14893   0.08633   0.00000  Uiso   1.00
C397   C     0.25573   0.86839   0.84520   0.00000  Uiso   1.00
H398   H     0.59753   0.51887   0.57667   0.00000  Uiso   1.00
C399   C     0.28013   0.91422   0.84280   0.00000  Uiso   1.00
H400   H     0.30560   0.92960   0.90470   0.00000  Uiso   1.00
C401   C     0.26626   0.93734   0.74670   0.00000  Uiso   1.00
C402   C     0.89517   0.24621   0.98833   0.00000  Uiso   1.00
H403   H     0.88577   0.26153   0.92333   0.00000  Uiso   1.00
C404   C     0.29334   0.98722   0.73840   0.00000  Uiso   1.00
C405   C     0.93711   0.34656   0.04453   0.00000  Uiso   1.00
C406   C     0.22921   0.00122   0.77350   0.00000  Uiso   1.00
H407   H     0.21330   0.97480   0.83030   0.00000  Uiso   1.00
C408   C     0.87873   0.36248   0.08333   0.00000  Uiso   1.00
H409   H     0.85107   0.35533   0.12533   0.00000  Uiso   1.00
C410   C     0.90262   0.40074   0.99753   0.00000  Uiso   1.00
H411   H     0.89037   0.41903   0.98053   0.00000  Uiso   1.00
C412   C     0.95942   0.38613   0.96133   0.00000  Uiso   1.00
H413   H     0.98747   0.39433   0.92033   0.00000  Uiso   1.00
C414   C     0.81874   0.07779   0.80143   0.00000  Uiso   1.00
O415   O     0.48797   0.43336   0.02037   0.00000  Uiso   1.00
O416   O     0.81060   0.08233   0.93713   0.00000  Uiso   1.00
C417   C     0.49453   0.37303   0.10137   0.00000  Uiso   1.00
F418   F     0.81715   0.01091   0.88283   0.00000  Uiso   1.00
F419   F     0.53663   0.38814   0.06937   0.00000  Uiso   1.00
F420   F     0.46891   0.34781  -0.02003   0.00000  Uiso   1.00
Ag421  Ag    0.47938   0.49524   0.17275   0.00000  Uiso   1.00
O422   O     0.00021   0.33941   0.09063   0.00000  Uiso   1.00
N423   N     0.53839   0.53484   0.32277   0.00000  Uiso   1.00
N424   N     0.60944   0.74634   0.27037   0.00000  Uiso   1.00
C425   C     0.55211   0.51342   0.41747   0.00000  Uiso   1.00
H426   H     0.53583   0.48227   0.41967   0.00000  Uiso   1.00
C427   C     0.92240   0.20172   0.17853   0.00000  Uiso   1.00
H428   H     0.26420   0.85220   0.91000   0.00000  Uiso   1.00
C429   C     0.94680   0.24755   0.17613   0.00000  Uiso   1.00
H430   H     0.97227   0.26293   0.23803   0.00000  Uiso   1.00
C431   C     0.93293   0.27067   0.08003   0.00000  Uiso   1.00
C432   C     0.56183   0.57955   0.32167   0.00000  Uiso   1.00
H433   H     0.55243   0.59487   0.25667   0.00000  Uiso   1.00
C434   C     0.96001   0.32055   0.07173   0.00000  Uiso   1.00
C435   C     0.60377   0.67990   0.37787   0.00000  Uiso   1.00
C436   C     0.89588   0.33455   0.10683   0.00000  Uiso   1.00
H437   H     0.87997   0.30813   0.16363   0.00000  Uiso   1.00
C438   C     0.54539   0.69582   0.41667   0.00000  Uiso   1.00
H439   H     0.51773   0.68867   0.45867   0.00000  Uiso   1.00
C440   C     0.56928   0.73408   0.33087   0.00000  Uiso   1.00
H441   H     0.55703   0.75237   0.31387   0.00000  Uiso   1.00
C442   C     0.62608   0.71947   0.29467   0.00000  Uiso   1.00
H443   H     0.65413   0.72767   0.25367   0.00000  Uiso   1.00
C444   C     0.48540   0.41113   0.13477   0.00000  Uiso   1.00
O445   O     0.15464   0.76669   0.35370   0.00000  Uiso   1.00
O446   O     0.47726   0.41567   0.27047   0.00000  Uiso   1.00
C447   C     0.16120   0.70636   0.43470   0.00000  Uiso   1.00
F448   F     0.48381   0.34425   0.21617   0.00000  Uiso   1.00
F449   F     0.20330   0.72147   0.40270   0.00000  Uiso   1.00
F450   F     0.13558   0.68114   0.31330   0.00000  Uiso   1.00
Ag451  Ag    0.17143   0.31747   0.50608   0.00000  Uiso   1.00
O452   O     0.32725   0.99413   0.42397   0.00000  Uiso   1.00
N453   N     0.13183   0.33689   0.65610   0.00000  Uiso   1.00
N454   N     0.92033   0.19644   0.60370   0.00000  Uiso   1.00
C455   C     0.15325   0.37203   0.75080   0.00000  Uiso   1.00
H456   H     0.18440   0.38690   0.75300   0.00000  Uiso   1.00
C457   C     0.46494   0.05401   0.51187   0.00000  Uiso   1.00
H458   H     0.81447   0.74533   0.24333   0.00000  Uiso   1.00
C459   C     0.41911   0.03258   0.50947   0.00000  Uiso   1.00
H460   H     0.40373   0.04267   0.57137   0.00000  Uiso   1.00
C461   C     0.39599   0.99559   0.41337   0.00000  Uiso   1.00
C462   C     0.08712   0.31562   0.65500   0.00000  Uiso   1.00
H463   H     0.07180   0.29090   0.59000   0.00000  Uiso   1.00
C464   C     0.34611   0.97279   0.40507   0.00000  Uiso   1.00
C465   C     0.98677   0.25721   0.71120   0.00000  Uiso   1.00
C466   C     0.33211   0.89466   0.44017   0.00000  Uiso   1.00
H467   H     0.35853   0.90517   0.49697   0.00000  Uiso   1.00
C468   C     0.97085   0.18291   0.75000   0.00000  Uiso   1.00
H469   H     0.97800   0.16240   0.79200   0.00000  Uiso   1.00
C470   C     0.93259   0.16854   0.66420   0.00000  Uiso   1.00
H471   H     0.91430   0.13800   0.64720   0.00000  Uiso   1.00
C472   C     0.94720   0.23995   0.62800   0.00000  Uiso   1.00
H473   H     0.93900   0.25980   0.58700   0.00000  Uiso   1.00
C474   C     0.25554   0.40761   0.46810   0.00000  Uiso   1.00
O475   O     0.89998   0.72128   0.68703   0.00000  Uiso   1.00
O476   O     0.25100   0.39493   0.60380   0.00000  Uiso   1.00
C477   C     0.96031   0.78817   0.76803   0.00000  Uiso   1.00
F478   F     0.32242   0.47290   0.54950   0.00000  Uiso   1.00
F479   F     0.94520   0.81516   0.73603   0.00000  Uiso   1.00
F480   F     0.98553   0.78777   0.64663   0.00000  Uiso   1.00
Ag481  Ag    0.83809   0.65081   0.83942   0.00000  Uiso   1.00
O482   O     0.99392   0.32746   0.75730   0.00000  Uiso   1.00
N483   N     0.79850   0.67022   0.98943   0.00000  Uiso   1.00
N484   N     0.58700   0.52977   0.93703   0.00000  Uiso   1.00
C485   C     0.81992   0.70536   0.08413   0.00000  Uiso   1.00
H486   H     0.85107   0.72023   0.08633   0.00000  Uiso   1.00
C487   C     0.13161   0.38734   0.84520   0.00000  Uiso   1.00
H488   H     0.48113   0.07867   0.57667   0.00000  Uiso   1.00
C489   C     0.08578   0.36591   0.84280   0.00000  Uiso   1.00
H490   H     0.07040   0.37600   0.90470   0.00000  Uiso   1.00
C491   C     0.06266   0.32892   0.74670   0.00000  Uiso   1.00
C492   C     0.75379   0.64895   0.98833   0.00000  Uiso   1.00
H493   H     0.73847   0.62423   0.92333   0.00000  Uiso   1.00
C494   C     0.01278   0.30612   0.73840   0.00000  Uiso   1.00
C495   C     0.65344   0.59054   0.04453   0.00000  Uiso   1.00
C496   C     0.99878   0.22799   0.77350   0.00000  Uiso   1.00
H497   H     0.02520   0.23850   0.83030   0.00000  Uiso   1.00
C498   C     0.63752   0.51624   0.08333   0.00000  Uiso   1.00
H499   H     0.64467   0.49573   0.12533   0.00000  Uiso   1.00
C500   C     0.59926   0.50187   0.99753   0.00000  Uiso   1.00
H501   H     0.58097   0.47133   0.98053   0.00000  Uiso   1.00
C502   C     0.61387   0.57328   0.96133   0.00000  Uiso   1.00
H503   H     0.60567   0.59313   0.92033   0.00000  Uiso   1.00
C504   C     0.92221   0.74094   0.80143   0.00000  Uiso   1.00
O505   O     0.56664   0.05462   0.02037   0.00000  Uiso   1.00
O506   O     0.91767   0.72826   0.93713   0.00000  Uiso   1.00
C507   C     0.62697   0.12151   0.10137   0.00000  Uiso   1.00
F508   F     0.98909   0.80623   0.88283   0.00000  Uiso   1.00
F509   F     0.61186   0.14850   0.06937   0.00000  Uiso   1.00
F510   F     0.65219   0.12111  -0.02003   0.00000  Uiso   1.00
Ag511  Ag    0.50476   0.98414   0.17275   0.00000  Uiso   1.00
O512   O     0.66059   0.66079   0.09063   0.00000  Uiso   1.00
N513   N     0.46516   0.00356   0.32277   0.00000  Uiso   1.00
N514   N     0.25366   0.86311   0.27037   0.00000  Uiso   1.00
C515   C     0.48658   0.03870   0.41747   0.00000  Uiso   1.00
H516   H     0.51773   0.05357   0.41967   0.00000  Uiso   1.00
C517   C     0.79828   0.72067   0.17853   0.00000  Uiso   1.00
H518   H     0.14780   0.41200   0.91000   0.00000  Uiso   1.00
C519   C     0.75245   0.69924   0.17613   0.00000  Uiso   1.00
H520   H     0.73707   0.70933   0.23803   0.00000  Uiso   1.00
C521   C     0.72933   0.66225   0.08003   0.00000  Uiso   1.00
C522   C     0.42045   0.98229   0.32167   0.00000  Uiso   1.00
H523   H     0.40513   0.95757   0.25667   0.00000  Uiso   1.00
C524   C     0.67945   0.63945   0.07173   0.00000  Uiso   1.00
C525   C     0.32010   0.92388   0.37787   0.00000  Uiso   1.00
C526   C     0.66545   0.56132   0.10683   0.00000  Uiso   1.00
H527   H     0.69187   0.57183   0.16363   0.00000  Uiso   1.00
C528   C     0.30418   0.84958   0.41667   0.00000  Uiso   1.00
H529   H     0.31133   0.82907   0.45867   0.00000  Uiso   1.00
C530   C     0.26592   0.83521   0.33087   0.00000  Uiso   1.00
H531   H     0.24763   0.80467   0.31387   0.00000  Uiso   1.00
C532   C     0.28053   0.90662   0.29467   0.00000  Uiso   1.00
H533   H     0.27233   0.92647   0.25367   0.00000  Uiso   1.00
C534   C     0.58887   0.07428   0.13477   0.00000  Uiso   1.00
O535   O     0.23331   0.38795   0.35370   0.00000  Uiso   1.00
O536   O     0.58433   0.06160   0.27047   0.00000  Uiso   1.00
C537   C     0.29364   0.45484   0.43470   0.00000  Uiso   1.00
F538   F     0.65575   0.13957   0.21617   0.00000  Uiso   1.00
F539   F     0.27853   0.48183   0.40270   0.00000  Uiso   1.00
F540   F     0.31886   0.45444   0.31330   0.00000  Uiso   1.00
loop_
_geom_bond_atom_site_label_1
_geom_bond_atom_site_label_2
_geom_bond_distance
_geom_bond_site_symmetry_2
_ccdc_geom_bond_type
Ag1    N3      2.207   .     S
Ag1    Ag301   3.214   .     S
Ag1    N364    2.213   .     S
O2     C14     1.214   .     D
N3     C5      1.332   .     A
N3     C12     1.338   .     A
N4     C20     1.335   .     A
N4     C22     1.330   .     A
N4     Ag451   2.212   .     S
C5     H6      0.932   .     S
C5     C67     1.371   .     A
C7     C35     1.371   .     A
C7     H68     0.931   .     S
C7     C9      1.372   .     A
H8     C37     0.931   .     S
C9     H10     0.931   .     S
C9     C11     1.385   1_455 S
C11    C42     1.387   .     A
C11    C14     1.495   .     S
C11    C9      1.385   1_655 S
C12    C71     1.387   .     A
C12    H13     0.929   .     S
C14    C45     1.482   .     S
C15    C74     1.482   .     S
C15    C76     1.375   .     A
C15    C22     1.382   .     A
C16    C45     1.375   .     A
C16    H17     0.931   .     S
C16    C48     1.376   .     A
C18    C76     1.376   .     A
C18    H19     0.930   .     S
C18    C20     1.368   .     A
C20    H21     0.931   .     S
C22    H23     0.931   .     S
C24    O55     1.216   .     A
C24    O26     1.218   .     A
C24    C57     1.525   .     S
O25    C84     1.216   .     A
C27    C84     1.525   .     S
C27    F88     1.309   .     S
C27    F29     1.305   .     S
C27    F30     1.356   .     S
F28    C57     1.309   .     S
Ag31   N394    2.213   .     S
Ag31   N33     2.207   1_655 S
Ag31   Ag331   3.214   1_656 D
O32    C44     1.214   1_545 A
N33    C35     1.332   .     A
N33    Ag31    2.207   1_455 S
N33    C42     1.338   1_455 A
N34    C50     1.335   .     A
N34    C52     1.330   .     A
N34    Ag481   2.213   .     S
C35    H36     0.932   .     S
C37    C65     1.371   .     A
C37    C39     1.372   .     A
H38    C67     0.931   .     S
C39    H40     0.931   .     S
C39    C41     1.385   .     A
C41    C44     1.495   .     S
C41    C72     1.387   1_556 A
C42    H43     0.929   .     S
C42    N33     1.338   1_655 A
C44    C75     1.482   .     S
C44    O32     1.214   1_565 A
C45    C52     1.382   .     A
C46    C75     1.375   .     A
C46    H47     0.931   .     S
C46    C78     1.376   .     A
C48    H49     0.930   .     S
C48    C50     1.368   .     A
C50    H51     0.931   .     S
C52    H53     0.931   .     S
C54    O85     1.216   .     A
C54    O56     1.218   .     A
C54    C87     1.525   .     S
C57    F59     1.305   .     S
C57    F60     1.356   .     S
F58    C87     1.309   .     S
Ag61   N63     2.207   .     S
Ag61   Ag271   3.214   .     S
Ag61   N424    2.213   .     S
O62    C74     1.214   .     D
N63    C72     1.338   .     A
N63    C65     1.332   1_554 A
N64    C80     1.335   .     A
N64    C82     1.330   .     A
N64    Ag511   2.212   .     S
C65    H66     0.932   .     S
C65    N63     1.332   1_556 A
C67    C69     1.372   .     A
C69    H70     0.931   .     S
C69    C71     1.385   .     A
C71    C74     1.495   .     S
C72    H73     0.929   .     S
C72    C41     1.387   1_554 A
C75    C82     1.382   1_556 A
C76    H77     0.931   .     S
C78    H79     0.930   .     S
C78    C80     1.368   1_556 S
C80    H81     0.931   .     S
C80    C78     1.368   1_554 S
C82    H83     0.931   .     S
C82    C75     1.382   1_554 A
C84    O86     1.218   .     A
C87    F89     1.305   .     S
C87    F90     1.356   .     S
Ag91   N93     2.207   .     S
Ag91   Ag391   3.214   .     S
Ag91   N454    2.213   .     S
O92    C104    1.214   .     D
N93    C95     1.332   .     A
N93    C102    1.338   .     A
N94    C110    1.335   .     A
N94    C112    1.330   .     A
N94    Ag271   2.213   .     S
C95    H96     0.932   .     S
C95    C157    1.371   .     A
C97    C125    1.371   .     A
C97    H158    0.931   .     S
C97    C99     1.372   .     A
H98    C127    0.931   .     S
C99    H100    0.931   .     S
C99    C101    1.385   .     A
C101   C132    1.387   .     A
C101   C104    1.495   .     S
C102   C161    1.387   .     A
C102   H103    0.929   .     S
C104   C135    1.482   .     S
C105   C166    1.375   .     A
C105   C112    1.382   .     A
C105   C164    1.482   1_565 S
C106   C135    1.375   .     A
C106   H107    0.931   .     S
C106   C138    1.376   .     A
C108   C166    1.376   .     A
C108   H109    0.930   .     S
C108   C110    1.368   .     A
C110   H111    0.931   .     S
C112   H113    0.931   .     S
C114   O145    1.216   .     A
C114   O116    1.218   .     A
C114   C147    1.525   .     S
O115   C174    1.216   .     A
C117   C174    1.525   .     S
C117   F178    1.309   .     S
C117   F119    1.305   .     S
C117   F120    1.356   .     S
F118   C147    1.309   .     S
Ag121  N123    2.207   .     S
Ag121  N484    2.213   .     S
Ag121  Ag421   3.214   1_556 A
O122   C134    1.214   1_655 S
N123   C125    1.332   .     A
N123   C132    1.338   .     A
N124   C140    1.335   .     A
N124   C142    1.330   .     A
N124   Ag301   2.213   .     S
C125   H126    0.932   .     S
C127   C155    1.371   .     A
C127   C129    1.372   .     A
H128   C157    0.931   .     S
C129   H130    0.931   .     S
C129   C131    1.385   .     A
C131   C134    1.495   .     S
C131   C162    1.387   1_556 S
C132   H133    0.929   .     S
C134   C165    1.482   .     S
C134   O122    1.214   1_455 S
C135   C142    1.382   .     A
C136   C165    1.375   .     A
C136   H137    0.931   .     S
C136   C168    1.376   .     A
C138   H139    0.930   .     S
C138   C140    1.368   .     A
C140   H141    0.931   .     S
C142   H143    0.931   .     S
C144   O175    1.216   .     A
C144   O146    1.218   .     A
C144   C177    1.525   .     S
C147   F149    1.305   .     S
C147   F150    1.356   .     S
F148   C177    1.309   .     S
Ag151  N153    2.207   .     S
Ag151  Ag361   3.214   .     S
Ag151  N514    2.212   .     S
O152   C164    1.214   1_565 A
N153   C162    1.338   .     A
N153   C155    1.332   1_554 A
N154   C170    1.335   .     A
N154   C172    1.330   .     A
N154   Ag331   2.213   .     S
C155   H156    0.932   .     S
C155   N153    1.332   1_556 A
C157   C159    1.372   .     A
C159   H160    0.931   .     S
C159   C161    1.385   .     A
C161   C164    1.495   .     S
C162   H163    0.929   .     S
C162   C131    1.387   1_554 S
C164   C105    1.482   1_545 S
C164   O152    1.214   1_545 A
C165   C172    1.382   1_556 S
C166   H167    0.931   1_565 A
H167   C166    0.931   1_545 A
C168   H169    0.930   .     S
C168   C170    1.368   1_556 S
C170   H171    0.931   .     S
C170   C168    1.368   1_554 S
C172   H173    0.931   .     S
C172   C165    1.382   1_554 S
C174   O176    1.218   .     A
C177   F179    1.305   .     S
C177   F180    1.356   .     S
Ag181  N183    2.207   .     S
Ag181  Ag481   3.214   .     S
Ag181  N274    2.212   .     S
O182   C194    1.214   .     D
N183   C185    1.332   .     A
N183   C192    1.338   .     A
N184   C200    1.335   .     A
N184   C202    1.330   .     A
N184   Ag361   2.213   .     S
C185   H186    0.932   .     S
C185   C247    1.371   .     A
C187   C215    1.371   .     A
C187   H248    0.931   .     S
C187   C189    1.372   .     A
H188   C217    0.931   .     S
C189   H190    0.931   .     S
C189   C191    1.385   1_565 S
C191   C222    1.387   .     A
C191   C194    1.495   .     S
C191   C189    1.385   1_545 S
C192   C251    1.387   .     A
C192   H193    0.929   .     S
C194   C225    1.482   .     S
C195   C256    1.375   .     A
C195   C202    1.382   .     A
C195   C254    1.482   1_455 S
C196   C225    1.375   .     A
C196   H197    0.931   .     S
C196   C228    1.376   .     A
C198   C256    1.376   .     A
C198   H199    0.930   .     S
C198   C200    1.368   .     A
C200   H201    0.931   .     S
C202   H203    0.931   .     S
C204   O235    1.216   .     A
C204   O206    1.218   .     A
C204   C237    1.525   .     S
O205   C264    1.216   .     A
C207   C264    1.525   .     S
C207   F268    1.309   .     S
C207   F209    1.305   .     S
C207   F210    1.356   .     S
F208   C237    1.309   .     S
Ag211  N304    2.212   .     S
Ag211  N213    2.207   1_545 S
Ag211  Ag511   3.214   1_546 S
O212   C224    1.214   .     D
N213   C215    1.332   .     A
N213   Ag211   2.207   1_565 S
N213   C222    1.338   1_565 S
N214   C230    1.335   .     A
N214   C232    1.330   .     A
N214   Ag391   2.212   .     S
C215   H216    0.932   .     S
C217   C245    1.371   .     A
C217   C219    1.372   .     A
H218   C247    0.931   .     S
C219   H220    0.931   .     S
C219   C221    1.385   .     A
C221   C224    1.495   .     S
C221   C252    1.387   1_556 S
C222   H223    0.929   .     S
C222   N213    1.338   1_545 S
C224   C255    1.482   .     S
C225   C232    1.382   .     A
C226   C255    1.375   .     A
C226   H227    0.931   .     S
C226   C258    1.376   .     A
C228   H229    0.930   .     S
C228   C230    1.368   .     A
C230   H231    0.931   .     S
C232   H233    0.931   .     S
C234   O265    1.216   .     A
C234   O236    1.218   .     A
C234   C267    1.525   .     S
C237   F239    1.305   .     S
C237   F240    1.356   .     S
F238   C267    1.309   .     S
Ag241  N243    2.206   .     S
Ag241  Ag451   3.214   .     S
Ag241  N334    2.213   .     S
O242   C254    1.214   1_455 A
N243   C252    1.338   .     A
N243   C245    1.332   1_554 A
N244   C260    1.335   .     A
N244   C262    1.330   .     A
N244   Ag421   2.213   .     S
C245   H246    0.932   .     S
C245   N243    1.332   1_556 A
C247   C249    1.372   .     A
C249   H250    0.931   .     S
C249   C251    1.385   .     A
C251   C254    1.495   .     S
C252   H253    0.929   .     S
C252   C221    1.387   1_554 S
C254   C195    1.482   1_655 S
C254   O242    1.214   1_655 A
C255   C262    1.382   1_556 S
C256   H257    0.931   1_455 S
H257   C256    0.931   1_655 S
C258   H259    0.930   .     S
C258   C260    1.368   1_556 S
C260   H261    0.931   .     S
C260   C258    1.368   1_554 S
C262   H263    0.931   .     S
C262   C255    1.382   1_554 S
C264   O266    1.218   .     A
C267   F269    1.305   .     S
C267   F270    1.356   .     S
Ag271  N273    2.207   .     S
O272   C284    1.214   .     D
N273   C275    1.332   .     A
N273   C282    1.338   .     A
N274   C290    1.335   .     A
N274   C292    1.330   .     A
C275   H276    0.932   .     S
C275   C307    1.371   .     A
C277   C335    1.371   .     A
C277   H308    0.931   .     S
C277   C279    1.372   .     A
H278   C337    0.931   .     S
C279   H280    0.931   .     S
C279   C281    1.385   1_655 A
C281   C342    1.387   .     A
C281   C284    1.495   .     S
C281   C279    1.385   1_455 A
C282   C311    1.387   .     A
C282   H283    0.929   .     S
C284   C345    1.482   .     S
C285   C314    1.482   .     S
C285   C316    1.375   .     A
C285   C292    1.382   .     A
C286   C345    1.375   .     A
C286   H287    0.931   .     S
C286   C348    1.376   .     A
C288   C316    1.376   .     A
C288   H289    0.930   .     S
C288   C290    1.368   .     A
C290   H291    0.931   .     S
C292   H293    0.931   .     S
C294   O355    1.216   .     A
C294   O296    1.218   .     A
C294   C357    1.525   .     S
O295   C324    1.216   .     A
C297   C324    1.525   .     S
C297   F328    1.309   .     S
C297   F299    1.305   .     S
C297   F300    1.356   .     S
F298   C357    1.309   .     S
Ag301  N303    2.207   .     S
O302   C314    1.214   .     D
N303   C312    1.338   .     A
N303   C305    1.332   1_556 S
N304   C320    1.335   .     A
N304   C322    1.330   .     A
C305   H306    0.932   .     S
C305   C337    1.371   .     A
C305   N303    1.332   1_554 S
C307   H338    0.931   .     S
C307   C309    1.372   .     A
C309   H310    0.931   .     S
C309   C311    1.385   .     A
C311   C314    1.495   .     S
C312   H313    0.929   .     S
C312   C341    1.387   1_556 S
C315   C344    1.482   .     S
C315   C346    1.375   .     A
C315   C322    1.382   1_554 A
C316   H317    0.931   .     S
C318   C346    1.376   .     A
C318   H319    0.930   .     S
C318   C320    1.368   1_554 S
C320   H321    0.931   .     S
C320   C318    1.368   1_556 S
C322   H323    0.931   .     S
C322   C315    1.382   1_556 A
C324   O326    1.218   .     A
O325   C354    1.216   .     A
C327   C354    1.525   .     S
C327   F358    1.309   .     S
C327   F329    1.305   .     S
C327   F330    1.356   .     S
Ag331  Ag31    3.214   1_454 D
Ag331  N333    2.207   1_455 A
O332   C344    1.214   1_565 S
N333   C335    1.332   .     A
N333   Ag331   2.207   1_655 A
N333   C342    1.338   1_655 S
N334   C350    1.335   .     A
N334   C352    1.330   .     A
C335   H336    0.932   .     S
C337   C339    1.372   .     A
C339   H340    0.931   .     S
C339   C341    1.385   .     A
C341   C344    1.495   .     S
C341   C312    1.387   1_554 S
C342   H343    0.929   .     S
C342   N333    1.338   1_455 S
C344   O332    1.214   1_545 S
C345   C352    1.382   .     A
C346   H347    0.931   .     S
C348   H349    0.930   .     S
C348   C350    1.368   .     A
C350   H351    0.931   .     S
C352   H353    0.931   .     S
C354   O356    1.218   .     A
C357   F359    1.305   .     S
C357   F360    1.356   .     S
Ag361  N363    2.207   .     S
O362   C374    1.214   .     D
N363   C365    1.332   .     A
N363   C372    1.338   .     A
N364   C380    1.335   .     A
N364   C382    1.330   .     A
C365   H366    0.932   .     S
C365   C397    1.371   .     A
C367   C425    1.371   .     A
C367   H398    0.931   .     S
C367   C369    1.372   .     A
H368   C427    0.931   .     S
C369   H370    0.931   .     S
C369   C371    1.385   .     A
C371   C432    1.387   .     A
C371   C374    1.495   .     S
C372   C401    1.387   .     A
C372   H373    0.929   .     S
C374   C435    1.482   .     S
C375   C406    1.375   .     A
C375   C382    1.382   .     A
C375   C404    1.482   1_545 D
C376   C435    1.375   .     A
C376   H377    0.931   .     S
C376   C438    1.376   .     A
C378   C406    1.376   .     A
C378   H379    0.930   .     S
C378   C380    1.368   .     A
C380   H381    0.931   .     S
C382   H383    0.931   .     S
C384   O445    1.216   .     A
C384   O386    1.218   .     A
C384   C447    1.525   .     S
O385   C414    1.216   .     A
C387   C414    1.525   .     S
C387   F418    1.309   .     S
C387   F389    1.305   .     S
C387   F390    1.356   .     S
F388   C447    1.309   .     S
Ag391  N393    2.207   .     S
O392   C404    1.214   1_545 A
N393   C402    1.338   .     A
N393   C395    1.332   1_556 A
N394   C410    1.335   .     A
N394   C412    1.330   .     A
C395   H396    0.932   .     S
C395   C427    1.371   .     A
C395   N393    1.332   1_554 A
C397   H428    0.931   .     S
C397   C399    1.372   .     A
C399   H400    0.931   .     S
C399   C401    1.385   .     A
C401   C404    1.495   .     S
C402   H403    0.929   .     S
C402   C431    1.387   1_556 S
C404   C375    1.482   1_565 D
C404   O392    1.214   1_565 A
C405   C434    1.482   .     S
C405   C436    1.375   .     A
C405   C412    1.382   1_554 S
C406   H407    0.931   1_545 A
H407   C406    0.931   1_565 A
C408   C436    1.376   .     A
C408   H409    0.930   .     S
C408   C410    1.368   1_554 S
C410   H411    0.931   .     S
C410   C408    1.368   1_556 S
C412   H413    0.931   .     S
C412   C405    1.382   1_556 S
C414   O416    1.218   .     A
O415   C444    1.216   .     A
C417   C444    1.525   .     S
C417   F448    1.309   .     S
C417   F419    1.305   .     S
C417   F420    1.356   .     S
Ag421  N423    2.207   .     S
Ag421  Ag121   3.214   1_554 A
O422   C434    1.214   1_455 S
N423   C425    1.332   .     A
N423   C432    1.338   .     A
N424   C440    1.335   .     A
N424   C442    1.330   .     A
C425   H426    0.932   .     S
C427   C429    1.372   .     A
C429   H430    0.931   .     S
C429   C431    1.385   .     A
C431   C434    1.495   .     S
C431   C402    1.387   1_554 S
C432   H433    0.929   .     S
C434   O422    1.214   1_655 S
C435   C442    1.382   .     A
C436   H437    0.931   .     S
C438   H439    0.930   .     S
C438   C440    1.368   .     A
C440   H441    0.931   .     S
C442   H443    0.931   .     S
C444   O446    1.218   .     A
C447   F449    1.305   .     S
C447   F450    1.356   .     S
Ag451  N453    2.207   .     S
O452   C464    1.214   .     D
N453   C455    1.332   .     A
N453   C462    1.338   .     A
N454   C470    1.335   .     A
N454   C472    1.330   .     A
C455   H456    0.932   .     S
C455   C487    1.371   .     A
C457   C515    1.371   .     A
C457   H488    0.931   .     S
C457   C459    1.372   .     A
H458   C517    0.931   .     S
C459   H460    0.931   .     S
C459   C461    1.385   1_545 S
C461   C522    1.387   .     A
C461   C464    1.495   .     S
C461   C459    1.385   1_565 S
C462   C491    1.387   .     A
C462   H463    0.929   .     S
C464   C525    1.482   .     S
C465   C496    1.375   .     A
C465   C472    1.382   .     A
C465   C494    1.482   1_655 S
C466   C525    1.375   .     A
C466   H467    0.931   .     S
C466   C528    1.376   .     A
C468   C496    1.376   .     A
C468   H469    0.930   .     S
C468   C470    1.368   .     A
C470   H471    0.931   .     S
C472   H473    0.931   .     S
C474   O535    1.216   .     A
C474   O476    1.218   .     A
C474   C537    1.525   .     S
O475   C504    1.216   .     A
C477   C504    1.525   .     S
C477   F508    1.309   .     S
C477   F479    1.305   .     S
C477   F480    1.356   .     S
F478   C537    1.309   .     S
Ag481  N483    2.206   .     S
O482   C494    1.214   1_655 S
N483   C492    1.338   .     A
N483   C485    1.332   1_556 D
N484   C500    1.335   .     A
N484   C502    1.330   .     A
C485   H486    0.932   .     S
C485   C517    1.371   .     A
C485   N483    1.332   1_554 D
C487   H518    0.931   .     S
C487   C489    1.372   .     A
C489   H490    0.931   .     S
C489   C491    1.385   .     A
C491   C494    1.495   .     S
C492   H493    0.929   .     S
C492   C521    1.387   1_556 A
C494   C465    1.482   1_455 S
C494   O482    1.214   1_455 S
C495   C524    1.482   .     S
C495   C526    1.375   .     A
C495   C502    1.382   1_554 S
C496   H497    0.931   1_655 S
H497   C496    0.931   1_455 S
C498   C526    1.376   .     A
C498   H499    0.930   .     S
C498   C500    1.368   1_554 A
C500   H501    0.931   .     S
C500   C498    1.368   1_556 A
C502   H503    0.931   .     S
C502   C495    1.382   1_556 S
C504   O506    1.218   .     A
O505   C534    1.216   .     A
C507   C534    1.525   .     S
C507   F538    1.309   .     S
C507   F509    1.305   .     S
C507   F510    1.356   .     S
Ag511  Ag211   3.214   1_564 S
Ag511  N513    2.207   1_565 S
O512   C524    1.214   .     D
N513   C515    1.332   .     A
N513   Ag511   2.207   1_545 S
N513   C522    1.338   1_545 A
N514   C530    1.335   .     A
N514   C532    1.330   .     A
C515   H516    0.932   .     S
C517   C519    1.372   .     A
C519   H520    0.931   .     S
C519   C521    1.385   .     A
C521   C524    1.495   .     S
C521   C492    1.387   1_554 A
C522   H523    0.929   .     S
C522   N513    1.338   1_565 A
C525   C532    1.382   .     A
C526   H527    0.931   .     S
C528   H529    0.930   .     S
C528   C530    1.368   .     A
C530   H531    0.931   .     S
C532   H533    0.931   .     S
C534   O536    1.218   .     A
C537   F539    1.305   .     S
C537   F540    1.356   .     S
