data_FURRUG_ion_b
_audit_creation_date              2014-07-02
_audit_creation_method            'Materials Studio'
_symmetry_space_group_name_H-M    'P1'
_symmetry_Int_Tables_number       1
_symmetry_cell_setting            triclinic
loop_
_symmetry_equiv_pos_as_xyz
  x,y,z
_cell_length_a                    34.6970
_cell_length_b                    34.6970
_cell_length_c                    8.4057
_cell_angle_alpha                 90.0000
_cell_angle_beta                  90.0000
_cell_angle_gamma                 120.0000
loop_
_atom_site_label
_atom_site_type_symbol
_atom_site_fract_x
_atom_site_fract_y
_atom_site_fract_z
_atom_site_U_iso_or_equiv
_atom_site_adp_type
_atom_site_occupancy
Ag1    Ag    0.86100   0.18287   0.49955   0.00000  Uiso   1.00
O2     O     0.33293   0.34404   0.64793   0.00000  Uiso   1.00
N3     N     0.80050   0.14370   0.35510   0.00000  Uiso   1.00
N4     N     0.71800   0.92760   0.39600   0.00000  Uiso   1.00
C5     C     0.78680   0.16480   0.25850   0.00000  Uiso   1.00
H6     H     0.80430   0.19550   0.24860   0.00000  Uiso   1.00
C7     C     0.41477   0.47663   0.50643   0.00000  Uiso   1.00
H8     H     0.07303   0.82597   0.77367   0.00000  Uiso   1.00
C9     C     0.38877   0.43173   0.51913   0.00000  Uiso   1.00
H10    H     0.36217   0.41683   0.46343   0.00000  Uiso   1.00
C11    C     0.73580   0.07530   0.28250   0.00000  Uiso   1.00
C12    C     0.77560   0.09950   0.36410   0.00000  Uiso   1.00
H13    H     0.78540   0.08420   0.42790   0.00000  Uiso   1.00
C14    C     0.70650   0.02630   0.30410   0.00000  Uiso   1.00
C15    C     0.72690   0.99760   0.31060   0.00000  Uiso   1.00
C16    C     0.43147   0.34023   0.56513   0.00000  Uiso   1.00
H17    H     0.44717   0.36673   0.50883   0.00000  Uiso   1.00
C18    C     0.77990   0.97680   0.23590   0.00000  Uiso   1.00
H19    H     0.47247   0.31593   0.51643   0.00000  Uiso   1.00
C20    C     0.75580   0.93840   0.31940   0.00000  Uiso   1.00
H21    H     0.76620   0.91840   0.32310   0.00000  Uiso   1.00
C22    C     0.70360   0.95660   0.39030   0.00000  Uiso   1.00
H23    H     0.67700   0.94940   0.44090   0.00000  Uiso   1.00
C24    C     0.84240   0.25730   0.55850   0.00000  Uiso   1.00
O25    O     0.16653   0.89737   0.32577   0.00000  Uiso   1.00
O26    O     0.86020   0.25950   0.42970   0.00000  Uiso   1.00
C27    C     0.16603   0.96437   0.26827   0.00000  Uiso   1.00
F28    F     0.19753   0.99277   0.37117   0.00000  Uiso   1.00
F29    F     0.84290   0.32280   0.46900   0.00000  Uiso   1.00
C30    C     0.12843   0.95567   0.38067   0.00000  Uiso   1.00
F31    F     0.13843   0.94057   0.50867   0.00000  Uiso   1.00
F32    F     0.13253   0.99557   0.39467   0.00000  Uiso   1.00
F33    F     0.09283   0.92597   0.30167   0.00000  Uiso   1.00
Ag34   Ag    0.52767   0.51620   0.83288   0.00000  Uiso   1.00
O35    O     0.99959   0.67738   0.98127   0.00000  Uiso   1.00
N36    N     0.46717   0.47703   0.68843   0.00000  Uiso   1.00
N37    N     0.38467   0.26093   0.72933   0.00000  Uiso   1.00
C38    C     0.45347   0.49813   0.59183   0.00000  Uiso   1.00
H39    H     0.47097   0.52883   0.58193   0.00000  Uiso   1.00
C40    C     0.08143   0.80997   0.83977   0.00000  Uiso   1.00
H41    H     0.73970   0.15930   0.10700   0.00000  Uiso   1.00
C42    C     0.05543   0.76507   0.85247   0.00000  Uiso   1.00
H43    H     0.02883   0.75017   0.79677   0.00000  Uiso   1.00
C44    C     0.40247   0.40863   0.61583   0.00000  Uiso   1.00
C45    C     0.44227   0.43283   0.69743   0.00000  Uiso   1.00
H46    H     0.45207   0.41753   0.76123   0.00000  Uiso   1.00
C47    C     0.37317   0.35963   0.63743   0.00000  Uiso   1.00
C48    C     0.39357   0.33093   0.64393   0.00000  Uiso   1.00
C49    C     0.09813   0.67357   0.89847   0.00000  Uiso   1.00
H50    H     0.11383   0.70007   0.84217   0.00000  Uiso   1.00
C51    C     0.44657   0.31013   0.56923   0.00000  Uiso   1.00
H52    H     0.13913   0.64927   0.84977   0.00000  Uiso   1.00
C53    C     0.42247   0.27173   0.65273   0.00000  Uiso   1.00
H54    H     0.43287   0.25173   0.65643   0.00000  Uiso   1.00
C55    C     0.37027   0.28993   0.72363   0.00000  Uiso   1.00
H56    H     0.34367   0.28273   0.77423   0.00000  Uiso   1.00
C57    C     0.50907   0.59063   0.89183   0.00000  Uiso   1.00
O58    O     0.83320   0.23070   0.65910   0.00000  Uiso   1.00
O59    O     0.52687   0.59283   0.76303   0.00000  Uiso   1.00
C60    C     0.83270   0.29770   0.60160   0.00000  Uiso   1.00
F61    F     0.86420   0.32610   0.70450   0.00000  Uiso   1.00
F62    F     0.50957   0.65613   0.80233   0.00000  Uiso   1.00
C63    C     0.79510   0.28900   0.71400   0.00000  Uiso   1.00
F64    F     0.80510   0.27390   0.84200   0.00000  Uiso   1.00
F65    F     0.79920   0.32890   0.72800   0.00000  Uiso   1.00
F66    F     0.75950   0.25930   0.63500   0.00000  Uiso   1.00
Ag67   Ag    0.19433   0.84954   0.16622   0.00000  Uiso   1.00
O68    O     0.66626   0.01071   0.31460   0.00000  Uiso   1.00
N69    N     0.13383   0.81037   0.02177   0.00000  Uiso   1.00
N70    N     0.05133   0.59427   0.06267   0.00000  Uiso   1.00
C71    C     0.12013   0.83147   0.92517   0.00000  Uiso   1.00
H72    H     0.13763   0.86217   0.91527   0.00000  Uiso   1.00
C73    C     0.74810   0.14330   0.17310   0.00000  Uiso   1.00
H74    H     0.40637   0.49263   0.44033   0.00000  Uiso   1.00
C75    C     0.72210   0.09840   0.18580   0.00000  Uiso   1.00
H76    H     0.69550   0.08350   0.13010   0.00000  Uiso   1.00
C77    C     0.06913   0.74197   0.94917   0.00000  Uiso   1.00
C78    C     0.10893   0.76617   0.03077   0.00000  Uiso   1.00
H79    H     0.11873   0.75087   0.09457   0.00000  Uiso   1.00
C80    C     0.03983   0.69297   0.97077   0.00000  Uiso   1.00
C81    C     0.06023   0.66427   0.97727   0.00000  Uiso   1.00
C82    C     0.76480   0.00690   0.23180   0.00000  Uiso   1.00
H83    H     0.78050   0.03340   0.17550   0.00000  Uiso   1.00
C84    C     0.11323   0.64347   0.90257   0.00000  Uiso   1.00
H85    H     0.80580   0.98260   0.18310   0.00000  Uiso   1.00
C86    C     0.08913   0.60507   0.98607   0.00000  Uiso   1.00
H87    H     0.09953   0.58507   0.98977   0.00000  Uiso   1.00
C88    C     0.03693   0.62327   0.05697   0.00000  Uiso   1.00
H89    H     0.01033   0.61607   0.10757   0.00000  Uiso   1.00
C90    C     0.17573   0.92397   0.22517   0.00000  Uiso   1.00
O91    O     0.49987   0.56403   0.99243   0.00000  Uiso   1.00
O92    O     0.19353   0.92617   0.09637   0.00000  Uiso   1.00
C93    C     0.49937   0.63103   0.93493   0.00000  Uiso   1.00
F94    F     0.53087   0.65943   1.03783   0.00000  Uiso   1.00
F95    F     0.17623   0.98947   0.13567   0.00000  Uiso   1.00
C96    C     0.46177   0.62233   1.04733   0.00000  Uiso   1.00
F97    F     0.47177   0.60723   1.17533   0.00000  Uiso   1.00
F98    F     0.46587   0.66223   1.06133   0.00000  Uiso   1.00
F99    F     0.42617   0.59263   0.96833   0.00000  Uiso   1.00
Ag100  Ag    0.81713   0.67813   0.49955   0.00000  Uiso   1.00
O101   O     0.65596   0.98888   0.64793   0.00000  Uiso   1.00
N102   N     0.85630   0.65680   0.35510   0.00000  Uiso   1.00
N103   N     0.07240   0.79040   0.39600   0.00000  Uiso   1.00
C104   C     0.83520   0.62200   0.25850   0.00000  Uiso   1.00
H105   H     0.80450   0.60880   0.24860   0.00000  Uiso   1.00
C106   C     0.52337   0.93813   0.50643   0.00000  Uiso   1.00
H107   H     0.17403   0.24707   0.77367   0.00000  Uiso   1.00
C108   C     0.56827   0.95703   0.51913   0.00000  Uiso   1.00
H109   H     0.58317   0.94533   0.46343   0.00000  Uiso   1.00
C110   C     0.92470   0.66050   0.28250   0.00000  Uiso   1.00
C111   C     0.90050   0.67610   0.36410   0.00000  Uiso   1.00
H112   H     0.91580   0.70120   0.42790   0.00000  Uiso   1.00
C113   C     0.97370   0.68020   0.30410   0.00000  Uiso   1.00
C114   C     0.00240   0.72930   0.31060   0.00000  Uiso   1.00
C115   C     0.65977   0.09123   0.56513   0.00000  Uiso   1.00
H116   H     0.63327   0.08043   0.50883   0.00000  Uiso   1.00
C117   C     0.02320   0.80310   0.23590   0.00000  Uiso   1.00
H118   H     0.68407   0.15653   0.51643   0.00000  Uiso   1.00
C119   C     0.06160   0.81740   0.31940   0.00000  Uiso   1.00
H120   H     0.08160   0.84780   0.32310   0.00000  Uiso   1.00
C121   C     0.04340   0.74700   0.39030   0.00000  Uiso   1.00
H122   H     0.05060   0.72760   0.44090   0.00000  Uiso   1.00
C123   C     0.74270   0.58510   0.55850   0.00000  Uiso   1.00
O124   O     0.10263   0.26917   0.32577   0.00000  Uiso   1.00
O125   O     0.74050   0.60070   0.42970   0.00000  Uiso   1.00
C126   C     0.03563   0.20167   0.26827   0.00000  Uiso   1.00
F127   F     0.00723   0.20477   0.37117   0.00000  Uiso   1.00
F128   F     0.67720   0.52010   0.46900   0.00000  Uiso   1.00
C129   C     0.04433   0.17277   0.38067   0.00000  Uiso   1.00
F130   F     0.05943   0.19787   0.50867   0.00000  Uiso   1.00
F131   F     0.00443   0.13697   0.39467   0.00000  Uiso   1.00
F132   F     0.07403   0.16687   0.30167   0.00000  Uiso   1.00
Ag133  Ag    0.48380   0.01146   0.83288   0.00000  Uiso   1.00
O134   O     0.32262   0.32222   0.98127   0.00000  Uiso   1.00
N135   N     0.52297   0.99013   0.68843   0.00000  Uiso   1.00
N136   N     0.73907   0.12373   0.72933   0.00000  Uiso   1.00
C137   C     0.50187   0.95533   0.59183   0.00000  Uiso   1.00
H138   H     0.47117   0.94213   0.58193   0.00000  Uiso   1.00
C139   C     0.19003   0.27147   0.83977   0.00000  Uiso   1.00
H140   H     0.84070   0.58040   0.10700   0.00000  Uiso   1.00
C141   C     0.23493   0.29037   0.85247   0.00000  Uiso   1.00
H142   H     0.24983   0.27867   0.79677   0.00000  Uiso   1.00
C143   C     0.59137   0.99383   0.61583   0.00000  Uiso   1.00
C144   C     0.56717   0.00943   0.69743   0.00000  Uiso   1.00
H145   H     0.58247   0.03453   0.76123   0.00000  Uiso   1.00
C146   C     0.64037   0.01353   0.63743   0.00000  Uiso   1.00
C147   C     0.66907   0.06263   0.64393   0.00000  Uiso   1.00
C148   C     0.32643   0.42457   0.89847   0.00000  Uiso   1.00
H149   H     0.29993   0.41377   0.84217   0.00000  Uiso   1.00
C150   C     0.68987   0.13643   0.56923   0.00000  Uiso   1.00
H151   H     0.35073   0.48987   0.84977   0.00000  Uiso   1.00
C152   C     0.72827   0.15073   0.65273   0.00000  Uiso   1.00
H153   H     0.74827   0.18113   0.65643   0.00000  Uiso   1.00
C154   C     0.71007   0.08033   0.72363   0.00000  Uiso   1.00
H155   H     0.71727   0.06093   0.77423   0.00000  Uiso   1.00
C156   C     0.40937   0.91843   0.89183   0.00000  Uiso   1.00
O157   O     0.76930   0.60250   0.65910   0.00000  Uiso   1.00
O158   O     0.40717   0.93403   0.76303   0.00000  Uiso   1.00
C159   C     0.70230   0.53500   0.60160   0.00000  Uiso   1.00
F160   F     0.67390   0.53810   0.70450   0.00000  Uiso   1.00
F161   F     0.34387   0.85343   0.80233   0.00000  Uiso   1.00
C162   C     0.71100   0.50610   0.71400   0.00000  Uiso   1.00
F163   F     0.72610   0.53120   0.84200   0.00000  Uiso   1.00
F164   F     0.67110   0.47030   0.72800   0.00000  Uiso   1.00
F165   F     0.74070   0.50020   0.63500   0.00000  Uiso   1.00
Ag166  Ag    0.15046   0.34480   0.16622   0.00000  Uiso   1.00
O167   O     0.98929   0.65555   0.31460   0.00000  Uiso   1.00
N168   N     0.18963   0.32347   0.02177   0.00000  Uiso   1.00
N169   N     0.40573   0.45707   0.06267   0.00000  Uiso   1.00
C170   C     0.16853   0.28867   0.92517   0.00000  Uiso   1.00
H171   H     0.13783   0.27547   0.91527   0.00000  Uiso   1.00
C172   C     0.85670   0.60480   0.17310   0.00000  Uiso   1.00
H173   H     0.50737   0.91373   0.44033   0.00000  Uiso   1.00
C174   C     0.90160   0.62370   0.18580   0.00000  Uiso   1.00
H175   H     0.91650   0.61200   0.13010   0.00000  Uiso   1.00
C176   C     0.25803   0.32717   0.94917   0.00000  Uiso   1.00
C177   C     0.23383   0.34277   0.03077   0.00000  Uiso   1.00
H178   H     0.24913   0.36787   0.09457   0.00000  Uiso   1.00
C179   C     0.30703   0.34687   0.97077   0.00000  Uiso   1.00
C180   C     0.33573   0.39597   0.97727   0.00000  Uiso   1.00
C181   C     0.99310   0.75790   0.23180   0.00000  Uiso   1.00
H182   H     0.96660   0.74710   0.17550   0.00000  Uiso   1.00
C183   C     0.35653   0.46977   0.90257   0.00000  Uiso   1.00
H184   H     0.01740   0.82320   0.18310   0.00000  Uiso   1.00
C185   C     0.39493   0.48407   0.98607   0.00000  Uiso   1.00
H186   H     0.41493   0.51447   0.98977   0.00000  Uiso   1.00
C187   C     0.37673   0.41367   0.05697   0.00000  Uiso   1.00
H188   H     0.38393   0.39427   0.10757   0.00000  Uiso   1.00
C189   C     0.07603   0.25177   0.22517   0.00000  Uiso   1.00
O190   O     0.43597   0.93583   0.99243   0.00000  Uiso   1.00
O191   O     0.07383   0.26737   0.09637   0.00000  Uiso   1.00
C192   C     0.36897   0.86833   0.93493   0.00000  Uiso   1.00
F193   F     0.34057   0.87143   1.03783   0.00000  Uiso   1.00
F194   F     0.01053   0.18677   0.13567   0.00000  Uiso   1.00
C195   C     0.37767   0.83943   1.04733   0.00000  Uiso   1.00
F196   F     0.39277   0.86453   1.17533   0.00000  Uiso   1.00
F197   F     0.33777   0.80363   1.06133   0.00000  Uiso   1.00
F198   F     0.40737   0.83353   0.96833   0.00000  Uiso   1.00
Ag199  Ag    0.32187   0.13900   0.49955   0.00000  Uiso   1.00
O200   O     0.01112   0.66707   0.64793   0.00000  Uiso   1.00
N201   N     0.34320   0.19950   0.35510   0.00000  Uiso   1.00
N202   N     0.20960   0.28200   0.39600   0.00000  Uiso   1.00
C203   C     0.37800   0.21320   0.25850   0.00000  Uiso   1.00
H204   H     0.39120   0.19570   0.24860   0.00000  Uiso   1.00
C205   C     0.06187   0.58523   0.50643   0.00000  Uiso   1.00
H206   H     0.75293   0.92697   0.77367   0.00000  Uiso   1.00
C207   C     0.04297   0.61123   0.51913   0.00000  Uiso   1.00
H208   H     0.05467   0.63783   0.46343   0.00000  Uiso   1.00
C209   C     0.33950   0.26420   0.28250   0.00000  Uiso   1.00
C210   C     0.32390   0.22440   0.36410   0.00000  Uiso   1.00
H211   H     0.29880   0.21460   0.42790   0.00000  Uiso   1.00
C212   C     0.31980   0.29350   0.30410   0.00000  Uiso   1.00
C213   C     0.27070   0.27310   0.31060   0.00000  Uiso   1.00
C214   C     0.90877   0.56853   0.56513   0.00000  Uiso   1.00
H215   H     0.91957   0.55283   0.50883   0.00000  Uiso   1.00
C216   C     0.19690   0.22010   0.23590   0.00000  Uiso   1.00
H217   H     0.84347   0.52753   0.51643   0.00000  Uiso   1.00
C218   C     0.18260   0.24420   0.31940   0.00000  Uiso   1.00
H219   H     0.15220   0.23380   0.32310   0.00000  Uiso   1.00
C220   C     0.25300   0.29640   0.39030   0.00000  Uiso   1.00
H221   H     0.27240   0.32300   0.44090   0.00000  Uiso   1.00
C222   C     0.41490   0.15760   0.55850   0.00000  Uiso   1.00
O223   O     0.73083   0.83347   0.32577   0.00000  Uiso   1.00
O224   O     0.39930   0.13980   0.42970   0.00000  Uiso   1.00
C225   C     0.79833   0.83397   0.26827   0.00000  Uiso   1.00
F226   F     0.79523   0.80247   0.37117   0.00000  Uiso   1.00
F227   F     0.47990   0.15710   0.46900   0.00000  Uiso   1.00
C228   C     0.82723   0.87157   0.38067   0.00000  Uiso   1.00
F229   F     0.80213   0.86157   0.50867   0.00000  Uiso   1.00
F230   F     0.86303   0.86747   0.39467   0.00000  Uiso   1.00
F231   F     0.83313   0.90717   0.30167   0.00000  Uiso   1.00
Ag232  Ag    0.98854   0.47233   0.83288   0.00000  Uiso   1.00
O233   O     0.67778   0.00041   0.98127   0.00000  Uiso   1.00
N234   N     0.00987   0.53283   0.68843   0.00000  Uiso   1.00
N235   N     0.87627   0.61533   0.72933   0.00000  Uiso   1.00
C236   C     0.04467   0.54653   0.59183   0.00000  Uiso   1.00
H237   H     0.05787   0.52903   0.58193   0.00000  Uiso   1.00
C238   C     0.72853   0.91857   0.83977   0.00000  Uiso   1.00
H239   H     0.41960   0.26030   0.10700   0.00000  Uiso   1.00
C240   C     0.70963   0.94457   0.85247   0.00000  Uiso   1.00
H241   H     0.72133   0.97117   0.79677   0.00000  Uiso   1.00
C242   C     0.00617   0.59753   0.61583   0.00000  Uiso   1.00
C243   C     0.99057   0.55773   0.69743   0.00000  Uiso   1.00
H244   H     0.96547   0.54793   0.76123   0.00000  Uiso   1.00
C245   C     0.98647   0.62683   0.63743   0.00000  Uiso   1.00
C246   C     0.93737   0.60643   0.64393   0.00000  Uiso   1.00
C247   C     0.57543   0.90187   0.89847   0.00000  Uiso   1.00
H248   H     0.58623   0.88617   0.84217   0.00000  Uiso   1.00
C249   C     0.86357   0.55343   0.56923   0.00000  Uiso   1.00
H250   H     0.51013   0.86087   0.84977   0.00000  Uiso   1.00
C251   C     0.84927   0.57753   0.65273   0.00000  Uiso   1.00
H252   H     0.81887   0.56713   0.65643   0.00000  Uiso   1.00
C253   C     0.91967   0.62973   0.72363   0.00000  Uiso   1.00
H254   H     0.93907   0.65633   0.77423   0.00000  Uiso   1.00
C255   C     0.08157   0.49093   0.89183   0.00000  Uiso   1.00
O256   O     0.39750   0.16680   0.65910   0.00000  Uiso   1.00
O257   O     0.06597   0.47313   0.76303   0.00000  Uiso   1.00
C258   C     0.46500   0.16730   0.60160   0.00000  Uiso   1.00
F259   F     0.46190   0.13580   0.70450   0.00000  Uiso   1.00
F260   F     0.14657   0.49043   0.80233   0.00000  Uiso   1.00
C261   C     0.49390   0.20490   0.71400   0.00000  Uiso   1.00
F262   F     0.46880   0.19490   0.84200   0.00000  Uiso   1.00
F263   F     0.52970   0.20080   0.72800   0.00000  Uiso   1.00
F264   F     0.49980   0.24050   0.63500   0.00000  Uiso   1.00
Ag265  Ag    0.65520   0.80567   0.16622   0.00000  Uiso   1.00
O266   O     0.34445   0.33374   0.31460   0.00000  Uiso   1.00
N267   N     0.67653   0.86617   0.02177   0.00000  Uiso   1.00
N268   N     0.54293   0.94867   0.06267   0.00000  Uiso   1.00
C269   C     0.71133   0.87987   0.92517   0.00000  Uiso   1.00
H270   H     0.72453   0.86237   0.91527   0.00000  Uiso   1.00
C271   C     0.39520   0.25190   0.17310   0.00000  Uiso   1.00
H272   H     0.08627   0.59363   0.44033   0.00000  Uiso   1.00
C273   C     0.37630   0.27790   0.18580   0.00000  Uiso   1.00
H274   H     0.38800   0.30450   0.13010   0.00000  Uiso   1.00
C275   C     0.67283   0.93087   0.94917   0.00000  Uiso   1.00
C276   C     0.65723   0.89107   0.03077   0.00000  Uiso   1.00
H277   H     0.63213   0.88127   0.09457   0.00000  Uiso   1.00
C278   C     0.65313   0.96017   0.97077   0.00000  Uiso   1.00
C279   C     0.60403   0.93977   0.97727   0.00000  Uiso   1.00
C280   C     0.24210   0.23520   0.23180   0.00000  Uiso   1.00
H281   H     0.25290   0.21950   0.17550   0.00000  Uiso   1.00
C282   C     0.53023   0.88677   0.90257   0.00000  Uiso   1.00
H283   H     0.17680   0.19420   0.18310   0.00000  Uiso   1.00
C284   C     0.51593   0.91087   0.98607   0.00000  Uiso   1.00
H285   H     0.48553   0.90047   0.98977   0.00000  Uiso   1.00
C286   C     0.58633   0.96307   0.05697   0.00000  Uiso   1.00
H287   H     0.60573   0.98967   0.10757   0.00000  Uiso   1.00
C288   C     0.74823   0.82427   0.22517   0.00000  Uiso   1.00
O289   O     0.06417   0.50013   0.99243   0.00000  Uiso   1.00
O290   O     0.73263   0.80647   0.09637   0.00000  Uiso   1.00
C291   C     0.13167   0.50063   0.93493   0.00000  Uiso   1.00
F292   F     0.12857   0.46913   1.03783   0.00000  Uiso   1.00
F293   F     0.81323   0.82377   0.13567   0.00000  Uiso   1.00
C294   C     0.16057   0.53823   1.04733   0.00000  Uiso   1.00
F295   F     0.13547   0.52823   1.17533   0.00000  Uiso   1.00
F296   F     0.19637   0.53413   1.06133   0.00000  Uiso   1.00
F297   F     0.16647   0.57383   0.96833   0.00000  Uiso   1.00
Ag298  Ag    0.13900   0.81713   0.50045   0.00000  Uiso   1.00
O299   O     0.66707   0.65596   0.35207   0.00000  Uiso   1.00
N300   N     0.19950   0.85630   0.64490   0.00000  Uiso   1.00
N301   N     0.28200   0.07240   0.60400   0.00000  Uiso   1.00
C302   C     0.21320   0.83520   0.74150   0.00000  Uiso   1.00
H303   H     0.19570   0.80450   0.75140   0.00000  Uiso   1.00
C304   C     0.58523   0.52337   0.49357   0.00000  Uiso   1.00
H305   H     0.92697   0.17403   0.22633   0.00000  Uiso   1.00
C306   C     0.61123   0.56827   0.48087   0.00000  Uiso   1.00
H307   H     0.63783   0.58317   0.53657   0.00000  Uiso   1.00
C308   C     0.26420   0.92470   0.71750   0.00000  Uiso   1.00
C309   C     0.22440   0.90050   0.63590   0.00000  Uiso   1.00
H310   H     0.21460   0.91580   0.57210   0.00000  Uiso   1.00
C311   C     0.29350   0.97370   0.69590   0.00000  Uiso   1.00
C312   C     0.27310   0.00240   0.68940   0.00000  Uiso   1.00
C313   C     0.56853   0.65977   0.43487   0.00000  Uiso   1.00
H314   H     0.55283   0.63327   0.49117   0.00000  Uiso   1.00
C315   C     0.22010   0.02320   0.76410   0.00000  Uiso   1.00
H316   H     0.52753   0.68407   0.48357   0.00000  Uiso   1.00
C317   C     0.24420   0.06160   0.68060   0.00000  Uiso   1.00
H318   H     0.23380   0.08160   0.67690   0.00000  Uiso   1.00
C319   C     0.29640   0.04340   0.60970   0.00000  Uiso   1.00
H320   H     0.32300   0.05060   0.55910   0.00000  Uiso   1.00
C321   C     0.15760   0.74270   0.44150   0.00000  Uiso   1.00
O322   O     0.83347   0.10263   0.67423   0.00000  Uiso   1.00
O323   O     0.13980   0.74050   0.57030   0.00000  Uiso   1.00
C324   C     0.83397   0.03563   0.73173   0.00000  Uiso   1.00
F325   F     0.80247   0.00723   0.62883   0.00000  Uiso   1.00
F326   F     0.15710   0.67720   0.53100   0.00000  Uiso   1.00
C327   C     0.87157   0.04433   0.61933   0.00000  Uiso   1.00
F328   F     0.86157   0.05943   0.49133   0.00000  Uiso   1.00
F329   F     0.86747   0.00443   0.60533   0.00000  Uiso   1.00
F330   F     0.90717   0.07403   0.69833   0.00000  Uiso   1.00
Ag331  Ag    0.80567   0.15046   0.83378   0.00000  Uiso   1.00
O332   O     0.33374   0.98929   0.68540   0.00000  Uiso   1.00
N333   N     0.86617   0.18963   0.97823   0.00000  Uiso   1.00
N334   N     0.94867   0.40573   0.93733   0.00000  Uiso   1.00
C335   C     0.87987   0.16853   0.07483   0.00000  Uiso   1.00
H336   H     0.86237   0.13783   0.08473   0.00000  Uiso   1.00
C337   C     0.25190   0.85670   0.82690   0.00000  Uiso   1.00
H338   H     0.59363   0.50737   0.55967   0.00000  Uiso   1.00
C339   C     0.27790   0.90160   0.81420   0.00000  Uiso   1.00
H340   H     0.30450   0.91650   0.86990   0.00000  Uiso   1.00
C341   C     0.93087   0.25803   0.05083   0.00000  Uiso   1.00
C342   C     0.89107   0.23383   0.96923   0.00000  Uiso   1.00
H343   H     0.88127   0.24913   0.90543   0.00000  Uiso   1.00
C344   C     0.96017   0.30703   0.02923   0.00000  Uiso   1.00
C345   C     0.93977   0.33573   0.02273   0.00000  Uiso   1.00
C346   C     0.23520   0.99310   0.76820   0.00000  Uiso   1.00
H347   H     0.21950   0.96660   0.82450   0.00000  Uiso   1.00
C348   C     0.88677   0.35653   0.09743   0.00000  Uiso   1.00
H349   H     0.19420   0.01740   0.81690   0.00000  Uiso   1.00
C350   C     0.91087   0.39493   0.01393   0.00000  Uiso   1.00
H351   H     0.90047   0.41493   0.01023   0.00000  Uiso   1.00
C352   C     0.96307   0.37673   0.94303   0.00000  Uiso   1.00
H353   H     0.98967   0.38393   0.89243   0.00000  Uiso   1.00
C354   C     0.82427   0.07603   0.77483   0.00000  Uiso   1.00
O355   O     0.50013   0.43597   0.00757   0.00000  Uiso   1.00
O356   O     0.80647   0.07383   0.90363   0.00000  Uiso   1.00
C357   C     0.50063   0.36897   0.06507   0.00000  Uiso   1.00
F358   F     0.46913   0.34057  -0.03783   0.00000  Uiso   1.00
F359   F     0.82377   0.01053   0.86433   0.00000  Uiso   1.00
C360   C     0.53823   0.37767  -0.04733   0.00000  Uiso   1.00
F361   F     0.52823   0.39277  -0.17533   0.00000  Uiso   1.00
F362   F     0.53413   0.33777  -0.06133   0.00000  Uiso   1.00
F363   F     0.57383   0.40737   0.03167   0.00000  Uiso   1.00
Ag364  Ag    0.47233   0.48380   0.16712   0.00000  Uiso   1.00
O365   O     0.00041   0.32262   0.01873   0.00000  Uiso   1.00
N366   N     0.53283   0.52297   0.31157   0.00000  Uiso   1.00
N367   N     0.61533   0.73907   0.27067   0.00000  Uiso   1.00
C368   C     0.54653   0.50187   0.40817   0.00000  Uiso   1.00
H369   H     0.52903   0.47117   0.41807   0.00000  Uiso   1.00
C370   C     0.91857   0.19003   0.16023   0.00000  Uiso   1.00
H371   H     0.26030   0.84070   0.89300   0.00000  Uiso   1.00
C372   C     0.94457   0.23493   0.14753   0.00000  Uiso   1.00
H373   H     0.97117   0.24983   0.20323   0.00000  Uiso   1.00
C374   C     0.59753   0.59137   0.38417   0.00000  Uiso   1.00
C375   C     0.55773   0.56717   0.30257   0.00000  Uiso   1.00
H376   H     0.54793   0.58247   0.23877   0.00000  Uiso   1.00
C377   C     0.62683   0.64037   0.36257   0.00000  Uiso   1.00
C378   C     0.60643   0.66907   0.35607   0.00000  Uiso   1.00
C379   C     0.90187   0.32643   0.10153   0.00000  Uiso   1.00
H380   H     0.88617   0.29993   0.15783   0.00000  Uiso   1.00
C381   C     0.55343   0.68987   0.43077   0.00000  Uiso   1.00
H382   H     0.86087   0.35073   0.15023   0.00000  Uiso   1.00
C383   C     0.57753   0.72827   0.34727   0.00000  Uiso   1.00
H384   H     0.56713   0.74827   0.34357   0.00000  Uiso   1.00
C385   C     0.62973   0.71007   0.27637   0.00000  Uiso   1.00
H386   H     0.65633   0.71727   0.22577   0.00000  Uiso   1.00
C387   C     0.49093   0.40937   0.10817   0.00000  Uiso   1.00
O388   O     0.16680   0.76930   0.34090   0.00000  Uiso   1.00
O389   O     0.47313   0.40717   0.23697   0.00000  Uiso   1.00
C390   C     0.16730   0.70230   0.39840   0.00000  Uiso   1.00
F391   F     0.13580   0.67390   0.29550   0.00000  Uiso   1.00
F392   F     0.49043   0.34387   0.19767   0.00000  Uiso   1.00
C393   C     0.20490   0.71100   0.28600   0.00000  Uiso   1.00
F394   F     0.19490   0.72610   0.15800   0.00000  Uiso   1.00
F395   F     0.20080   0.67110   0.27200   0.00000  Uiso   1.00
F396   F     0.24050   0.74070   0.36500   0.00000  Uiso   1.00
Ag397  Ag    0.18287   0.32187   0.50045   0.00000  Uiso   1.00
O398   O     0.34404   0.01112   0.35207   0.00000  Uiso   1.00
N399   N     0.14370   0.34320   0.64490   0.00000  Uiso   1.00
N400   N     0.92760   0.20960   0.60400   0.00000  Uiso   1.00
C401   C     0.16480   0.37800   0.74150   0.00000  Uiso   1.00
H402   H     0.19550   0.39120   0.75140   0.00000  Uiso   1.00
C403   C     0.47663   0.06187   0.49357   0.00000  Uiso   1.00
H404   H     0.82597   0.75293   0.22633   0.00000  Uiso   1.00
C405   C     0.43173   0.04297   0.48087   0.00000  Uiso   1.00
H406   H     0.41683   0.05467   0.53657   0.00000  Uiso   1.00
C407   C     0.07530   0.33950   0.71750   0.00000  Uiso   1.00
C408   C     0.09950   0.32390   0.63590   0.00000  Uiso   1.00
H409   H     0.08420   0.29880   0.57210   0.00000  Uiso   1.00
C410   C     0.02630   0.31980   0.69590   0.00000  Uiso   1.00
C411   C     0.99760   0.27070   0.68940   0.00000  Uiso   1.00
C412   C     0.34023   0.90877   0.43487   0.00000  Uiso   1.00
H413   H     0.36673   0.91957   0.49117   0.00000  Uiso   1.00
C414   C     0.97680   0.19690   0.76410   0.00000  Uiso   1.00
H415   H     0.31593   0.84347   0.48357   0.00000  Uiso   1.00
C416   C     0.93840   0.18260   0.68060   0.00000  Uiso   1.00
H417   H     0.91840   0.15220   0.67690   0.00000  Uiso   1.00
C418   C     0.95660   0.25300   0.60970   0.00000  Uiso   1.00
H419   H     0.94940   0.27240   0.55910   0.00000  Uiso   1.00
C420   C     0.25730   0.41490   0.44150   0.00000  Uiso   1.00
O421   O     0.89737   0.73083   0.67423   0.00000  Uiso   1.00
O422   O     0.25950   0.39930   0.57030   0.00000  Uiso   1.00
C423   C     0.96437   0.79833   0.73173   0.00000  Uiso   1.00
F424   F     0.99277   0.79523   0.62883   0.00000  Uiso   1.00
F425   F     0.32280   0.47990   0.53100   0.00000  Uiso   1.00
C426   C     0.95567   0.82723   0.61933   0.00000  Uiso   1.00
F427   F     0.94057   0.80213   0.49133   0.00000  Uiso   1.00
F428   F     0.99557   0.86303   0.60533   0.00000  Uiso   1.00
F429   F     0.92597   0.83313   0.69833   0.00000  Uiso   1.00
Ag430  Ag    0.84954   0.65520   0.83378   0.00000  Uiso   1.00
O431   O     0.01071   0.34445   0.68540   0.00000  Uiso   1.00
N432   N     0.81037   0.67653   0.97823   0.00000  Uiso   1.00
N433   N     0.59427   0.54293   0.93733   0.00000  Uiso   1.00
C434   C     0.83147   0.71133   0.07483   0.00000  Uiso   1.00
H435   H     0.86217   0.72453   0.08473   0.00000  Uiso   1.00
C436   C     0.14330   0.39520   0.82690   0.00000  Uiso   1.00
H437   H     0.49263   0.08627   0.55967   0.00000  Uiso   1.00
C438   C     0.09840   0.37630   0.81420   0.00000  Uiso   1.00
H439   H     0.08350   0.38800   0.86990   0.00000  Uiso   1.00
C440   C     0.74197   0.67283   0.05083   0.00000  Uiso   1.00
C441   C     0.76617   0.65723   0.96923   0.00000  Uiso   1.00
H442   H     0.75087   0.63213   0.90543   0.00000  Uiso   1.00
C443   C     0.69297   0.65313   0.02923   0.00000  Uiso   1.00
C444   C     0.66427   0.60403   0.02273   0.00000  Uiso   1.00
C445   C     0.00690   0.24210   0.76820   0.00000  Uiso   1.00
H446   H     0.03340   0.25290   0.82450   0.00000  Uiso   1.00
C447   C     0.64347   0.53023   0.09743   0.00000  Uiso   1.00
H448   H     0.98260   0.17680   0.81690   0.00000  Uiso   1.00
C449   C     0.60507   0.51593   0.01393   0.00000  Uiso   1.00
H450   H     0.58507   0.48553   0.01023   0.00000  Uiso   1.00
C451   C     0.62327   0.58633   0.94303   0.00000  Uiso   1.00
H452   H     0.61607   0.60573   0.89243   0.00000  Uiso   1.00
C453   C     0.92397   0.74823   0.77483   0.00000  Uiso   1.00
O454   O     0.56403   0.06417   0.00757   0.00000  Uiso   1.00
O455   O     0.92617   0.73263   0.90363   0.00000  Uiso   1.00
C456   C     0.63103   0.13167   0.06507   0.00000  Uiso   1.00
F457   F     0.65943   0.12857  -0.03783   0.00000  Uiso   1.00
F458   F     0.98947   0.81323   0.86433   0.00000  Uiso   1.00
C459   C     0.62233   0.16057  -0.04733   0.00000  Uiso   1.00
F460   F     0.60723   0.13547  -0.17533   0.00000  Uiso   1.00
F461   F     0.66223   0.19637  -0.06133   0.00000  Uiso   1.00
F462   F     0.59263   0.16647   0.03167   0.00000  Uiso   1.00
Ag463  Ag    0.51620   0.98854   0.16712   0.00000  Uiso   1.00
O464   O     0.67738   0.67778   0.01873   0.00000  Uiso   1.00
N465   N     0.47703   0.00987   0.31157   0.00000  Uiso   1.00
N466   N     0.26093   0.87627   0.27067   0.00000  Uiso   1.00
C467   C     0.49813   0.04467   0.40817   0.00000  Uiso   1.00
H468   H     0.52883   0.05787   0.41807   0.00000  Uiso   1.00
C469   C     0.80997   0.72853   0.16023   0.00000  Uiso   1.00
H470   H     0.15930   0.41960   0.89300   0.00000  Uiso   1.00
C471   C     0.76507   0.70963   0.14753   0.00000  Uiso   1.00
H472   H     0.75017   0.72133   0.20323   0.00000  Uiso   1.00
C473   C     0.40863   0.00617   0.38417   0.00000  Uiso   1.00
C474   C     0.43283   0.99057   0.30257   0.00000  Uiso   1.00
H475   H     0.41753   0.96547   0.23877   0.00000  Uiso   1.00
C476   C     0.35963   0.98647   0.36257   0.00000  Uiso   1.00
C477   C     0.33093   0.93737   0.35607   0.00000  Uiso   1.00
C478   C     0.67357   0.57543   0.10153   0.00000  Uiso   1.00
H479   H     0.70007   0.58623   0.15783   0.00000  Uiso   1.00
C480   C     0.31013   0.86357   0.43077   0.00000  Uiso   1.00
H481   H     0.64927   0.51013   0.15023   0.00000  Uiso   1.00
C482   C     0.27173   0.84927   0.34727   0.00000  Uiso   1.00
H483   H     0.25173   0.81887   0.34357   0.00000  Uiso   1.00
C484   C     0.28993   0.91967   0.27637   0.00000  Uiso   1.00
H485   H     0.28273   0.93907   0.22577   0.00000  Uiso   1.00
C486   C     0.59063   0.08157   0.10817   0.00000  Uiso   1.00
O487   O     0.23070   0.39750   0.34090   0.00000  Uiso   1.00
O488   O     0.59283   0.06597   0.23697   0.00000  Uiso   1.00
C489   C     0.29770   0.46500   0.39840   0.00000  Uiso   1.00
F490   F     0.32610   0.46190   0.29550   0.00000  Uiso   1.00
F491   F     0.65613   0.14657   0.19767   0.00000  Uiso   1.00
C492   C     0.28900   0.49390   0.28600   0.00000  Uiso   1.00
F493   F     0.27390   0.46880   0.15800   0.00000  Uiso   1.00
F494   F     0.32890   0.52970   0.27200   0.00000  Uiso   1.00
F495   F     0.25930   0.49980   0.36500   0.00000  Uiso   1.00
Ag496  Ag    0.67813   0.86100   0.50045   0.00000  Uiso   1.00
O497   O     0.98888   0.33293   0.35207   0.00000  Uiso   1.00
N498   N     0.65680   0.80050   0.64490   0.00000  Uiso   1.00
N499   N     0.79040   0.71800   0.60400   0.00000  Uiso   1.00
C500   C     0.62200   0.78680   0.74150   0.00000  Uiso   1.00
H501   H     0.60880   0.80430   0.75140   0.00000  Uiso   1.00
C502   C     0.93813   0.41477   0.49357   0.00000  Uiso   1.00
H503   H     0.24707   0.07303   0.22633   0.00000  Uiso   1.00
C504   C     0.95703   0.38877   0.48087   0.00000  Uiso   1.00
H505   H     0.94533   0.36217   0.53657   0.00000  Uiso   1.00
C506   C     0.66050   0.73580   0.71750   0.00000  Uiso   1.00
C507   C     0.67610   0.77560   0.63590   0.00000  Uiso   1.00
H508   H     0.70120   0.78540   0.57210   0.00000  Uiso   1.00
C509   C     0.68020   0.70650   0.69590   0.00000  Uiso   1.00
C510   C     0.72930   0.72690   0.68940   0.00000  Uiso   1.00
C511   C     0.09123   0.43147   0.43487   0.00000  Uiso   1.00
H512   H     0.08043   0.44717   0.49117   0.00000  Uiso   1.00
C513   C     0.80310   0.77990   0.76410   0.00000  Uiso   1.00
H514   H     0.15653   0.47247   0.48357   0.00000  Uiso   1.00
C515   C     0.81740   0.75580   0.68060   0.00000  Uiso   1.00
H516   H     0.84780   0.76620   0.67690   0.00000  Uiso   1.00
C517   C     0.74700   0.70360   0.60970   0.00000  Uiso   1.00
H518   H     0.72760   0.67700   0.55910   0.00000  Uiso   1.00
C519   C     0.58510   0.84240   0.44150   0.00000  Uiso   1.00
O520   O     0.26917   0.16653   0.67423   0.00000  Uiso   1.00
O521   O     0.60070   0.86020   0.57030   0.00000  Uiso   1.00
C522   C     0.20167   0.16603   0.73173   0.00000  Uiso   1.00
F523   F     0.20477   0.19753   0.62883   0.00000  Uiso   1.00
F524   F     0.52010   0.84290   0.53100   0.00000  Uiso   1.00
C525   C     0.17277   0.12843   0.61933   0.00000  Uiso   1.00
F526   F     0.19787   0.13843   0.49133   0.00000  Uiso   1.00
F527   F     0.13697   0.13253   0.60533   0.00000  Uiso   1.00
F528   F     0.16687   0.09283   0.69833   0.00000  Uiso   1.00
Ag529  Ag    0.34480   0.19433   0.83378   0.00000  Uiso   1.00
O530   O     0.65555   0.66626   0.68540   0.00000  Uiso   1.00
N531   N     0.32347   0.13383   0.97823   0.00000  Uiso   1.00
N532   N     0.45707   0.05133   0.93733   0.00000  Uiso   1.00
C533   C     0.28867   0.12013   0.07483   0.00000  Uiso   1.00
H534   H     0.27547   0.13763   0.08473   0.00000  Uiso   1.00
C535   C     0.60480   0.74810   0.82690   0.00000  Uiso   1.00
H536   H     0.91373   0.40637   0.55967   0.00000  Uiso   1.00
C537   C     0.62370   0.72210   0.81420   0.00000  Uiso   1.00
H538   H     0.61200   0.69550   0.86990   0.00000  Uiso   1.00
C539   C     0.32717   0.06913   0.05083   0.00000  Uiso   1.00
C540   C     0.34277   0.10893   0.96923   0.00000  Uiso   1.00
H541   H     0.36787   0.11873   0.90543   0.00000  Uiso   1.00
C542   C     0.34687   0.03983   0.02923   0.00000  Uiso   1.00
C543   C     0.39597   0.06023   0.02273   0.00000  Uiso   1.00
C544   C     0.75790   0.76480   0.76820   0.00000  Uiso   1.00
H545   H     0.74710   0.78050   0.82450   0.00000  Uiso   1.00
C546   C     0.46977   0.11323   0.09743   0.00000  Uiso   1.00
H547   H     0.82320   0.80580   0.81690   0.00000  Uiso   1.00
C548   C     0.48407   0.08913   0.01393   0.00000  Uiso   1.00
H549   H     0.51447   0.09953   0.01023   0.00000  Uiso   1.00
C550   C     0.41367   0.03693   0.94303   0.00000  Uiso   1.00
H551   H     0.39427   0.01033   0.89243   0.00000  Uiso   1.00
C552   C     0.25177   0.17573   0.77483   0.00000  Uiso   1.00
O553   O     0.93583   0.49987   0.00757   0.00000  Uiso   1.00
O554   O     0.26737   0.19353   0.90363   0.00000  Uiso   1.00
C555   C     0.86833   0.49937   0.06507   0.00000  Uiso   1.00
F556   F     0.87143   0.53087  -0.03783   0.00000  Uiso   1.00
F557   F     0.18677   0.17623   0.86433   0.00000  Uiso   1.00
C558   C     0.83943   0.46177  -0.04733   0.00000  Uiso   1.00
F559   F     0.86453   0.47177  -0.17533   0.00000  Uiso   1.00
F560   F     0.80363   0.46587  -0.06133   0.00000  Uiso   1.00
F561   F     0.83353   0.42617   0.03167   0.00000  Uiso   1.00
Ag562  Ag    0.01146   0.52767   0.16712   0.00000  Uiso   1.00
O563   O     0.32222   0.99959   0.01873   0.00000  Uiso   1.00
N564   N     0.99013   0.46717   0.31157   0.00000  Uiso   1.00
N565   N     0.12373   0.38467   0.27067   0.00000  Uiso   1.00
C566   C     0.95533   0.45347   0.40817   0.00000  Uiso   1.00
H567   H     0.94213   0.47097   0.41807   0.00000  Uiso   1.00
C568   C     0.27147   0.08143   0.16023   0.00000  Uiso   1.00
H569   H     0.58040   0.73970   0.89300   0.00000  Uiso   1.00
C570   C     0.29037   0.05543   0.14753   0.00000  Uiso   1.00
H571   H     0.27867   0.02883   0.20323   0.00000  Uiso   1.00
C572   C     0.99383   0.40247   0.38417   0.00000  Uiso   1.00
C573   C     0.00943   0.44227   0.30257   0.00000  Uiso   1.00
H574   H     0.03453   0.45207   0.23877   0.00000  Uiso   1.00
C575   C     0.01353   0.37317   0.36257   0.00000  Uiso   1.00
C576   C     0.06263   0.39357   0.35607   0.00000  Uiso   1.00
C577   C     0.42457   0.09813   0.10153   0.00000  Uiso   1.00
H578   H     0.41377   0.11383   0.15783   0.00000  Uiso   1.00
C579   C     0.13643   0.44657   0.43077   0.00000  Uiso   1.00
H580   H     0.48987   0.13913   0.15023   0.00000  Uiso   1.00
C581   C     0.15073   0.42247   0.34727   0.00000  Uiso   1.00
H582   H     0.18113   0.43287   0.34357   0.00000  Uiso   1.00
C583   C     0.08033   0.37027   0.27637   0.00000  Uiso   1.00
H584   H     0.06093   0.34367   0.22577   0.00000  Uiso   1.00
C585   C     0.91843   0.50907   0.10817   0.00000  Uiso   1.00
O586   O     0.60250   0.83320   0.34090   0.00000  Uiso   1.00
O587   O     0.93403   0.52687   0.23697   0.00000  Uiso   1.00
C588   C     0.53500   0.83270   0.39840   0.00000  Uiso   1.00
F589   F     0.53810   0.86420   0.29550   0.00000  Uiso   1.00
F590   F     0.85343   0.50957   0.19767   0.00000  Uiso   1.00
C591   C     0.50610   0.79510   0.28600   0.00000  Uiso   1.00
F592   F     0.53120   0.80510   0.15800   0.00000  Uiso   1.00
F593   F     0.47030   0.79920   0.27200   0.00000  Uiso   1.00
F594   F     0.50020   0.75950   0.36500   0.00000  Uiso   1.00
loop_
_geom_bond_atom_site_label_1
_geom_bond_atom_site_label_2
_geom_bond_distance
_geom_bond_site_symmetry_2
_ccdc_geom_bond_type
Ag1    N3      2.208   .     S
Ag1    Ag331   3.269   .     S
Ag1    N400    2.197   .     S
O2     C47     1.223   .     D
N3     C5      1.330   .     A
N3     C12     1.334   .     A
N4     C20     1.336   .     A
N4     C22     1.329   .     A
N4     Ag496   2.197   .     S
C5     H6      0.929   .     S
C5     C73     1.369   .     A
C7     C38     1.369   .     A
C7     H74     0.929   .     S
C7     C9      1.359   .     A
H8     C40     0.929   .     S
C9     H10     0.928   .     S
C9     C44     1.382   .     A
C11    C75     1.382   .     A
C11    C12     1.387   .     A
C11    C14     1.493   .     S
C12    H13     0.930   .     S
C14    O68     1.223   .     D
C14    C15     1.483   1_545 S
C15    C22     1.406   .     A
C15    C14     1.483   1_565 S
C15    C82     1.359   1_565 S
C16    C48     1.359   .     A
C16    H17     0.930   .     S
C16    C51     1.383   .     A
C18    H85     0.930   .     S
C18    C20     1.361   .     A
C18    C82     1.383   1_565 D
H19    C51     0.930   .     S
C20    H21     0.929   .     S
C22    H23     0.930   .     S
C24    O58     1.172   .     A
C24    O26     1.230   .     A
C24    C60     1.637   .     S
O25    C90     1.172   .     A
C27    C90     1.637   .     S
C27    F28     1.355   .     S
C27    F95     1.348   .     S
C27    C30     1.514   .     S
F29    C60     1.348   .     S
C30    F31     1.317   .     S
C30    F32     1.324   .     S
C30    F33     1.325   .     S
Ag34   N36     2.208   .     S
Ag34   N433    2.197   .     S
Ag34   Ag364   3.269   1_556 A
O35    C80     1.223   1_655 A
N36    C38     1.330   .     A
N36    C45     1.334   .     A
N37    C53     1.336   .     A
N37    C55     1.329   .     A
N37    Ag529   2.197   .     S
C38    H39     0.929   .     S
C40    C71     1.369   .     A
C40    C42     1.359   .     A
H41    C73     0.929   .     S
C42    H43     0.928   .     S
C42    C77     1.382   .     A
C44    C45     1.387   .     A
C44    C47     1.493   .     S
C45    H46     0.930   .     S
C47    C48     1.483   .     S
C48    C55     1.406   .     A
C49    C81     1.359   .     A
C49    H50     0.930   .     S
C49    C84     1.383   .     A
C51    C53     1.361   .     A
H52    C84     0.930   .     S
C53    H54     0.929   .     S
C55    H56     0.930   .     S
C57    O91     1.172   .     A
C57    O59     1.230   .     A
C57    C93     1.637   .     S
C60    F61     1.355   .     S
C60    C63     1.514   .     S
F62    C93     1.348   .     S
C63    F64     1.317   .     S
C63    F65     1.324   .     S
C63    F66     1.325   .     S
Ag67   N69     2.208   .     S
Ag67   Ag298   3.269   .     S
Ag67   N466    2.197   .     S
N69    C78     1.334   .     A
N69    C71     1.330   1_554 A
N70    C88     1.329   .     A
N70    Ag562   2.197   .     S
N70    C86     1.336   1_554 A
C71    H72     0.929   .     S
C71    N69     1.330   1_556 A
C73    C75     1.359   .     A
C75    H76     0.928   .     S
C77    C80     1.493   .     S
C77    C78     1.387   1_556 S
C78    H79     0.930   .     S
C78    C77     1.387   1_554 S
C80    C81     1.483   .     S
C80    O35     1.223   1_455 A
C81    C88     1.406   1_556 S
C82    H83     0.930   .     S
C82    C15     1.359   1_545 S
C82    C18     1.383   1_545 D
C84    C86     1.361   .     A
C86    H87     0.929   .     S
C86    N70     1.336   1_556 A
C88    H89     0.930   .     S
C88    C81     1.406   1_554 S
C90    O92     1.230   .     A
C93    F94     1.355   .     S
C93    C96     1.514   .     S
C96    F97     1.317   .     S
C96    F98     1.324   .     S
C96    F99     1.325   .     S
Ag100  N102    2.208   .     S
Ag100  Ag430   3.269   .     S
Ag100  N499    2.197   .     S
O101   C146    1.223   1_565 A
N102   C104    1.330   .     A
N102   C111    1.334   .     A
N103   C119    1.336   .     A
N103   C121    1.329   .     A
N103   Ag298   2.197   .     S
C104   H105    0.929   .     S
C104   C172    1.369   .     A
C106   C137    1.369   .     A
C106   H173    0.929   .     S
C106   C108    1.359   .     A
H107   C139    0.929   .     S
C108   H109    0.928   .     S
C108   C143    1.382   .     A
C110   C174    1.382   .     A
C110   C111    1.387   .     A
C110   C113    1.493   .     S
C111   H112    0.930   .     S
C113   O167    1.223   .     D
C113   C114    1.483   1_655 A
C114   C121    1.406   .     A
C114   C113    1.483   1_455 A
C114   C181    1.359   1_455 S
C115   C147    1.359   .     A
C115   H116    0.930   .     S
C115   C150    1.383   .     A
C117   H184    0.930   .     S
C117   C119    1.361   .     A
C117   C181    1.383   1_455 D
H118   C150    0.930   .     S
C119   H120    0.929   .     S
C121   H122    0.930   .     S
C123   O157    1.172   .     A
C123   O125    1.230   .     A
C123   C159    1.637   .     S
O124   C189    1.172   .     A
C126   C189    1.637   .     S
C126   F127    1.355   .     S
C126   F194    1.348   .     S
C126   C129    1.514   .     S
F128   C159    1.348   .     S
C129   F130    1.317   .     S
C129   F131    1.324   .     S
C129   F132    1.325   .     S
Ag133  N532    2.197   .     S
Ag133  N135    2.208   1_545 A
Ag133  Ag463   3.269   1_546 A
O134   C179    1.223   .     D
N135   C137    1.330   .     A
N135   Ag133   2.208   1_565 A
N135   C144    1.334   1_565 A
N136   C152    1.336   .     A
N136   C154    1.329   .     A
N136   Ag331   2.197   .     S
C137   H138    0.929   .     S
C139   C170    1.369   .     A
C139   C141    1.359   .     A
H140   C172    0.929   .     S
C141   H142    0.928   .     S
C141   C176    1.382   .     A
C143   C144    1.387   1_565 S
C143   C146    1.493   1_565 A
C144   H145    0.930   .     S
C144   N135    1.334   1_545 A
C144   C143    1.387   1_545 S
C146   C147    1.483   .     S
C146   O101    1.223   1_545 A
C146   C143    1.493   1_545 A
C147   C154    1.406   .     A
C148   C180    1.359   .     A
C148   H149    0.930   .     S
C148   C183    1.383   .     A
C150   C152    1.361   .     A
H151   C183    0.930   .     S
C152   H153    0.929   .     S
C154   H155    0.930   .     S
C156   O190    1.172   .     A
C156   O158    1.230   .     A
C156   C192    1.637   .     S
C159   F160    1.355   .     S
C159   C162    1.514   .     S
F161   C192    1.348   .     S
C162   F163    1.317   .     S
C162   F164    1.324   .     S
C162   F165    1.325   .     S
Ag166  N168    2.208   .     S
Ag166  Ag397   3.269   .     S
Ag166  N565    2.197   .     S
N168   C177    1.334   .     A
N168   C170    1.330   1_554 A
N169   C187    1.329   .     A
N169   Ag364   2.197   .     S
N169   C185    1.336   1_554 S
C170   H171    0.929   .     S
C170   N168    1.330   1_556 A
C172   C174    1.359   .     A
C174   H175    0.928   .     S
C176   C179    1.493   .     S
C176   C177    1.387   1_556 S
C177   H178    0.930   .     S
C177   C176    1.387   1_554 S
C179   C180    1.483   .     S
C180   C187    1.406   1_556 S
C181   H182    0.930   .     S
C181   C114    1.359   1_655 S
C181   C117    1.383   1_655 D
C183   C185    1.361   .     A
C185   H186    0.929   .     S
C185   N169    1.336   1_556 S
C187   H188    0.930   .     S
C187   C180    1.406   1_554 S
C189   O191    1.230   .     A
C192   F193    1.355   .     S
C192   C195    1.514   .     S
C195   F196    1.317   .     S
C195   F197    1.324   .     S
C195   F198    1.325   .     S
Ag199  N201    2.208   .     S
Ag199  Ag529   3.269   .     S
Ag199  N301    2.197   .     S
O200   C245    1.223   1_455 S
N201   C203    1.330   .     A
N201   C210    1.334   .     A
N202   C218    1.336   .     A
N202   C220    1.329   .     A
N202   Ag397   2.197   .     S
C203   H204    0.929   .     S
C203   C271    1.369   .     A
C205   C236    1.369   .     A
C205   H272    0.929   .     S
C205   C207    1.359   .     A
H206   C238    0.929   .     S
C207   H208    0.928   .     S
C207   C242    1.382   .     A
C209   C273    1.382   .     A
C209   C210    1.387   .     A
C209   C212    1.493   .     S
C210   H211    0.930   .     S
C212   O266    1.223   .     D
C212   C213    1.483   .     S
C213   C280    1.359   .     A
C213   C220    1.406   .     A
C214   C246    1.359   .     A
C214   H215    0.930   .     S
C214   C249    1.383   .     A
C216   C280    1.383   .     A
C216   H283    0.930   .     S
C216   C218    1.361   .     A
H217   C249    0.930   .     S
C218   H219    0.929   .     S
C220   H221    0.930   .     S
C222   O256    1.172   .     A
C222   O224    1.230   .     A
C222   C258    1.637   .     S
O223   C288    1.172   .     A
C225   C288    1.637   .     S
C225   F226    1.355   .     S
C225   F293    1.348   .     S
C225   C228    1.514   .     S
F227   C258    1.348   .     S
C228   F229    1.317   .     S
C228   F230    1.324   .     S
C228   F231    1.325   .     S
Ag232  N334    2.197   .     S
Ag232  N234    2.208   1_655 S
Ag232  Ag562   3.269   1_656 S
O233   C278    1.223   1_545 A
N234   C236    1.330   .     A
N234   Ag232   2.208   1_455 S
N234   C243    1.334   1_455 A
N235   C251    1.336   .     A
N235   C253    1.329   .     A
N235   Ag430   2.197   .     S
C236   H237    0.929   .     S
C238   C269    1.369   .     A
C238   C240    1.359   .     A
H239   C271    0.929   .     S
C240   H241    0.928   .     S
C240   C275    1.382   .     A
C242   C243    1.387   1_455 A
C242   C245    1.493   1_455 S
C243   H244    0.930   .     S
C243   N234    1.334   1_655 A
C243   C242    1.387   1_655 A
C245   C246    1.483   .     S
C245   O200    1.223   1_655 S
C245   C242    1.493   1_655 S
C246   C253    1.406   .     A
C247   C279    1.359   .     A
C247   H248    0.930   .     S
C247   C282    1.383   .     A
C249   C251    1.361   .     A
H250   C282    0.930   .     S
C251   H252    0.929   .     S
C253   H254    0.930   .     S
C255   O289    1.172   .     A
C255   O257    1.230   .     A
C255   C291    1.637   .     S
C258   F259    1.355   .     S
C258   C261    1.514   .     S
F260   C291    1.348   .     S
C261   F262    1.317   .     S
C261   F263    1.324   .     S
C261   F264    1.325   .     S
Ag265  N267    2.208   .     S
Ag265  Ag496   3.269   .     S
Ag265  N367    2.197   .     S
N267   C276    1.334   .     A
N267   C269    1.330   1_554 S
N268   C286    1.329   .     A
N268   Ag463   2.197   .     S
N268   C284    1.336   1_554 A
C269   H270    0.929   .     S
C269   N267    1.330   1_556 S
C271   C273    1.359   .     A
C273   H274    0.928   .     S
C275   C278    1.493   .     S
C275   C276    1.387   1_556 S
C276   H277    0.930   .     S
C276   C275    1.387   1_554 S
C278   C279    1.483   .     S
C278   O233    1.223   1_565 A
C279   C286    1.406   1_556 A
C280   H281    0.930   .     S
C282   C284    1.361   .     A
C284   H285    0.929   .     S
C284   N268    1.336   1_556 A
C286   H287    0.930   .     S
C286   C279    1.406   1_554 A
C288   O290    1.230   .     A
C291   F292    1.355   .     S
C291   C294    1.514   .     S
C294   F295    1.317   .     S
C294   F296    1.324   .     S
C294   F297    1.325   .     S
Ag298  N300    2.208   .     S
O299   C377    1.223   .     D
N300   C302    1.330   .     A
N300   C309    1.334   .     A
N301   C317    1.336   .     A
N301   C319    1.329   .     A
C302   H303    0.929   .     S
C302   C337    1.369   .     A
C304   C368    1.369   .     A
C304   H338    0.929   .     S
C304   C306    1.359   .     A
H305   C370    0.929   .     S
C306   H307    0.928   .     S
C306   C374    1.382   .     A
C308   C339    1.382   .     A
C308   C309    1.387   .     A
C308   C311    1.493   .     S
C309   H310    0.930   .     S
C311   O332    1.223   .     D
C311   C312    1.483   1_565 A
C312   C319    1.406   .     A
C312   C311    1.483   1_545 A
C312   C346    1.359   1_545 S
C313   C378    1.359   .     A
C313   H314    0.930   .     S
C313   C381    1.383   .     A
C315   H349    0.930   .     S
C315   C317    1.361   .     A
C315   C346    1.383   1_545 S
H316   C381    0.930   .     S
C317   H318    0.929   .     S
C319   H320    0.930   .     S
C321   O388    1.172   .     A
C321   O323    1.230   .     A
C321   C390    1.637   .     S
O322   C354    1.172   .     A
C324   C354    1.637   .     S
C324   F325    1.355   .     S
C324   F359    1.348   .     S
C324   C327    1.514   .     S
F326   C390    1.348   .     S
C327   F328    1.317   .     S
C327   F329    1.324   .     S
C327   F330    1.325   .     S
Ag331  N333    2.208   .     S
N333   C342    1.334   .     A
N333   C335    1.330   1_556 S
N334   C352    1.329   .     A
N334   C350    1.336   1_556 A
C335   H336    0.929   .     S
C335   C370    1.369   .     A
C335   N333    1.330   1_554 S
C337   H371    0.929   .     S
C337   C339    1.359   .     A
C339   H340    0.928   .     S
C341   C372    1.382   .     A
C341   C344    1.493   .     S
C341   C342    1.387   1_554 S
C342   H343    0.930   .     S
C342   C341    1.387   1_556 S
C344   C345    1.483   .     S
C344   O365    1.223   1_655 S
C345   C379    1.359   .     A
C345   C352    1.406   1_554 S
C346   H347    0.930   .     S
C346   C312    1.359   1_565 S
C346   C315    1.383   1_565 S
C348   C379    1.383   .     A
C348   H382    0.930   .     S
C348   C350    1.361   .     A
C350   H351    0.929   .     S
C350   N334    1.336   1_554 A
C352   H353    0.930   .     S
C352   C345    1.406   1_556 S
C354   O356    1.230   .     A
O355   C387    1.172   .     A
C357   C387    1.637   .     S
C357   F358    1.355   .     S
C357   F392    1.348   .     S
C357   C360    1.514   .     S
C360   F361    1.317   .     S
C360   F362    1.324   .     S
C360   F363    1.325   .     S
Ag364  N366    2.208   .     S
Ag364  Ag34    3.269   1_554 A
O365   C344    1.223   1_455 S
N366   C368    1.330   .     A
N366   C375    1.334   .     A
N367   C383    1.336   .     A
N367   C385    1.329   .     A
C368   H369    0.929   .     S
C370   C372    1.359   .     A
C372   H373    0.928   .     S
C374   C375    1.387   .     A
C374   C377    1.493   .     S
C375   H376    0.930   .     S
C377   C378    1.483   .     S
C378   C385    1.406   .     A
C379   H380    0.930   .     S
C381   C383    1.361   .     A
C383   H384    0.929   .     S
C385   H386    0.930   .     S
C387   O389    1.230   .     A
C390   F391    1.355   .     S
C390   C393    1.514   .     S
C393   F394    1.317   .     S
C393   F395    1.324   .     S
C393   F396    1.325   .     S
Ag397  N399    2.208   .     S
O398   C476    1.223   1_545 A
N399   C401    1.330   .     A
N399   C408    1.334   .     A
N400   C416    1.336   .     A
N400   C418    1.329   .     A
C401   H402    0.929   .     S
C401   C436    1.369   .     A
C403   C467    1.369   .     A
C403   H437    0.929   .     S
C403   C405    1.359   .     A
H404   C469    0.929   .     S
C405   H406    0.928   .     S
C405   C473    1.382   .     A
C407   C438    1.382   .     A
C407   C408    1.387   .     A
C407   C410    1.493   .     S
C408   H409    0.930   .     S
C410   O431    1.223   .     D
C410   C411    1.483   1_455 A
C411   C418    1.406   .     A
C411   C410    1.483   1_655 A
C411   C445    1.359   1_655 S
C412   C477    1.359   .     A
C412   H413    0.930   .     S
C412   C480    1.383   .     A
C414   H448    0.930   .     S
C414   C416    1.361   .     A
C414   C445    1.383   1_655 A
H415   C480    0.930   .     S
C416   H417    0.929   .     S
C418   H419    0.930   .     S
C420   O487    1.172   .     A
C420   O422    1.230   .     A
C420   C489    1.637   .     S
O421   C453    1.172   .     A
C423   C453    1.637   .     S
C423   F424    1.355   .     S
C423   F458    1.348   .     S
C423   C426    1.514   .     S
F425   C489    1.348   .     S
C426   F427    1.317   .     S
C426   F428    1.324   .     S
C426   F429    1.325   .     S
Ag430  N432    2.208   .     S
N432   C441    1.334   .     A
N432   C434    1.330   1_556 S
N433   C451    1.329   .     A
N433   C449    1.336   1_556 S
C434   H435    0.929   .     S
C434   C469    1.369   .     A
C434   N432    1.330   1_554 S
C436   H470    0.929   .     S
C436   C438    1.359   .     A
C438   H439    0.928   .     S
C440   C471    1.382   .     A
C440   C443    1.493   .     S
C440   C441    1.387   1_554 S
C441   H442    0.930   .     S
C441   C440    1.387   1_556 S
C443   O464    1.223   .     D
C443   C444    1.483   .     S
C444   C478    1.359   .     A
C444   C451    1.406   1_554 A
C445   H446    0.930   .     S
C445   C411    1.359   1_455 S
C445   C414    1.383   1_455 A
C447   C478    1.383   .     A
C447   H481    0.930   .     S
C447   C449    1.361   .     A
C449   H450    0.929   .     S
C449   N433    1.336   1_554 S
C451   H452    0.930   .     S
C451   C444    1.406   1_556 A
C453   O455    1.230   .     A
O454   C486    1.172   .     A
C456   C486    1.637   .     S
C456   F457    1.355   .     S
C456   F491    1.348   .     S
C456   C459    1.514   .     S
C459   F460    1.317   .     S
C459   F461    1.324   .     S
C459   F462    1.325   .     S
Ag463  Ag133   3.269   1_564 A
Ag463  N465    2.208   1_565 S
N465   C467    1.330   .     A
N465   Ag463   2.208   1_545 S
N465   C474    1.334   1_545 S
N466   C482    1.336   .     A
N466   C484    1.329   .     A
C467   H468    0.929   .     S
C469   C471    1.359   .     A
C471   H472    0.928   .     S
C473   C474    1.387   1_545 S
C473   C476    1.493   1_545 S
C474   H475    0.930   .     S
C474   N465    1.334   1_565 S
C474   C473    1.387   1_565 S
C476   C477    1.483   .     S
C476   O398    1.223   1_565 A
C476   C473    1.493   1_565 S
C477   C484    1.406   .     A
C478   H479    0.930   .     S
C480   C482    1.361   .     A
C482   H483    0.929   .     S
C484   H485    0.930   .     S
C486   O488    1.230   .     A
C489   F490    1.355   .     S
C489   C492    1.514   .     S
C492   F493    1.317   .     S
C492   F494    1.324   .     S
C492   F495    1.325   .     S
Ag496  N498    2.208   .     S
O497   C575    1.223   1_655 A
N498   C500    1.330   .     A
N498   C507    1.334   .     A
N499   C515    1.336   .     A
N499   C517    1.329   .     A
C500   H501    0.929   .     S
C500   C535    1.369   .     A
C502   C566    1.369   .     A
C502   H536    0.929   .     S
C502   C504    1.359   .     A
H503   C568    0.929   .     S
C504   H505    0.928   .     S
C504   C572    1.382   .     A
C506   C537    1.382   .     A
C506   C507    1.387   .     A
C506   C509    1.493   .     S
C507   H508    0.930   .     S
C509   O530    1.223   .     D
C509   C510    1.483   .     S
C510   C544    1.359   .     A
C510   C517    1.406   .     A
C511   C576    1.359   .     A
C511   H512    0.930   .     S
C511   C579    1.383   .     A
C513   C544    1.383   .     A
C513   H547    0.930   .     S
C513   C515    1.361   .     A
H514   C579    0.930   .     S
C515   H516    0.929   .     S
C517   H518    0.930   .     S
C519   O586    1.172   .     A
C519   O521    1.230   .     A
C519   C588    1.637   .     S
O520   C552    1.172   .     A
C522   C552    1.637   .     S
C522   F523    1.355   .     S
C522   F557    1.348   .     S
C522   C525    1.514   .     S
F524   C588    1.348   .     S
C525   F526    1.317   .     S
C525   F527    1.324   .     S
C525   F528    1.325   .     S
Ag529  N531    2.208   .     S
N531   C540    1.334   .     A
N531   C533    1.330   1_556 S
N532   C550    1.329   .     A
N532   C548    1.336   1_556 S
C533   H534    0.929   .     S
C533   C568    1.369   .     A
C533   N531    1.330   1_554 S
C535   H569    0.929   .     S
C535   C537    1.359   .     A
C537   H538    0.928   .     S
C539   C570    1.382   .     A
C539   C542    1.493   .     S
C539   C540    1.387   1_554 A
C540   H541    0.930   .     S
C540   C539    1.387   1_556 A
C542   C543    1.483   .     S
C542   O563    1.223   1_545 A
C543   C577    1.359   .     A
C543   C550    1.406   1_554 S
C544   H545    0.930   .     S
C546   C577    1.383   .     A
C546   H580    0.930   .     S
C546   C548    1.361   .     A
C548   H549    0.929   .     S
C548   N532    1.336   1_554 S
C550   H551    0.930   .     S
C550   C543    1.406   1_556 S
C552   O554    1.230   .     A
O553   C585    1.172   .     A
C555   C585    1.637   .     S
C555   F556    1.355   .     S
C555   F590    1.348   .     S
C555   C558    1.514   .     S
C558   F559    1.317   .     S
C558   F560    1.324   .     S
C558   F561    1.325   .     S
Ag562  Ag232   3.269   1_454 S
Ag562  N564    2.208   1_455 A
O563   C542    1.223   1_565 A
N564   C566    1.330   .     A
N564   Ag562   2.208   1_655 A
N564   C573    1.334   1_655 D
N565   C581    1.336   .     A
N565   C583    1.329   .     A
C566   H567    0.929   .     S
C568   C570    1.359   .     A
C570   H571    0.928   .     S
C572   C573    1.387   1_655 A
C572   C575    1.493   1_655 A
C573   H574    0.930   .     S
C573   N564    1.334   1_455 D
C573   C572    1.387   1_455 A
C575   C576    1.483   .     S
C575   O497    1.223   1_455 A
C575   C572    1.493   1_455 A
C576   C583    1.406   .     A
C577   H578    0.930   .     S
C579   C581    1.361   .     A
C581   H582    0.929   .     S
C583   H584    0.930   .     S
C585   O587    1.230   .     A
C588   F589    1.355   .     S
C588   C591    1.514   .     S
C591   F592    1.317   .     S
C591   F593    1.324   .     S
C591   F594    1.325   .     S
