data_FURRUG01_ion_b
_audit_creation_date              2014-07-02
_audit_creation_method            'Materials Studio'
_symmetry_space_group_name_H-M    'P1'
_symmetry_Int_Tables_number       1
_symmetry_cell_setting            triclinic
loop_
_symmetry_equiv_pos_as_xyz
  x,y,z
_cell_length_a                    34.5650
_cell_length_b                    34.5650
_cell_length_c                    8.3337
_cell_angle_alpha                 90.0000
_cell_angle_beta                  90.0000
_cell_angle_gamma                 120.0000
loop_
_atom_site_label
_atom_site_type_symbol
_atom_site_fract_x
_atom_site_fract_y
_atom_site_fract_z
_atom_site_U_iso_or_equiv
_atom_site_adp_type
_atom_site_occupancy
Ag1    Ag    0.32285   0.14043   0.49754   0.00000  Uiso   1.00
O2     O     0.01134   0.66880   0.64573   0.00000  Uiso   1.00
N3     N     0.34402   0.20066   0.35100   0.00000  Uiso   1.00
N4     N     0.20911   0.28324   0.39330   0.00000  Uiso   1.00
C5     C     0.32400   0.22570   0.36170   0.00000  Uiso   1.00
H6     H     0.29890   0.21590   0.42650   0.00000  Uiso   1.00
C7     C     0.33994   0.26555   0.27800   0.00000  Uiso   1.00
C8     C     0.04327   0.61273   0.51073   0.00000  Uiso   1.00
H9     H     0.05497   0.63963   0.45523   0.00000  Uiso   1.00
C10    C     0.06217   0.58603   0.49463   0.00000  Uiso   1.00
H11    H     0.75253   0.92727   0.75767   0.00000  Uiso   1.00
C12    C     0.37870   0.21390   0.25100   0.00000  Uiso   1.00
H13    H     0.39200   0.19640   0.24140   0.00000  Uiso   1.00
C14    C     0.32010   0.29515   0.30150   0.00000  Uiso   1.00
C15    C     0.25300   0.29770   0.38890   0.00000  Uiso   1.00
H16    H     0.27240   0.32410   0.44190   0.00000  Uiso   1.00
C17    C     0.27090   0.27490   0.30840   0.00000  Uiso   1.00
C18    C     0.90867   0.56883   0.56043   0.00000  Uiso   1.00
H19    H     0.91957   0.55293   0.50473   0.00000  Uiso   1.00
C20    C     0.19690   0.22080   0.23170   0.00000  Uiso   1.00
H21    H     0.84357   0.52813   0.51133   0.00000  Uiso   1.00
C22    C     0.18160   0.24490   0.31660   0.00000  Uiso   1.00
H23    H     0.15100   0.23410   0.32070   0.00000  Uiso   1.00
C24    C     0.41620   0.15740   0.54970   0.00000  Uiso   1.00
O25    O     0.39800   0.13960   0.42220   0.00000  Uiso   1.00
O26    O     0.73193   0.83207   0.32987   0.00000  Uiso   1.00
C27    C     0.79693   0.84217   0.20757   0.00000  Uiso   1.00
F28    F     0.48020   0.15560   0.45390   0.00000  Uiso   1.00
F29    F     0.83123   0.89077   0.19967   0.00000  Uiso   1.00
C30    C     0.81413   0.83867   0.37097   0.00000  Uiso   1.00
F31    F     0.78683   0.79407   0.39797   0.00000  Uiso   1.00
F32    F     0.80803   0.86627   0.48167   0.00000  Uiso   1.00
F33    F     0.85863   0.85527   0.36567   0.00000  Uiso   1.00
Ag34   Ag    0.98952   0.47376   0.83087   0.00000  Uiso   1.00
O35    O     0.67800   0.00214   0.97907   0.00000  Uiso   1.00
N36    N     0.01069   0.53399   0.68433   0.00000  Uiso   1.00
N37    N     0.87578   0.61657   0.72663   0.00000  Uiso   1.00
C38    C     0.99067   0.55903   0.69503   0.00000  Uiso   1.00
H39    H     0.96557   0.54923   0.75983   0.00000  Uiso   1.00
C40    C     0.00661   0.59888   0.61133   0.00000  Uiso   1.00
C41    C     0.70993   0.94607   0.84407   0.00000  Uiso   1.00
H42    H     0.72163   0.97297   0.78857   0.00000  Uiso   1.00
C43    C     0.72883   0.91937   0.82797   0.00000  Uiso   1.00
H44    H     0.41920   0.26060   0.09100   0.00000  Uiso   1.00
C45    C     0.04537   0.54723   0.58433   0.00000  Uiso   1.00
H46    H     0.05867   0.52973   0.57473   0.00000  Uiso   1.00
C47    C     0.98677   0.62848   0.63483   0.00000  Uiso   1.00
C48    C     0.91967   0.63103   0.72223   0.00000  Uiso   1.00
H49    H     0.93907   0.65743   0.77523   0.00000  Uiso   1.00
C50    C     0.93757   0.60823   0.64173   0.00000  Uiso   1.00
C51    C     0.57533   0.90217   0.89377   0.00000  Uiso   1.00
H52    H     0.58623   0.88627   0.83807   0.00000  Uiso   1.00
C53    C     0.86357   0.55413   0.56503   0.00000  Uiso   1.00
H54    H     0.51023   0.86147   0.84467   0.00000  Uiso   1.00
C55    C     0.84827   0.57823   0.64993   0.00000  Uiso   1.00
H56    H     0.81767   0.56743   0.65403   0.00000  Uiso   1.00
C57    C     0.08287   0.49073   0.88303   0.00000  Uiso   1.00
O58    O     0.06467   0.47293   0.75553   0.00000  Uiso   1.00
O59    O     0.39860   0.16540   0.66320   0.00000  Uiso   1.00
C60    C     0.46360   0.17550   0.54090   0.00000  Uiso   1.00
F61    F     0.14687   0.48893   0.78723   0.00000  Uiso   1.00
F62    F     0.49790   0.22410   0.53300   0.00000  Uiso   1.00
C63    C     0.48080   0.17200   0.70430   0.00000  Uiso   1.00
F64    F     0.45350   0.12740   0.73130   0.00000  Uiso   1.00
F65    F     0.47470   0.19960   0.81500   0.00000  Uiso   1.00
F66    F     0.52530   0.18860   0.69900   0.00000  Uiso   1.00
Ag67   Ag    0.65618   0.80710   0.16421   0.00000  Uiso   1.00
O68    O     0.34467   0.33547   0.31240   0.00000  Uiso   1.00
N69    N     0.67735   0.86733   0.01767   0.00000  Uiso   1.00
N70    N     0.54244   0.94991   0.05997   0.00000  Uiso   1.00
C71    C     0.65733   0.89237   0.02837   0.00000  Uiso   1.00
H72    H     0.63223   0.88257   0.09317   0.00000  Uiso   1.00
C73    C     0.67327   0.93222   0.94467   0.00000  Uiso   1.00
C74    C     0.37660   0.27940   0.17740   0.00000  Uiso   1.00
H75    H     0.38830   0.30630   0.12190   0.00000  Uiso   1.00
C76    C     0.39550   0.25270   0.16130   0.00000  Uiso   1.00
H77    H     0.08587   0.59393   0.42433   0.00000  Uiso   1.00
C78    C     0.71203   0.88057   0.91767   0.00000  Uiso   1.00
H79    H     0.72533   0.86307   0.90807   0.00000  Uiso   1.00
C80    C     0.65343   0.96182   0.96817   0.00000  Uiso   1.00
C81    C     0.58633   0.96437   0.05557   0.00000  Uiso   1.00
H82    H     0.60573   0.99077   0.10857   0.00000  Uiso   1.00
C83    C     0.60423   0.94157   0.97507   0.00000  Uiso   1.00
C84    C     0.24200   0.23550   0.22710   0.00000  Uiso   1.00
H85    H     0.25290   0.21960   0.17140   0.00000  Uiso   1.00
C86    C     0.53023   0.88747   0.89837   0.00000  Uiso   1.00
H87    H     0.17690   0.19480   0.17800   0.00000  Uiso   1.00
C88    C     0.51493   0.91157   0.98327   0.00000  Uiso   1.00
H89    H     0.48433   0.90077   0.98737   0.00000  Uiso   1.00
C90    C     0.74953   0.82407   0.21637   0.00000  Uiso   1.00
O91    O     0.73133   0.80627   0.08887   0.00000  Uiso   1.00
O92    O     0.06527   0.49873   0.99653   0.00000  Uiso   1.00
C93    C     0.13027   0.50883   0.87423   0.00000  Uiso   1.00
F94    F     0.81353   0.82227   0.12057   0.00000  Uiso   1.00
F95    F     0.16457   0.55743   0.86633   0.00000  Uiso   1.00
C96    C     0.14747   0.50533   1.03763   0.00000  Uiso   1.00
F97    F     0.12017   0.46073   1.06463   0.00000  Uiso   1.00
F98    F     0.14137   0.53293   1.14833   0.00000  Uiso   1.00
F99    F     0.19197   0.52193   1.03233   0.00000  Uiso   1.00
Ag100  Ag    0.85957   0.18242   0.49754   0.00000  Uiso   1.00
O101   O     0.33120   0.34253   0.64573   0.00000  Uiso   1.00
N102   N     0.79934   0.14336   0.35100   0.00000  Uiso   1.00
N103   N     0.71676   0.92587   0.39330   0.00000  Uiso   1.00
C104   C     0.77430   0.09830   0.36170   0.00000  Uiso   1.00
H105   H     0.78410   0.08300   0.42650   0.00000  Uiso   1.00
C106   C     0.73445   0.07439   0.27800   0.00000  Uiso   1.00
C107   C     0.38727   0.43053   0.51073   0.00000  Uiso   1.00
H108   H     0.36037   0.41533   0.45523   0.00000  Uiso   1.00
C109   C     0.41397   0.47613   0.49463   0.00000  Uiso   1.00
H110   H     0.07273   0.82527   0.75767   0.00000  Uiso   1.00
C111   C     0.78610   0.16480   0.25100   0.00000  Uiso   1.00
H112   H     0.80360   0.19560   0.24140   0.00000  Uiso   1.00
C113   C     0.70485   0.02495   0.30150   0.00000  Uiso   1.00
C114   C     0.70230   0.95530   0.38890   0.00000  Uiso   1.00
H115   H     0.67590   0.94830   0.44190   0.00000  Uiso   1.00
C116   C     0.72510   0.99600   0.30840   0.00000  Uiso   1.00
C117   C     0.43117   0.33983   0.56043   0.00000  Uiso   1.00
H118   H     0.44707   0.36663   0.50473   0.00000  Uiso   1.00
C119   C     0.77920   0.97610   0.23170   0.00000  Uiso   1.00
H120   H     0.47187   0.31543   0.51133   0.00000  Uiso   1.00
C121   C     0.75510   0.93670   0.31660   0.00000  Uiso   1.00
H122   H     0.76590   0.91690   0.32070   0.00000  Uiso   1.00
C123   C     0.84260   0.25880   0.54970   0.00000  Uiso   1.00
O124   O     0.86040   0.25840   0.42220   0.00000  Uiso   1.00
O125   O     0.16793   0.89987   0.32987   0.00000  Uiso   1.00
C126   C     0.15783   0.95477   0.20757   0.00000  Uiso   1.00
F127   F     0.84440   0.32460   0.45390   0.00000  Uiso   1.00
F128   F     0.10923   0.94047   0.19967   0.00000  Uiso   1.00
C129   C     0.16133   0.97547   0.37097   0.00000  Uiso   1.00
F130   F     0.20593   0.99277   0.39797   0.00000  Uiso   1.00
F131   F     0.13373   0.94177   0.48167   0.00000  Uiso   1.00
F132   F     0.14473   1.00337   0.36567   0.00000  Uiso   1.00
Ag133  Ag    0.52624   0.51575   0.83087   0.00000  Uiso   1.00
O134   O     0.99786   0.67587   0.97907   0.00000  Uiso   1.00
N135   N     0.46601   0.47669   0.68433   0.00000  Uiso   1.00
N136   N     0.38343   0.25920   0.72663   0.00000  Uiso   1.00
C137   C     0.44097   0.43163   0.69503   0.00000  Uiso   1.00
H138   H     0.45077   0.41633   0.75983   0.00000  Uiso   1.00
C139   C     0.40112   0.40772   0.61133   0.00000  Uiso   1.00
C140   C     0.05393   0.76387   0.84407   0.00000  Uiso   1.00
H141   H     0.02703   0.74867   0.78857   0.00000  Uiso   1.00
C142   C     0.08063   0.80947   0.82797   0.00000  Uiso   1.00
H143   H     0.73940   0.15860   0.09100   0.00000  Uiso   1.00
C144   C     0.45277   0.49813   0.58433   0.00000  Uiso   1.00
H145   H     0.47027   0.52893   0.57473   0.00000  Uiso   1.00
C146   C     0.37152   0.35828   0.63483   0.00000  Uiso   1.00
C147   C     0.36897   0.28863   0.72223   0.00000  Uiso   1.00
H148   H     0.34257   0.28163   0.77523   0.00000  Uiso   1.00
C149   C     0.39177   0.32933   0.64173   0.00000  Uiso   1.00
C150   C     0.09783   0.67317   0.89377   0.00000  Uiso   1.00
H151   H     0.11373   0.69997   0.83807   0.00000  Uiso   1.00
C152   C     0.44587   0.30943   0.56503   0.00000  Uiso   1.00
H153   H     0.13853   0.64877   0.84467   0.00000  Uiso   1.00
C154   C     0.42177   0.27003   0.64993   0.00000  Uiso   1.00
H155   H     0.43257   0.25023   0.65403   0.00000  Uiso   1.00
C156   C     0.50927   0.59213   0.88303   0.00000  Uiso   1.00
O157   O     0.52707   0.59173   0.75553   0.00000  Uiso   1.00
O158   O     0.83460   0.23320   0.66320   0.00000  Uiso   1.00
C159   C     0.82450   0.28810   0.54090   0.00000  Uiso   1.00
F160   F     0.51107   0.65793   0.78723   0.00000  Uiso   1.00
F161   F     0.77590   0.27380   0.53300   0.00000  Uiso   1.00
C162   C     0.82800   0.30880   0.70430   0.00000  Uiso   1.00
F163   F     0.87260   0.32610   0.73130   0.00000  Uiso   1.00
F164   F     0.80040   0.27510   0.81500   0.00000  Uiso   1.00
F165   F     0.81140   0.33670   0.69900   0.00000  Uiso   1.00
Ag166  Ag    0.19290   0.84909   0.16421   0.00000  Uiso   1.00
O167   O     0.66453   0.00920   0.31240   0.00000  Uiso   1.00
N168   N     0.13267   0.81003   0.01767   0.00000  Uiso   1.00
N169   N     0.05009   0.59254   0.05997   0.00000  Uiso   1.00
C170   C     0.10763   0.76497   0.02837   0.00000  Uiso   1.00
H171   H     0.11743   0.74967   0.09317   0.00000  Uiso   1.00
C172   C     0.06778   0.74106   0.94467   0.00000  Uiso   1.00
C173   C     0.72060   0.09720   0.17740   0.00000  Uiso   1.00
H174   H     0.69370   0.08200   0.12190   0.00000  Uiso   1.00
C175   C     0.74730   0.14280   0.16130   0.00000  Uiso   1.00
H176   H     0.40607   0.49193   0.42433   0.00000  Uiso   1.00
C177   C     0.11943   0.83147   0.91767   0.00000  Uiso   1.00
H178   H     0.13693   0.86227   0.90807   0.00000  Uiso   1.00
C179   C     0.03818   0.69162   0.96817   0.00000  Uiso   1.00
C180   C     0.03563   0.62197   0.05557   0.00000  Uiso   1.00
H181   H     0.00923   0.61497   0.10857   0.00000  Uiso   1.00
C182   C     0.05843   0.66267   0.97507   0.00000  Uiso   1.00
C183   C     0.76450   0.00650   0.22710   0.00000  Uiso   1.00
H184   H     0.78040   0.03330   0.17140   0.00000  Uiso   1.00
C185   C     0.11253   0.64277   0.89837   0.00000  Uiso   1.00
H186   H     0.80520   0.98210   0.17800   0.00000  Uiso   1.00
C187   C     0.08843   0.60337   0.98327   0.00000  Uiso   1.00
H188   H     0.09923   0.58357   0.98737   0.00000  Uiso   1.00
C189   C     0.17593   0.92547   0.21637   0.00000  Uiso   1.00
O190   O     0.19373   0.92507   0.08887   0.00000  Uiso   1.00
O191   O     0.50127   0.56653   0.99653   0.00000  Uiso   1.00
C192   C     0.49117   0.62143   0.87423   0.00000  Uiso   1.00
F193   F     0.17773   0.99127   0.12057   0.00000  Uiso   1.00
F194   F     0.44257   0.60713   0.86633   0.00000  Uiso   1.00
C195   C     0.49467   0.64213   1.03763   0.00000  Uiso   1.00
F196   F     0.53927   0.65943   1.06463   0.00000  Uiso   1.00
F197   F     0.46707   0.60843   1.14833   0.00000  Uiso   1.00
F198   F     0.47807   0.67003   1.03233   0.00000  Uiso   1.00
Ag199  Ag    0.81758   0.67715   0.49754   0.00000  Uiso   1.00
O200   O     0.65747   0.98866   0.64573   0.00000  Uiso   1.00
N201   N     0.85664   0.65598   0.35100   0.00000  Uiso   1.00
N202   N     0.07413   0.79089   0.39330   0.00000  Uiso   1.00
C203   C     0.90170   0.67600   0.36170   0.00000  Uiso   1.00
H204   H     0.91700   0.70110   0.42650   0.00000  Uiso   1.00
C205   C     0.92561   0.66006   0.27800   0.00000  Uiso   1.00
C206   C     0.56947   0.95673   0.51073   0.00000  Uiso   1.00
H207   H     0.58467   0.94503   0.45523   0.00000  Uiso   1.00
C208   C     0.52387   0.93783   0.49463   0.00000  Uiso   1.00
H209   H     0.17473   0.24747   0.75767   0.00000  Uiso   1.00
C210   C     0.83520   0.62130   0.25100   0.00000  Uiso   1.00
H211   H     0.80440   0.60800   0.24140   0.00000  Uiso   1.00
C212   C     0.97505   0.67990   0.30150   0.00000  Uiso   1.00
C213   C     0.04470   0.74700   0.38890   0.00000  Uiso   1.00
H214   H     0.05170   0.72760   0.44190   0.00000  Uiso   1.00
C215   C     0.00400   0.72910   0.30840   0.00000  Uiso   1.00
C216   C     0.66017   0.09133   0.56043   0.00000  Uiso   1.00
H217   H     0.63337   0.08043   0.50473   0.00000  Uiso   1.00
C218   C     0.02390   0.80310   0.23170   0.00000  Uiso   1.00
H219   H     0.68457   0.15643   0.51133   0.00000  Uiso   1.00
C220   C     0.06330   0.81840   0.31660   0.00000  Uiso   1.00
H221   H     0.08310   0.84900   0.32070   0.00000  Uiso   1.00
C222   C     0.74120   0.58380   0.54970   0.00000  Uiso   1.00
O223   O     0.74160   0.60200   0.42220   0.00000  Uiso   1.00
O224   O     0.10013   0.26807   0.32987   0.00000  Uiso   1.00
C225   C     0.04523   0.20307   0.20757   0.00000  Uiso   1.00
F226   F     0.67540   0.51980   0.45390   0.00000  Uiso   1.00
F227   F     0.05953   0.16877   0.19967   0.00000  Uiso   1.00
C228   C     0.02453   0.18587   0.37097   0.00000  Uiso   1.00
F229   F     0.00723   0.21317   0.39797   0.00000  Uiso   1.00
F230   F     0.05823   0.19197   0.48167   0.00000  Uiso   1.00
F231   F    -0.00337   0.14137   0.36567   0.00000  Uiso   1.00
Ag232  Ag    0.48425   0.01048   0.83087   0.00000  Uiso   1.00
O233   O     0.32413   0.32200   0.97907   0.00000  Uiso   1.00
N234   N     0.52331   0.98931   0.68433   0.00000  Uiso   1.00
N235   N     0.74080   0.12422   0.72663   0.00000  Uiso   1.00
C236   C     0.56837   0.00933   0.69503   0.00000  Uiso   1.00
H237   H     0.58367   0.03443   0.75983   0.00000  Uiso   1.00
C238   C     0.59228   0.99339   0.61133   0.00000  Uiso   1.00
C239   C     0.23613   0.29007   0.84407   0.00000  Uiso   1.00
H240   H     0.25133   0.27837   0.78857   0.00000  Uiso   1.00
C241   C     0.19053   0.27117   0.82797   0.00000  Uiso   1.00
H242   H     0.84140   0.58080   0.09100   0.00000  Uiso   1.00
C243   C     0.50187   0.95463   0.58433   0.00000  Uiso   1.00
H244   H     0.47107   0.94133   0.57473   0.00000  Uiso   1.00
C245   C     0.64172   0.01323   0.63483   0.00000  Uiso   1.00
C246   C     0.71137   0.08033   0.72223   0.00000  Uiso   1.00
H247   H     0.71837   0.06093   0.77523   0.00000  Uiso   1.00
C248   C     0.67067   0.06243   0.64173   0.00000  Uiso   1.00
C249   C     0.32683   0.42467   0.89377   0.00000  Uiso   1.00
H250   H     0.30003   0.41377   0.83807   0.00000  Uiso   1.00
C251   C     0.69057   0.13643   0.56503   0.00000  Uiso   1.00
H252   H     0.35123   0.48977   0.84467   0.00000  Uiso   1.00
C253   C     0.72997   0.15173   0.64993   0.00000  Uiso   1.00
H254   H     0.74977   0.18233   0.65403   0.00000  Uiso   1.00
C255   C     0.40787   0.91713   0.88303   0.00000  Uiso   1.00
O256   O     0.40827   0.93533   0.75553   0.00000  Uiso   1.00
O257   O     0.76680   0.60140   0.66320   0.00000  Uiso   1.00
C258   C     0.71190   0.53640   0.54090   0.00000  Uiso   1.00
F259   F     0.34207   0.85313   0.78723   0.00000  Uiso   1.00
F260   F     0.72620   0.50210   0.53300   0.00000  Uiso   1.00
C261   C     0.69120   0.51920   0.70430   0.00000  Uiso   1.00
F262   F     0.67390   0.54650   0.73130   0.00000  Uiso   1.00
F263   F     0.72490   0.52530   0.81500   0.00000  Uiso   1.00
F264   F     0.66330   0.47470   0.69900   0.00000  Uiso   1.00
Ag265  Ag    0.15091   0.34382   0.16421   0.00000  Uiso   1.00
O266   O     0.99080   0.65533   0.31240   0.00000  Uiso   1.00
N267   N     0.18997   0.32265   0.01767   0.00000  Uiso   1.00
N268   N     0.40746   0.45756   0.05997   0.00000  Uiso   1.00
C269   C     0.23503   0.34267   0.02837   0.00000  Uiso   1.00
H270   H     0.25033   0.36777   0.09317   0.00000  Uiso   1.00
C271   C     0.25894   0.32673   0.94467   0.00000  Uiso   1.00
C272   C     0.90280   0.62340   0.17740   0.00000  Uiso   1.00
H273   H     0.91800   0.61170   0.12190   0.00000  Uiso   1.00
C274   C     0.85720   0.60450   0.16130   0.00000  Uiso   1.00
H275   H     0.50807   0.91413   0.42433   0.00000  Uiso   1.00
C276   C     0.16853   0.28797   0.91767   0.00000  Uiso   1.00
H277   H     0.13773   0.27467   0.90807   0.00000  Uiso   1.00
C278   C     0.30838   0.34657   0.96817   0.00000  Uiso   1.00
C279   C     0.37803   0.41367   0.05557   0.00000  Uiso   1.00
H280   H     0.38503   0.39427   0.10857   0.00000  Uiso   1.00
C281   C     0.33733   0.39577   0.97507   0.00000  Uiso   1.00
C282   C     0.99350   0.75800   0.22710   0.00000  Uiso   1.00
H283   H     0.96670   0.74710   0.17140   0.00000  Uiso   1.00
C284   C     0.35723   0.46977   0.89837   0.00000  Uiso   1.00
H285   H     0.01790   0.82310   0.17800   0.00000  Uiso   1.00
C286   C     0.39663   0.48507   0.98327   0.00000  Uiso   1.00
H287   H     0.41643   0.51567   0.98737   0.00000  Uiso   1.00
C288   C     0.07453   0.25047   0.21637   0.00000  Uiso   1.00
O289   O     0.07493   0.26867   0.08887   0.00000  Uiso   1.00
O290   O     0.43347   0.93473   0.99653   0.00000  Uiso   1.00
C291   C     0.37857   0.86973   0.87423   0.00000  Uiso   1.00
F292   F     0.00873   0.18647   0.12057   0.00000  Uiso   1.00
F293   F     0.39287   0.83543   0.86633   0.00000  Uiso   1.00
C294   C     0.35787   0.85253   1.03763   0.00000  Uiso   1.00
F295   F     0.34057   0.87983   1.06463   0.00000  Uiso   1.00
F296   F     0.39157   0.85863   1.14833   0.00000  Uiso   1.00
F297   F     0.32997   0.80803   1.03233   0.00000  Uiso   1.00
Ag298  Ag    0.67715   0.85957   0.50246   0.00000  Uiso   1.00
O299   O     0.98866   0.33120   0.35427   0.00000  Uiso   1.00
N300   N     0.65598   0.79934   0.64900   0.00000  Uiso   1.00
N301   N     0.79089   0.71676   0.60670   0.00000  Uiso   1.00
C302   C     0.67600   0.77430   0.63830   0.00000  Uiso   1.00
H303   H     0.70110   0.78410   0.57350   0.00000  Uiso   1.00
C304   C     0.66006   0.73445   0.72200   0.00000  Uiso   1.00
C305   C     0.95673   0.38727   0.48927   0.00000  Uiso   1.00
H306   H     0.94503   0.36037   0.54477   0.00000  Uiso   1.00
C307   C     0.93783   0.41397   0.50537   0.00000  Uiso   1.00
H308   H     0.24747   0.07273   0.24233   0.00000  Uiso   1.00
C309   C     0.62130   0.78610   0.74900   0.00000  Uiso   1.00
H310   H     0.60800   0.80360   0.75860   0.00000  Uiso   1.00
C311   C     0.67990   0.70485   0.69850   0.00000  Uiso   1.00
C312   C     0.74700   0.70230   0.61110   0.00000  Uiso   1.00
H313   H     0.72760   0.67590   0.55810   0.00000  Uiso   1.00
C314   C     0.72910   0.72510   0.69160   0.00000  Uiso   1.00
C315   C     0.09133   0.43117   0.43957   0.00000  Uiso   1.00
H316   H     0.08043   0.44707   0.49527   0.00000  Uiso   1.00
C317   C     0.80310   0.77920   0.76830   0.00000  Uiso   1.00
H318   H     0.15643   0.47187   0.48867   0.00000  Uiso   1.00
C319   C     0.81840   0.75510   0.68340   0.00000  Uiso   1.00
H320   H     0.84900   0.76590   0.67930   0.00000  Uiso   1.00
C321   C     0.58380   0.84260   0.45030   0.00000  Uiso   1.00
O322   O     0.60200   0.86040   0.57780   0.00000  Uiso   1.00
O323   O     0.26807   0.16793   0.67013   0.00000  Uiso   1.00
C324   C     0.20307   0.15783   0.79243   0.00000  Uiso   1.00
F325   F     0.51980   0.84440   0.54610   0.00000  Uiso   1.00
F326   F     0.16877   0.10923   0.80033   0.00000  Uiso   1.00
C327   C     0.18587   0.16133   0.62903   0.00000  Uiso   1.00
F328   F     0.21317   0.20593   0.60203   0.00000  Uiso   1.00
F329   F     0.19197   0.13373   0.51833   0.00000  Uiso   1.00
F330   F     0.14137   0.14473   0.63433   0.00000  Uiso   1.00
Ag331  Ag    0.34382   0.19290   0.83579   0.00000  Uiso   1.00
O332   O     0.65533   0.66453   0.68760   0.00000  Uiso   1.00
N333   N     0.32265   0.13267   0.98233   0.00000  Uiso   1.00
N334   N     0.45756   0.05009   0.94003   0.00000  Uiso   1.00
C335   C     0.34267   0.10763   0.97163   0.00000  Uiso   1.00
H336   H     0.36777   0.11743   0.90683   0.00000  Uiso   1.00
C337   C     0.32673   0.06778   0.05533   0.00000  Uiso   1.00
C338   C     0.62340   0.72060   0.82260   0.00000  Uiso   1.00
H339   H     0.61170   0.69370   0.87810   0.00000  Uiso   1.00
C340   C     0.60450   0.74730   0.83870   0.00000  Uiso   1.00
H341   H     0.91413   0.40607   0.57567   0.00000  Uiso   1.00
C342   C     0.28797   0.11943   0.08233   0.00000  Uiso   1.00
H343   H     0.27467   0.13693   0.09193   0.00000  Uiso   1.00
C344   C     0.34657   0.03818   0.03183   0.00000  Uiso   1.00
C345   C     0.41367   0.03563   0.94443   0.00000  Uiso   1.00
H346   H     0.39427   0.00923   0.89143   0.00000  Uiso   1.00
C347   C     0.39577   0.05843   0.02493   0.00000  Uiso   1.00
C348   C     0.75800   0.76450   0.77290   0.00000  Uiso   1.00
H349   H     0.74710   0.78040   0.82860   0.00000  Uiso   1.00
C350   C     0.46977   0.11253   0.10163   0.00000  Uiso   1.00
H351   H     0.82310   0.80520   0.82200   0.00000  Uiso   1.00
C352   C     0.48507   0.08843   0.01673   0.00000  Uiso   1.00
H353   H     0.51567   0.09923   0.01263   0.00000  Uiso   1.00
C354   C     0.25047   0.17593   0.78363   0.00000  Uiso   1.00
O355   O     0.26867   0.19373   0.91113   0.00000  Uiso   1.00
O356   O     0.93473   0.50127   0.00347   0.00000  Uiso   1.00
C357   C     0.86973   0.49117   0.12577   0.00000  Uiso   1.00
F358   F     0.18647   0.17773   0.87943   0.00000  Uiso   1.00
F359   F     0.83543   0.44257   0.13367   0.00000  Uiso   1.00
C360   C     0.85253   0.49467  -0.03763   0.00000  Uiso   1.00
F361   F     0.87983   0.53927  -0.06463   0.00000  Uiso   1.00
F362   F     0.85863   0.46707  -0.14833   0.00000  Uiso   1.00
F363   F     0.80803   0.47807  -0.03233   0.00000  Uiso   1.00
Ag364  Ag    0.01048   0.52624   0.16913   0.00000  Uiso   1.00
O365   O     0.32200   0.99786   0.02093   0.00000  Uiso   1.00
N366   N     0.98931   0.46601   0.31567   0.00000  Uiso   1.00
N367   N     0.12422   0.38343   0.27337   0.00000  Uiso   1.00
C368   C     0.00933   0.44097   0.30497   0.00000  Uiso   1.00
H369   H     0.03443   0.45077   0.24017   0.00000  Uiso   1.00
C370   C     0.99339   0.40112   0.38867   0.00000  Uiso   1.00
C371   C     0.29007   0.05393   0.15593   0.00000  Uiso   1.00
H372   H     0.27837   0.02703   0.21143   0.00000  Uiso   1.00
C373   C     0.27117   0.08063   0.17203   0.00000  Uiso   1.00
H374   H     0.58080   0.73940   0.90900   0.00000  Uiso   1.00
C375   C     0.95463   0.45277   0.41567   0.00000  Uiso   1.00
H376   H     0.94133   0.47027   0.42527   0.00000  Uiso   1.00
C377   C     0.01323   0.37152   0.36517   0.00000  Uiso   1.00
C378   C     0.08033   0.36897   0.27777   0.00000  Uiso   1.00
H379   H     0.06093   0.34257   0.22477   0.00000  Uiso   1.00
C380   C     0.06243   0.39177   0.35827   0.00000  Uiso   1.00
C381   C     0.42467   0.09783   0.10623   0.00000  Uiso   1.00
H382   H     0.41377   0.11373   0.16193   0.00000  Uiso   1.00
C383   C     0.13643   0.44587   0.43497   0.00000  Uiso   1.00
H384   H     0.48977   0.13853   0.15533   0.00000  Uiso   1.00
C385   C     0.15173   0.42177   0.35007   0.00000  Uiso   1.00
H386   H     0.18233   0.43257   0.34597   0.00000  Uiso   1.00
C387   C     0.91713   0.50927   0.11697   0.00000  Uiso   1.00
O388   O     0.93533   0.52707   0.24447   0.00000  Uiso   1.00
O389   O     0.60140   0.83460   0.33680   0.00000  Uiso   1.00
C390   C     0.53640   0.82450   0.45910   0.00000  Uiso   1.00
F391   F     0.85313   0.51107   0.21277   0.00000  Uiso   1.00
F392   F     0.50210   0.77590   0.46700   0.00000  Uiso   1.00
C393   C     0.51920   0.82800   0.29570   0.00000  Uiso   1.00
F394   F     0.54650   0.87260   0.26870   0.00000  Uiso   1.00
F395   F     0.52530   0.80040   0.18500   0.00000  Uiso   1.00
F396   F     0.47470   0.81140   0.30100   0.00000  Uiso   1.00
Ag397  Ag    0.14043   0.81758   0.50246   0.00000  Uiso   1.00
O398   O     0.66880   0.65747   0.35427   0.00000  Uiso   1.00
N399   N     0.20066   0.85664   0.64900   0.00000  Uiso   1.00
N400   N     0.28324   0.07413   0.60670   0.00000  Uiso   1.00
C401   C     0.22570   0.90170   0.63830   0.00000  Uiso   1.00
H402   H     0.21590   0.91700   0.57350   0.00000  Uiso   1.00
C403   C     0.26555   0.92561   0.72200   0.00000  Uiso   1.00
C404   C     0.61273   0.56947   0.48927   0.00000  Uiso   1.00
H405   H     0.63963   0.58467   0.54477   0.00000  Uiso   1.00
C406   C     0.58603   0.52387   0.50537   0.00000  Uiso   1.00
H407   H     0.92727   0.17473   0.24233   0.00000  Uiso   1.00
C408   C     0.21390   0.83520   0.74900   0.00000  Uiso   1.00
H409   H     0.19640   0.80440   0.75860   0.00000  Uiso   1.00
C410   C     0.29515   0.97505   0.69850   0.00000  Uiso   1.00
C411   C     0.29770   0.04470   0.61110   0.00000  Uiso   1.00
H412   H     0.32410   0.05170   0.55810   0.00000  Uiso   1.00
C413   C     0.27490   0.00400   0.69160   0.00000  Uiso   1.00
C414   C     0.56883   0.66017   0.43957   0.00000  Uiso   1.00
H415   H     0.55293   0.63337   0.49527   0.00000  Uiso   1.00
C416   C     0.22080   0.02390   0.76830   0.00000  Uiso   1.00
H417   H     0.52813   0.68457   0.48867   0.00000  Uiso   1.00
C418   C     0.24490   0.06330   0.68340   0.00000  Uiso   1.00
H419   H     0.23410   0.08310   0.67930   0.00000  Uiso   1.00
C420   C     0.15740   0.74120   0.45030   0.00000  Uiso   1.00
O421   O     0.13960   0.74160   0.57780   0.00000  Uiso   1.00
O422   O     0.83207   0.10013   0.67013   0.00000  Uiso   1.00
C423   C     0.84217   0.04523   0.79243   0.00000  Uiso   1.00
F424   F     0.15560   0.67540   0.54610   0.00000  Uiso   1.00
F425   F     0.89077   0.05953   0.80033   0.00000  Uiso   1.00
C426   C     0.83867   0.02453   0.62903   0.00000  Uiso   1.00
F427   F     0.79407   0.00723   0.60203   0.00000  Uiso   1.00
F428   F     0.86627   0.05823   0.51833   0.00000  Uiso   1.00
F429   F     0.85527  -0.00337   0.63433   0.00000  Uiso   1.00
Ag430  Ag    0.80710   0.15091   0.83579   0.00000  Uiso   1.00
O431   O     0.33547   0.99080   0.68760   0.00000  Uiso   1.00
N432   N     0.86733   0.18997   0.98233   0.00000  Uiso   1.00
N433   N     0.94991   0.40746   0.94003   0.00000  Uiso   1.00
C434   C     0.89237   0.23503   0.97163   0.00000  Uiso   1.00
H435   H     0.88257   0.25033   0.90683   0.00000  Uiso   1.00
C436   C     0.93222   0.25894   0.05533   0.00000  Uiso   1.00
C437   C     0.27940   0.90280   0.82260   0.00000  Uiso   1.00
H438   H     0.30630   0.91800   0.87810   0.00000  Uiso   1.00
C439   C     0.25270   0.85720   0.83870   0.00000  Uiso   1.00
H440   H     0.59393   0.50807   0.57567   0.00000  Uiso   1.00
C441   C     0.88057   0.16853   0.08233   0.00000  Uiso   1.00
H442   H     0.86307   0.13773   0.09193   0.00000  Uiso   1.00
C443   C     0.96182   0.30838   0.03183   0.00000  Uiso   1.00
C444   C     0.96437   0.37803   0.94443   0.00000  Uiso   1.00
H445   H     0.99077   0.38503   0.89143   0.00000  Uiso   1.00
C446   C     0.94157   0.33733   0.02493   0.00000  Uiso   1.00
C447   C     0.23550   0.99350   0.77290   0.00000  Uiso   1.00
H448   H     0.21960   0.96670   0.82860   0.00000  Uiso   1.00
C449   C     0.88747   0.35723   0.10163   0.00000  Uiso   1.00
H450   H     0.19480   0.01790   0.82200   0.00000  Uiso   1.00
C451   C     0.91157   0.39663   0.01673   0.00000  Uiso   1.00
H452   H     0.90077   0.41643   0.01263   0.00000  Uiso   1.00
C453   C     0.82407   0.07453   0.78363   0.00000  Uiso   1.00
O454   O     0.80627   0.07493   0.91113   0.00000  Uiso   1.00
O455   O     0.49873   0.43347   0.00347   0.00000  Uiso   1.00
C456   C     0.50883   0.37857   0.12577   0.00000  Uiso   1.00
F457   F     0.82227   0.00873   0.87943   0.00000  Uiso   1.00
F458   F     0.55743   0.39287   0.13367   0.00000  Uiso   1.00
C459   C     0.50533   0.35787  -0.03763   0.00000  Uiso   1.00
F460   F     0.46073   0.34057  -0.06463   0.00000  Uiso   1.00
F461   F     0.53293   0.39157  -0.14833   0.00000  Uiso   1.00
F462   F     0.52193   0.32997  -0.03233   0.00000  Uiso   1.00
Ag463  Ag    0.47376   0.48425   0.16913   0.00000  Uiso   1.00
O464   O     0.00214   0.32413   0.02093   0.00000  Uiso   1.00
N465   N     0.53399   0.52331   0.31567   0.00000  Uiso   1.00
N466   N     0.61657   0.74080   0.27337   0.00000  Uiso   1.00
C467   C     0.55903   0.56837   0.30497   0.00000  Uiso   1.00
H468   H     0.54923   0.58367   0.24017   0.00000  Uiso   1.00
C469   C     0.59888   0.59228   0.38867   0.00000  Uiso   1.00
C470   C     0.94607   0.23613   0.15593   0.00000  Uiso   1.00
H471   H     0.97297   0.25133   0.21143   0.00000  Uiso   1.00
C472   C     0.91937   0.19053   0.17203   0.00000  Uiso   1.00
H473   H     0.26060   0.84140   0.90900   0.00000  Uiso   1.00
C474   C     0.54723   0.50187   0.41567   0.00000  Uiso   1.00
H475   H     0.52973   0.47107   0.42527   0.00000  Uiso   1.00
C476   C     0.62848   0.64172   0.36517   0.00000  Uiso   1.00
C477   C     0.63103   0.71137   0.27777   0.00000  Uiso   1.00
H478   H     0.65743   0.71837   0.22477   0.00000  Uiso   1.00
C479   C     0.60823   0.67067   0.35827   0.00000  Uiso   1.00
C480   C     0.90217   0.32683   0.10623   0.00000  Uiso   1.00
H481   H     0.88627   0.30003   0.16193   0.00000  Uiso   1.00
C482   C     0.55413   0.69057   0.43497   0.00000  Uiso   1.00
H483   H     0.86147   0.35123   0.15533   0.00000  Uiso   1.00
C484   C     0.57823   0.72997   0.35007   0.00000  Uiso   1.00
H485   H     0.56743   0.74977   0.34597   0.00000  Uiso   1.00
C486   C     0.49073   0.40787   0.11697   0.00000  Uiso   1.00
O487   O     0.47293   0.40827   0.24447   0.00000  Uiso   1.00
O488   O     0.16540   0.76680   0.33680   0.00000  Uiso   1.00
C489   C     0.17550   0.71190   0.45910   0.00000  Uiso   1.00
F490   F     0.48893   0.34207   0.21277   0.00000  Uiso   1.00
F491   F     0.22410   0.72620   0.46700   0.00000  Uiso   1.00
C492   C     0.17200   0.69120   0.29570   0.00000  Uiso   1.00
F493   F     0.12740   0.67390   0.26870   0.00000  Uiso   1.00
F494   F     0.19960   0.72490   0.18500   0.00000  Uiso   1.00
F495   F     0.18860   0.66330   0.30100   0.00000  Uiso   1.00
Ag496  Ag    0.18242   0.32285   0.50246   0.00000  Uiso   1.00
O497   O     0.34253   0.01134   0.35427   0.00000  Uiso   1.00
N498   N     0.14336   0.34402   0.64900   0.00000  Uiso   1.00
N499   N     0.92587   0.20911   0.60670   0.00000  Uiso   1.00
C500   C     0.09830   0.32400   0.63830   0.00000  Uiso   1.00
H501   H     0.08300   0.29890   0.57350   0.00000  Uiso   1.00
C502   C     0.07439   0.33994   0.72200   0.00000  Uiso   1.00
C503   C     0.43053   0.04327   0.48927   0.00000  Uiso   1.00
H504   H     0.41533   0.05497   0.54477   0.00000  Uiso   1.00
C505   C     0.47613   0.06217   0.50537   0.00000  Uiso   1.00
H506   H     0.82527   0.75253   0.24233   0.00000  Uiso   1.00
C507   C     0.16480   0.37870   0.74900   0.00000  Uiso   1.00
H508   H     0.19560   0.39200   0.75860   0.00000  Uiso   1.00
C509   C     0.02495   0.32010   0.69850   0.00000  Uiso   1.00
C510   C     0.95530   0.25300   0.61110   0.00000  Uiso   1.00
H511   H     0.94830   0.27240   0.55810   0.00000  Uiso   1.00
C512   C     0.99600   0.27090   0.69160   0.00000  Uiso   1.00
C513   C     0.33983   0.90867   0.43957   0.00000  Uiso   1.00
H514   H     0.36663   0.91957   0.49527   0.00000  Uiso   1.00
C515   C     0.97610   0.19690   0.76830   0.00000  Uiso   1.00
H516   H     0.31543   0.84357   0.48867   0.00000  Uiso   1.00
C517   C     0.93670   0.18160   0.68340   0.00000  Uiso   1.00
H518   H     0.91690   0.15100   0.67930   0.00000  Uiso   1.00
C519   C     0.25880   0.41620   0.45030   0.00000  Uiso   1.00
O520   O     0.25840   0.39800   0.57780   0.00000  Uiso   1.00
O521   O     0.89987   0.73193   0.67013   0.00000  Uiso   1.00
C522   C     0.95477   0.79693   0.79243   0.00000  Uiso   1.00
F523   F     0.32460   0.48020   0.54610   0.00000  Uiso   1.00
F524   F     0.94047   0.83123   0.80033   0.00000  Uiso   1.00
C525   C     0.97547   0.81413   0.62903   0.00000  Uiso   1.00
F526   F     0.99277   0.78683   0.60203   0.00000  Uiso   1.00
F527   F     0.94177   0.80803   0.51833   0.00000  Uiso   1.00
F528   F     1.00337   0.85863   0.63433   0.00000  Uiso   1.00
Ag529  Ag    0.84909   0.65618   0.83579   0.00000  Uiso   1.00
O530   O     0.00920   0.34467   0.68760   0.00000  Uiso   1.00
N531   N     0.81003   0.67735   0.98233   0.00000  Uiso   1.00
N532   N     0.59254   0.54244   0.94003   0.00000  Uiso   1.00
C533   C     0.76497   0.65733   0.97163   0.00000  Uiso   1.00
H534   H     0.74967   0.63223   0.90683   0.00000  Uiso   1.00
C535   C     0.74106   0.67327   0.05533   0.00000  Uiso   1.00
C536   C     0.09720   0.37660   0.82260   0.00000  Uiso   1.00
H537   H     0.08200   0.38830   0.87810   0.00000  Uiso   1.00
C538   C     0.14280   0.39550   0.83870   0.00000  Uiso   1.00
H539   H     0.49193   0.08587   0.57567   0.00000  Uiso   1.00
C540   C     0.83147   0.71203   0.08233   0.00000  Uiso   1.00
H541   H     0.86227   0.72533   0.09193   0.00000  Uiso   1.00
C542   C     0.69162   0.65343   0.03183   0.00000  Uiso   1.00
C543   C     0.62197   0.58633   0.94443   0.00000  Uiso   1.00
H544   H     0.61497   0.60573   0.89143   0.00000  Uiso   1.00
C545   C     0.66267   0.60423   0.02493   0.00000  Uiso   1.00
C546   C     0.00650   0.24200   0.77290   0.00000  Uiso   1.00
H547   H     0.03330   0.25290   0.82860   0.00000  Uiso   1.00
C548   C     0.64277   0.53023   0.10163   0.00000  Uiso   1.00
H549   H     0.98210   0.17690   0.82200   0.00000  Uiso   1.00
C550   C     0.60337   0.51493   0.01673   0.00000  Uiso   1.00
H551   H     0.58357   0.48433   0.01263   0.00000  Uiso   1.00
C552   C     0.92547   0.74953   0.78363   0.00000  Uiso   1.00
O553   O     0.92507   0.73133   0.91113   0.00000  Uiso   1.00
O554   O     0.56653   0.06527   0.00347   0.00000  Uiso   1.00
C555   C     0.62143   0.13027   0.12577   0.00000  Uiso   1.00
F556   F     0.99127   0.81353   0.87943   0.00000  Uiso   1.00
F557   F     0.60713   0.16457   0.13367   0.00000  Uiso   1.00
C558   C     0.64213   0.14747  -0.03763   0.00000  Uiso   1.00
F559   F     0.65943   0.12017  -0.06463   0.00000  Uiso   1.00
F560   F     0.60843   0.14137  -0.14833   0.00000  Uiso   1.00
F561   F     0.67003   0.19197  -0.03233   0.00000  Uiso   1.00
Ag562  Ag    0.51575   0.98952   0.16913   0.00000  Uiso   1.00
O563   O     0.67587   0.67800   0.02093   0.00000  Uiso   1.00
N564   N     0.47669   0.01069   0.31567   0.00000  Uiso   1.00
N565   N     0.25920   0.87578   0.27337   0.00000  Uiso   1.00
C566   C     0.43163   0.99067   0.30497   0.00000  Uiso   1.00
H567   H     0.41633   0.96557   0.24017   0.00000  Uiso   1.00
C568   C     0.40772   0.00661   0.38867   0.00000  Uiso   1.00
C569   C     0.76387   0.70993   0.15593   0.00000  Uiso   1.00
H570   H     0.74867   0.72163   0.21143   0.00000  Uiso   1.00
C571   C     0.80947   0.72883   0.17203   0.00000  Uiso   1.00
H572   H     0.15860   0.41920   0.90900   0.00000  Uiso   1.00
C573   C     0.49813   0.04537   0.41567   0.00000  Uiso   1.00
H574   H     0.52893   0.05867   0.42527   0.00000  Uiso   1.00
C575   C     0.35828   0.98677   0.36517   0.00000  Uiso   1.00
C576   C     0.28863   0.91967   0.27777   0.00000  Uiso   1.00
H577   H     0.28163   0.93907   0.22477   0.00000  Uiso   1.00
C578   C     0.32933   0.93757   0.35827   0.00000  Uiso   1.00
C579   C     0.67317   0.57533   0.10623   0.00000  Uiso   1.00
H580   H     0.69997   0.58623   0.16193   0.00000  Uiso   1.00
C581   C     0.30943   0.86357   0.43497   0.00000  Uiso   1.00
H582   H     0.64877   0.51023   0.15533   0.00000  Uiso   1.00
C583   C     0.27003   0.84827   0.35007   0.00000  Uiso   1.00
H584   H     0.25023   0.81767   0.34597   0.00000  Uiso   1.00
C585   C     0.59213   0.08287   0.11697   0.00000  Uiso   1.00
O586   O     0.59173   0.06467   0.24447   0.00000  Uiso   1.00
O587   O     0.23320   0.39860   0.33680   0.00000  Uiso   1.00
C588   C     0.28810   0.46360   0.45910   0.00000  Uiso   1.00
F589   F     0.65793   0.14687   0.21277   0.00000  Uiso   1.00
F590   F     0.27380   0.49790   0.46700   0.00000  Uiso   1.00
C591   C     0.30880   0.48080   0.29570   0.00000  Uiso   1.00
F592   F     0.32610   0.45350   0.26870   0.00000  Uiso   1.00
F593   F     0.27510   0.47470   0.18500   0.00000  Uiso   1.00
F594   F     0.33670   0.52530   0.30100   0.00000  Uiso   1.00
loop_
_geom_bond_atom_site_label_1
_geom_bond_atom_site_label_2
_geom_bond_distance
_geom_bond_site_symmetry_2
_ccdc_geom_bond_type
Ag1    N3      2.199   .     S
Ag1    Ag331   3.232   .     S
Ag1    N400    2.195   .     S
O2     C47     1.220   1_455 S
N3     C5      1.355   .     A
N3     C12     1.339   .     A
N4     C15     1.340   .     A
N4     C22     1.345   .     A
N4     Ag496   2.195   .     S
C5     H6      0.930   .     S
C5     C7      1.389   .     A
C7     C74     1.390   .     A
C7     C14     1.502   .     S
C8     C40     1.390   .     A
C8     H9      0.931   .     S
C8     C10     1.378   .     A
C10    H77     0.930   .     S
C10    C45     1.384   .     A
H11    C43     0.930   .     S
C12    C76     1.384   .     A
C12    H13     0.928   .     S
C14    O68     1.220   .     D
C14    C17     1.482   .     S
C15    H16     0.930   .     S
C15    C17     1.393   .     A
C17    C84     1.397   .     A
C18    C50     1.397   .     A
C18    H19     0.931   .     S
C18    C53     1.378   .     A
C20    C84     1.378   .     A
C20    H87     0.930   .     S
C20    C22     1.384   .     A
H21    C53     0.930   .     S
C22    H23     0.930   .     S
C24    O25     1.231   .     A
C24    O59     1.229   .     A
C24    C60     1.434   .     S
O26    C90     1.229   .     A
C27    C90     1.434   .     S
C27    F94     1.313   .     S
C27    F29     1.497   .     S
C27    C30     1.515   .     S
F28    C60     1.313   .     S
C30    F31     1.365   .     S
C30    F32     1.417   .     S
C30    F33     1.347   .     S
Ag34   N433    2.195   .     S
Ag34   N36     2.199   1_655 S
Ag34   Ag364   3.232   1_656 S
O35    C80     1.220   1_545 A
N36    C45     1.339   .     A
N36    Ag34    2.199   1_455 S
N36    C38     1.355   1_455 A
N37    C48     1.340   .     A
N37    C55     1.345   .     A
N37    Ag529   2.195   .     S
C38    H39     0.930   .     S
C38    N36     1.355   1_655 A
C38    C40     1.389   1_655 S
C40    C38     1.389   1_455 S
C40    C47     1.502   1_455 A
C41    C73     1.390   .     A
C41    H42     0.931   .     S
C41    C43     1.378   .     A
C43    C78     1.384   .     A
H44    C76     0.930   .     S
C45    H46     0.928   .     S
C47    C50     1.482   .     S
C47    O2      1.220   1_655 S
C47    C40     1.502   1_655 A
C48    H49     0.930   .     S
C48    C50     1.393   .     A
C51    C83     1.397   .     A
C51    H52     0.931   .     S
C51    C86     1.378   .     A
C53    C55     1.384   .     A
H54    C86     0.930   .     S
C55    H56     0.930   .     S
C57    O58     1.231   .     A
C57    O92     1.229   .     A
C57    C93     1.434   .     S
C60    F62     1.497   .     S
C60    C63     1.515   .     S
F61    C93     1.313   .     S
C63    F64     1.365   .     S
C63    F65     1.417   .     S
C63    F66     1.347   .     S
Ag67   N69     2.199   .     S
Ag67   Ag298   3.232   .     S
Ag67   N466    2.195   .     S
N69    C71     1.355   .     A
N69    C78     1.339   1_554 A
N70    C81     1.340   .     A
N70    Ag562   2.195   .     S
N70    C88     1.345   1_554 S
C71    H72     0.930   .     S
C71    C73     1.389   1_554 A
C73    C80     1.502   .     S
C73    C71     1.389   1_556 A
C74    H75     0.931   .     S
C74    C76     1.378   .     A
C78    H79     0.928   .     S
C78    N69     1.339   1_556 A
C80    C83     1.482   .     S
C80    O35     1.220   1_565 A
C81    H82     0.930   .     S
C81    C83     1.393   1_554 A
C83    C81     1.393   1_556 A
C84    H85     0.931   .     S
C86    C88     1.384   .     A
C88    H89     0.930   .     S
C88    N70     1.345   1_556 S
C90    O91     1.231   .     A
C93    F95     1.497   .     S
C93    C96     1.515   .     S
C96    F97     1.365   .     S
C96    F98     1.417   .     S
C96    F99     1.347   .     S
Ag100  N102    2.199   .     S
Ag100  Ag430   3.232   .     S
Ag100  N499    2.195   .     S
O101   C146    1.220   .     D
N102   C104    1.355   .     A
N102   C111    1.339   .     A
N103   C114    1.340   .     A
N103   C121    1.345   .     A
N103   Ag298   2.195   .     S
C104   H105    0.930   .     S
C104   C106    1.389   .     A
C106   C173    1.390   .     A
C106   C113    1.502   .     S
C107   C139    1.390   .     A
C107   H108    0.931   .     S
C107   C109    1.378   .     A
C109   H176    0.930   .     S
C109   C144    1.384   .     A
H110   C142    0.930   .     S
C111   C175    1.384   .     A
C111   H112    0.928   .     S
C113   O167    1.220   .     D
C113   C116    1.482   1_545 S
C114   H115    0.930   .     S
C114   C116    1.393   .     A
C116   C113    1.482   1_565 S
C116   C183    1.397   1_565 A
C117   C149    1.397   .     A
C117   H118    0.931   .     S
C117   C152    1.378   .     A
C119   H186    0.930   .     S
C119   C121    1.384   .     A
C119   C183    1.378   1_565 A
H120   C152    0.930   .     S
C121   H122    0.930   .     S
C123   O124    1.231   .     A
C123   O158    1.229   .     A
C123   C159    1.434   .     S
O125   C189    1.229   .     A
C126   C189    1.434   .     S
C126   F193    1.313   .     S
C126   F128    1.497   .     S
C126   C129    1.515   .     S
F127   C159    1.313   .     S
C129   F130    1.365   .     S
C129   F131    1.417   .     S
C129   F132    1.347   .     S
Ag133  N135    2.199   .     S
Ag133  N532    2.195   .     S
Ag133  Ag463   3.232   1_556 A
O134   C179    1.220   1_655 S
N135   C137    1.355   .     A
N135   C144    1.339   .     A
N136   C147    1.340   .     A
N136   C154    1.345   .     A
N136   Ag331   2.195   .     S
C137   H138    0.930   .     S
C137   C139    1.389   .     A
C139   C146    1.502   .     S
C140   C172    1.390   .     A
C140   H141    0.931   .     S
C140   C142    1.378   .     A
C142   C177    1.384   .     A
H143   C175    0.930   .     S
C144   H145    0.928   .     S
C146   C149    1.482   .     S
C147   H148    0.930   .     S
C147   C149    1.393   .     A
C150   C182    1.397   .     A
C150   H151    0.931   .     S
C150   C185    1.378   .     A
C152   C154    1.384   .     A
H153   C185    0.930   .     S
C154   H155    0.930   .     S
C156   O157    1.231   .     A
C156   O191    1.229   .     A
C156   C192    1.434   .     S
C159   F161    1.497   .     S
C159   C162    1.515   .     S
F160   C192    1.313   .     S
C162   F163    1.365   .     S
C162   F164    1.417   .     S
C162   F165    1.347   .     S
Ag166  N168    2.199   .     S
Ag166  Ag397   3.232   .     S
Ag166  N565    2.195   .     S
N168   C170    1.355   .     A
N168   C177    1.339   1_554 A
N169   C180    1.340   .     A
N169   Ag364   2.195   .     S
N169   C187    1.345   1_554 A
C170   H171    0.930   .     S
C170   C172    1.389   1_554 S
C172   C179    1.502   .     S
C172   C170    1.389   1_556 S
C173   H174    0.931   .     S
C173   C175    1.378   .     A
C177   H178    0.928   .     S
C177   N168    1.339   1_556 A
C179   C182    1.482   .     S
C179   O134    1.220   1_455 S
C180   H181    0.930   .     S
C180   C182    1.393   1_554 A
C182   C180    1.393   1_556 A
C183   H184    0.931   .     S
C183   C116    1.397   1_545 A
C183   C119    1.378   1_545 A
C185   C187    1.384   .     A
C187   H188    0.930   .     S
C187   N169    1.345   1_556 A
C189   O190    1.231   .     A
C192   F194    1.497   .     S
C192   C195    1.515   .     S
C195   F196    1.365   .     S
C195   F197    1.417   .     S
C195   F198    1.347   .     S
Ag199  N201    2.199   .     S
Ag199  Ag529   3.232   .     S
Ag199  N301    2.195   .     S
O200   C245    1.220   1_565 S
N201   C203    1.355   .     A
N201   C210    1.339   .     A
N202   C213    1.340   .     A
N202   C220    1.345   .     A
N202   Ag397   2.195   .     S
C203   H204    0.930   .     S
C203   C205    1.389   .     A
C205   C272    1.390   .     A
C205   C212    1.502   .     S
C206   C238    1.390   .     A
C206   H207    0.931   .     S
C206   C208    1.378   .     A
C208   H275    0.930   .     S
C208   C243    1.384   .     A
H209   C241    0.930   .     S
C210   C274    1.384   .     A
C210   H211    0.928   .     S
C212   O266    1.220   .     D
C212   C215    1.482   1_655 S
C213   H214    0.930   .     S
C213   C215    1.393   .     A
C215   C212    1.482   1_455 S
C215   C282    1.397   1_455 S
C216   C248    1.397   .     A
C216   H217    0.931   .     S
C216   C251    1.378   .     A
C218   H285    0.930   .     S
C218   C220    1.384   .     A
C218   C282    1.378   1_455 S
H219   C251    0.930   .     S
C220   H221    0.930   .     S
C222   O223    1.231   .     A
C222   O257    1.229   .     A
C222   C258    1.434   .     S
O224   C288    1.229   .     A
C225   C288    1.434   .     S
C225   F292    1.313   .     S
C225   F227    1.497   .     S
C225   C228    1.515   .     S
F226   C258    1.313   .     S
C228   F229    1.365   .     S
C228   F230    1.417   .     S
C228   F231    1.347   .     S
Ag232  N334    2.195   .     S
Ag232  N234    2.199   1_545 S
Ag232  Ag562   3.232   1_546 S
O233   C278    1.220   .     D
N234   C243    1.339   .     A
N234   Ag232   2.199   1_565 S
N234   C236    1.355   1_565 A
N235   C246    1.340   .     A
N235   C253    1.345   .     A
N235   Ag430   2.195   .     S
C236   H237    0.930   .     S
C236   N234    1.355   1_545 A
C236   C238    1.389   1_545 A
C238   C236    1.389   1_565 A
C238   C245    1.502   1_565 S
C239   C271    1.390   .     A
C239   H240    0.931   .     S
C239   C241    1.378   .     A
C241   C276    1.384   .     A
H242   C274    0.930   .     S
C243   H244    0.928   .     S
C245   C248    1.482   .     S
C245   O200    1.220   1_545 S
C245   C238    1.502   1_545 S
C246   H247    0.930   .     S
C246   C248    1.393   .     A
C249   C281    1.397   .     A
C249   H250    0.931   .     S
C249   C284    1.378   .     A
C251   C253    1.384   .     A
H252   C284    0.930   .     S
C253   H254    0.930   .     S
C255   O256    1.231   .     A
C255   O290    1.229   .     A
C255   C291    1.434   .     S
C258   F260    1.497   .     S
C258   C261    1.515   .     S
F259   C291    1.313   .     S
C261   F262    1.365   .     S
C261   F263    1.417   .     S
C261   F264    1.347   .     S
Ag265  N267    2.199   .     S
Ag265  Ag496   3.232   .     S
Ag265  N367    2.195   .     S
N267   C269    1.355   .     A
N267   C276    1.339   1_554 A
N268   C279    1.340   .     A
N268   Ag463   2.195   .     S
N268   C286    1.345   1_554 A
C269   H270    0.930   .     S
C269   C271    1.389   1_554 S
C271   C278    1.502   .     S
C271   C269    1.389   1_556 S
C272   H273    0.931   .     S
C272   C274    1.378   .     A
C276   H277    0.928   .     S
C276   N267    1.339   1_556 A
C278   C281    1.482   .     S
C279   H280    0.930   .     S
C279   C281    1.393   1_554 S
C281   C279    1.393   1_556 S
C282   H283    0.931   .     S
C282   C215    1.397   1_655 S
C282   C218    1.378   1_655 S
C284   C286    1.384   .     A
C286   H287    0.930   .     S
C286   N268    1.345   1_556 A
C288   O289    1.231   .     A
C291   F293    1.497   .     S
C291   C294    1.515   .     S
C294   F295    1.365   .     S
C294   F296    1.417   .     S
C294   F297    1.347   .     S
Ag298  N300    2.199   .     S
O299   C377    1.220   1_655 A
N300   C302    1.355   .     A
N300   C309    1.339   .     A
N301   C312    1.340   .     A
N301   C319    1.345   .     A
C302   H303    0.930   .     S
C302   C304    1.389   .     A
C304   C338    1.390   .     A
C304   C311    1.502   .     S
C305   C370    1.390   .     A
C305   H306    0.931   .     S
C305   C307    1.378   .     A
C307   H341    0.930   .     S
C307   C375    1.384   .     A
H308   C373    0.930   .     S
C309   C340    1.384   .     A
C309   H310    0.928   .     S
C311   O332    1.220   .     D
C311   C314    1.482   .     S
C312   H313    0.930   .     S
C312   C314    1.393   .     A
C314   C348    1.397   .     A
C315   C380    1.397   .     A
C315   H316    0.931   .     S
C315   C383    1.378   .     A
C317   C348    1.378   .     A
C317   H351    0.930   .     S
C317   C319    1.384   .     A
H318   C383    0.930   .     S
C319   H320    0.930   .     S
C321   O322    1.231   .     A
C321   O389    1.229   .     A
C321   C390    1.434   .     S
O323   C354    1.229   .     A
C324   C354    1.434   .     S
C324   F358    1.313   .     S
C324   F326    1.497   .     S
C324   C327    1.515   .     S
F325   C390    1.313   .     S
C327   F328    1.365   .     S
C327   F329    1.417   .     S
C327   F330    1.347   .     S
Ag331  N333    2.199   .     S
N333   C335    1.355   .     A
N333   C342    1.339   1_556 S
N334   C345    1.340   .     A
N334   C352    1.345   1_556 S
C335   H336    0.930   .     S
C335   C337    1.389   1_556 A
C337   C371    1.390   .     A
C337   C344    1.502   .     S
C337   C335    1.389   1_554 A
C338   H339    0.931   .     S
C338   C340    1.378   .     A
C340   H374    0.930   .     S
C342   C373    1.384   .     A
C342   H343    0.928   .     S
C342   N333    1.339   1_554 S
C344   C347    1.482   .     S
C344   O365    1.220   1_545 S
C345   H346    0.930   .     S
C345   C347    1.393   1_556 S
C347   C381    1.397   .     A
C347   C345    1.393   1_554 S
C348   H349    0.931   .     S
C350   C381    1.378   .     A
C350   H384    0.930   .     S
C350   C352    1.384   .     A
C352   H353    0.930   .     S
C352   N334    1.345   1_554 S
C354   O355    1.231   .     A
O356   C387    1.229   .     A
C357   C387    1.434   .     S
C357   F391    1.313   .     S
C357   F359    1.497   .     S
C357   C360    1.515   .     S
C360   F361    1.365   .     S
C360   F362    1.417   .     S
C360   F363    1.347   .     S
Ag364  Ag34    3.232   1_454 S
Ag364  N366    2.199   1_455 S
O365   C344    1.220   1_565 S
N366   C375    1.339   .     A
N366   Ag364   2.199   1_655 S
N366   C368    1.355   1_655 S
N367   C378    1.340   .     A
N367   C385    1.345   .     A
C368   H369    0.930   .     S
C368   N366    1.355   1_455 S
C368   C370    1.389   1_455 A
C370   C368    1.389   1_655 A
C370   C377    1.502   1_655 S
C371   H372    0.931   .     S
C371   C373    1.378   .     A
C375   H376    0.928   .     S
C377   C380    1.482   .     S
C377   O299    1.220   1_455 A
C377   C370    1.502   1_455 S
C378   H379    0.930   .     S
C378   C380    1.393   .     A
C381   H382    0.931   .     S
C383   C385    1.384   .     A
C385   H386    0.930   .     S
C387   O388    1.231   .     A
C390   F392    1.497   .     S
C390   C393    1.515   .     S
C393   F394    1.365   .     S
C393   F395    1.417   .     S
C393   F396    1.347   .     S
Ag397  N399    2.199   .     S
O398   C476    1.220   .     D
N399   C401    1.355   .     A
N399   C408    1.339   .     A
N400   C411    1.340   .     A
N400   C418    1.345   .     A
C401   H402    0.930   .     S
C401   C403    1.389   .     A
C403   C437    1.390   .     A
C403   C410    1.502   .     S
C404   C469    1.390   .     A
C404   H405    0.931   .     S
C404   C406    1.378   .     A
C406   H440    0.930   .     S
C406   C474    1.384   .     A
H407   C472    0.930   .     S
C408   C439    1.384   .     A
C408   H409    0.928   .     S
C410   O431    1.220   .     D
C410   C413    1.482   1_565 A
C411   H412    0.930   .     S
C411   C413    1.393   .     A
C413   C410    1.482   1_545 A
C413   C447    1.397   1_545 S
C414   C479    1.397   .     A
C414   H415    0.931   .     S
C414   C482    1.378   .     A
C416   H450    0.930   .     S
C416   C418    1.384   .     A
C416   C447    1.378   1_545 S
H417   C482    0.930   .     S
C418   H419    0.930   .     S
C420   O421    1.231   .     A
C420   O488    1.229   .     A
C420   C489    1.434   .     S
O422   C453    1.229   .     A
C423   C453    1.434   .     S
C423   F457    1.313   .     S
C423   F425    1.497   .     S
C423   C426    1.515   .     S
F424   C489    1.313   .     S
C426   F427    1.365   .     S
C426   F428    1.417   .     S
C426   F429    1.347   .     S
Ag430  N432    2.199   .     S
N432   C434    1.355   .     A
N432   C441    1.339   1_556 S
N433   C444    1.340   .     A
N433   C451    1.345   1_556 A
C434   H435    0.930   .     S
C434   C436    1.389   1_556 S
C436   C470    1.390   .     A
C436   C443    1.502   .     S
C436   C434    1.389   1_554 S
C437   H438    0.931   .     S
C437   C439    1.378   .     A
C439   H473    0.930   .     S
C441   C472    1.384   .     A
C441   H442    0.928   .     S
C441   N432    1.339   1_554 S
C443   C446    1.482   .     S
C443   O464    1.220   1_655 S
C444   H445    0.930   .     S
C444   C446    1.393   1_556 S
C446   C480    1.397   .     A
C446   C444    1.393   1_554 S
C447   H448    0.931   .     S
C447   C413    1.397   1_565 S
C447   C416    1.378   1_565 S
C449   C480    1.378   .     A
C449   H483    0.930   .     S
C449   C451    1.384   .     A
C451   H452    0.930   .     S
C451   N433    1.345   1_554 A
C453   O454    1.231   .     A
O455   C486    1.229   .     A
C456   C486    1.434   .     S
C456   F490    1.313   .     S
C456   F458    1.497   .     S
C456   C459    1.515   .     S
C459   F460    1.365   .     S
C459   F461    1.417   .     S
C459   F462    1.347   .     S
Ag463  N465    2.199   .     S
Ag463  Ag133   3.232   1_554 A
O464   C443    1.220   1_455 S
N465   C467    1.355   .     A
N465   C474    1.339   .     A
N466   C477    1.340   .     A
N466   C484    1.345   .     A
C467   H468    0.930   .     S
C467   C469    1.389   .     A
C469   C476    1.502   .     S
C470   H471    0.931   .     S
C470   C472    1.378   .     A
C474   H475    0.928   .     S
C476   C479    1.482   .     S
C477   H478    0.930   .     S
C477   C479    1.393   .     A
C480   H481    0.931   .     S
C482   C484    1.384   .     A
C484   H485    0.930   .     S
C486   O487    1.231   .     A
C489   F491    1.497   .     S
C489   C492    1.515   .     S
C492   F493    1.365   .     S
C492   F494    1.417   .     S
C492   F495    1.347   .     S
Ag496  N498    2.199   .     S
O497   C575    1.220   1_545 A
N498   C500    1.355   .     A
N498   C507    1.339   .     A
N499   C510    1.340   .     A
N499   C517    1.345   .     A
C500   H501    0.930   .     S
C500   C502    1.389   .     A
C502   C536    1.390   .     A
C502   C509    1.502   .     S
C503   C568    1.390   .     A
C503   H504    0.931   .     S
C503   C505    1.378   .     A
C505   H539    0.930   .     S
C505   C573    1.384   .     A
H506   C571    0.930   .     S
C507   C538    1.384   .     A
C507   H508    0.928   .     S
C509   O530    1.220   .     D
C509   C512    1.482   1_455 A
C510   H511    0.930   .     S
C510   C512    1.393   .     A
C512   C509    1.482   1_655 A
C512   C546    1.397   1_655 A
C513   C578    1.397   .     A
C513   H514    0.931   .     S
C513   C581    1.378   .     A
C515   H549    0.930   .     S
C515   C517    1.384   .     A
C515   C546    1.378   1_655 S
H516   C581    0.930   .     S
C517   H518    0.930   .     S
C519   O520    1.231   .     A
C519   O587    1.229   .     A
C519   C588    1.434   .     S
O521   C552    1.229   .     A
C522   C552    1.434   .     S
C522   F556    1.313   .     S
C522   F524    1.497   .     S
C522   C525    1.515   .     S
F523   C588    1.313   .     S
C525   F526    1.365   .     S
C525   F527    1.417   .     S
C525   F528    1.347   .     S
Ag529  N531    2.199   .     S
N531   C533    1.355   .     A
N531   C540    1.339   1_556 S
N532   C543    1.340   .     A
N532   C550    1.345   1_556 A
C533   H534    0.930   .     S
C533   C535    1.389   1_556 A
C535   C569    1.390   .     A
C535   C542    1.502   .     S
C535   C533    1.389   1_554 A
C536   H537    0.931   .     S
C536   C538    1.378   .     A
C538   H572    0.930   .     S
C540   C571    1.384   .     A
C540   H541    0.928   .     S
C540   N531    1.339   1_554 S
C542   O563    1.220   .     D
C542   C545    1.482   .     S
C543   H544    0.930   .     S
C543   C545    1.393   1_556 S
C545   C579    1.397   .     A
C545   C543    1.393   1_554 S
C546   H547    0.931   .     S
C546   C512    1.397   1_455 A
C546   C515    1.378   1_455 S
C548   C579    1.378   .     A
C548   H582    0.930   .     S
C548   C550    1.384   .     A
C550   H551    0.930   .     S
C550   N532    1.345   1_554 A
C552   O553    1.231   .     A
O554   C585    1.229   .     A
C555   C585    1.434   .     S
C555   F589    1.313   .     S
C555   F557    1.497   .     S
C555   C558    1.515   .     S
C558   F559    1.365   .     S
C558   F560    1.417   .     S
C558   F561    1.347   .     S
Ag562  Ag232   3.232   1_564 S
Ag562  N564    2.199   1_565 A
N564   C573    1.339   .     A
N564   Ag562   2.199   1_545 A
N564   C566    1.355   1_545 S
N565   C576    1.340   .     A
N565   C583    1.345   .     A
C566   H567    0.930   .     S
C566   N564    1.355   1_565 S
C566   C568    1.389   1_565 A
C568   C566    1.389   1_545 A
C568   C575    1.502   1_545 A
C569   H570    0.931   .     S
C569   C571    1.378   .     A
C573   H574    0.928   .     S
C575   C578    1.482   .     S
C575   O497    1.220   1_565 A
C575   C568    1.502   1_565 A
C576   H577    0.930   .     S
C576   C578    1.393   .     A
C579   H580    0.931   .     S
C581   C583    1.384   .     A
C583   H584    0.930   .     S
C585   O586    1.231   .     A
C588   F590    1.497   .     S
C588   C591    1.515   .     S
C591   F592    1.365   .     S
C591   F593    1.417   .     S
C591   F594    1.347   .     S
