data_image0
_cell_length_a       12.7731
_cell_length_b       29.872
_cell_length_c       33.792
_cell_angle_alpha    90
_cell_angle_beta     90
_cell_angle_gamma    90

_symmetry_space_group_name_H-M    "P 1"
_symmetry_int_tables_number       1

loop_
  _symmetry_equiv_pos_as_xyz
  'x, y, z'

loop_
  _atom_site_label
  _atom_site_occupancy
  _atom_site_fract_x
  _atom_site_fract_y
  _atom_site_fract_z
  _atom_site_thermal_displace_type
  _atom_site_B_iso_or_equiv
  _atom_site_type_symbol
  S1       1.0000 0.74993  0.19766  0.04497  Biso   1.000  S
  S2       1.0000 0.49117  0.29184  0.03681  Biso   1.000  S
  S3       1.0000 0.25420  0.29208  0.94419  Biso   1.000  S
  N1       1.0000 0.99920  0.17016  0.09691  Biso   1.000  N
  N2       1.0000 0.99720  0.34037  0.91368  Biso   1.000  N
  C1       1.0000 0.92600  0.19080  0.09009  Biso   1.000  C
  C2       1.0000 0.83550  0.21600  0.08080  Biso   1.000  C
  C3       1.0000 0.80470  0.25560  0.09674  Biso   1.000  C
  H1       1.0000 0.84190  0.27080  0.11710  Biso   1.000  H
  C4       1.0000 0.71190  0.27170  0.07973  Biso   1.000  C
  H2       1.0000 0.67940  0.29890  0.08740  Biso   1.000  H
  C5       1.0000 0.67280  0.24420  0.05101  Biso   1.000  C
  C6       1.0000 0.58120  0.25019  0.02631  Biso   1.000  C
  C7       1.0000 0.55210  0.22620  0.99320  Biso   1.000  C
  H3       1.0000 0.59060  0.20140  0.98320  Biso   1.000  H
  C8       1.0000 0.45880  0.24230  0.97566  Biso   1.000  C
  H4       1.0000 0.42860  0.22980  0.95250  Biso   1.000  H
  C9       1.0000 0.41620  0.27810  0.99587  Biso   1.000  C
  C10      1.0000 0.31960  0.30226  0.98789  Biso   1.000  C
  C11      1.0000 0.26840  0.33280  0.01055  Biso   1.000  C
  H5       1.0000 0.29400  0.34310  0.03530  Biso   1.000  H
  C12      1.0000 0.17450  0.34750  0.99396  Biso   1.000  C
  H6       1.0000 0.12820  0.36790  0.00640  Biso   1.000  H
  C13      1.0000 0.15730  0.32900  0.95780  Biso   1.000  C
  C14      1.0000 0.06810  0.33512  0.93331  Biso   1.000  C
  S4       1.0000 0.74993  0.69766  0.54497  Biso   1.000  S
  S5       1.0000 0.49117  0.79184  0.53681  Biso   1.000  S
  S6       1.0000 0.25420  0.79208  0.44419  Biso   1.000  S
  N3       1.0000 0.99920  0.67016  0.59691  Biso   1.000  N
  N4       1.0000 0.99720  0.84037  0.41368  Biso   1.000  N
  C15      1.0000 0.92600  0.69080  0.59009  Biso   1.000  C
  C16      1.0000 0.83550  0.71600  0.58080  Biso   1.000  C
  C17      1.0000 0.80470  0.75560  0.59674  Biso   1.000  C
  H7       1.0000 0.84190  0.77080  0.61710  Biso   1.000  H
  C18      1.0000 0.71190  0.77170  0.57973  Biso   1.000  C
  H8       1.0000 0.67940  0.79890  0.58740  Biso   1.000  H
  C19      1.0000 0.67280  0.74420  0.55101  Biso   1.000  C
  C20      1.0000 0.58120  0.75019  0.52631  Biso   1.000  C
  C21      1.0000 0.55210  0.72620  0.49320  Biso   1.000  C
  H9       1.0000 0.59060  0.70140  0.48320  Biso   1.000  H
  C22      1.0000 0.45880  0.74230  0.47566  Biso   1.000  C
  H10      1.0000 0.42860  0.72980  0.45250  Biso   1.000  H
  C23      1.0000 0.41620  0.77810  0.49587  Biso   1.000  C
  C24      1.0000 0.31960  0.80226  0.48789  Biso   1.000  C
  C25      1.0000 0.26840  0.83280  0.51055  Biso   1.000  C
  H11      1.0000 0.29400  0.84310  0.53530  Biso   1.000  H
  C26      1.0000 0.17450  0.84750  0.49396  Biso   1.000  C
  H12      1.0000 0.12820  0.86790  0.50640  Biso   1.000  H
  C27      1.0000 0.15730  0.82900  0.45780  Biso   1.000  C
  C28      1.0000 0.06810  0.83512  0.43331  Biso   1.000  C
  S7       1.0000 0.24993  0.19766  0.54497  Biso   1.000  S
  S8       1.0000 0.99117  0.29184  0.53681  Biso   1.000  S
  S9       1.0000 0.75420  0.29208  0.44419  Biso   1.000  S
  N5       1.0000 0.49920  0.17016  0.59691  Biso   1.000  N
  N6       1.0000 0.49720  0.34037  0.41368  Biso   1.000  N
  C29      1.0000 0.42600  0.19080  0.59009  Biso   1.000  C
  C30      1.0000 0.33550  0.21600  0.58080  Biso   1.000  C
  C31      1.0000 0.30470  0.25560  0.59674  Biso   1.000  C
  H13      1.0000 0.34190  0.27080  0.61710  Biso   1.000  H
  C32      1.0000 0.21190  0.27170  0.57973  Biso   1.000  C
  H14      1.0000 0.17940  0.29890  0.58740  Biso   1.000  H
  C33      1.0000 0.17280  0.24420  0.55101  Biso   1.000  C
  C34      1.0000 0.08120  0.25019  0.52631  Biso   1.000  C
  C35      1.0000 0.05210  0.22620  0.49320  Biso   1.000  C
  H15      1.0000 0.09060  0.20140  0.48320  Biso   1.000  H
  C36      1.0000 0.95880  0.24230  0.47566  Biso   1.000  C
  H16      1.0000 0.92860  0.22980  0.45250  Biso   1.000  H
  C37      1.0000 0.91620  0.27810  0.49587  Biso   1.000  C
  C38      1.0000 0.81960  0.30226  0.48789  Biso   1.000  C
  C39      1.0000 0.76840  0.33280  0.51055  Biso   1.000  C
  H17      1.0000 0.79400  0.34310  0.53530  Biso   1.000  H
  C40      1.0000 0.67450  0.34750  0.49396  Biso   1.000  C
  H18      1.0000 0.62820  0.36790  0.50640  Biso   1.000  H
  C41      1.0000 0.65730  0.32900  0.45780  Biso   1.000  C
  C42      1.0000 0.56810  0.33512  0.43331  Biso   1.000  C
  S10      1.0000 0.24993  0.69766  0.04497  Biso   1.000  S
  S11      1.0000 0.99117  0.79184  0.03681  Biso   1.000  S
  S12      1.0000 0.75420  0.79208  0.94419  Biso   1.000  S
  N7       1.0000 0.49920  0.67016  0.09691  Biso   1.000  N
  N8       1.0000 0.49720  0.84037  0.91368  Biso   1.000  N
  C43      1.0000 0.42600  0.69080  0.09009  Biso   1.000  C
  C44      1.0000 0.33550  0.71600  0.08080  Biso   1.000  C
  C45      1.0000 0.30470  0.75560  0.09674  Biso   1.000  C
  H19      1.0000 0.34190  0.77080  0.11710  Biso   1.000  H
  C46      1.0000 0.21190  0.77170  0.07973  Biso   1.000  C
  H20      1.0000 0.17940  0.79890  0.08740  Biso   1.000  H
  C47      1.0000 0.17280  0.74420  0.05101  Biso   1.000  C
  C48      1.0000 0.08120  0.75019  0.02631  Biso   1.000  C
  C49      1.0000 0.05210  0.72620  0.99320  Biso   1.000  C
  H21      1.0000 0.09060  0.70140  0.98320  Biso   1.000  H
  C50      1.0000 0.95880  0.74230  0.97566  Biso   1.000  C
  H22      1.0000 0.92860  0.72980  0.95250  Biso   1.000  H
  C51      1.0000 0.91620  0.77810  0.99587  Biso   1.000  C
  C52      1.0000 0.81960  0.80226  0.98789  Biso   1.000  C
  C53      1.0000 0.76840  0.83280  0.01055  Biso   1.000  C
  H23      1.0000 0.79400  0.84310  0.03530  Biso   1.000  H
  C54      1.0000 0.67450  0.84750  0.99396  Biso   1.000  C
  H24      1.0000 0.62820  0.86790  0.00640  Biso   1.000  H
  C55      1.0000 0.65730  0.82900  0.95780  Biso   1.000  C
  C56      1.0000 0.56810  0.83512  0.93331  Biso   1.000  C
  S13      1.0000 0.00007  0.55234  0.04497  Biso   1.000  S
  S14      1.0000 0.25883  0.45816  0.03681  Biso   1.000  S
  S15      1.0000 0.49580  0.45792  0.94419  Biso   1.000  S
  N9       1.0000 0.75080  0.57984  0.09691  Biso   1.000  N
  N10      1.0000 0.75280  0.40963  0.91368  Biso   1.000  N
  C57      1.0000 0.82400  0.55920  0.09009  Biso   1.000  C
  C58      1.0000 0.91450  0.53400  0.08080  Biso   1.000  C
  C59      1.0000 0.94530  0.49440  0.09674  Biso   1.000  C
  H25      1.0000 0.90810  0.47920  0.11710  Biso   1.000  H
  C60      1.0000 0.03810  0.47830  0.07973  Biso   1.000  C
  H26      1.0000 0.07060  0.45110  0.08740  Biso   1.000  H
  C61      1.0000 0.07720  0.50580  0.05101  Biso   1.000  C
  C62      1.0000 0.16880  0.49981  0.02631  Biso   1.000  C
  C63      1.0000 0.19790  0.52380  0.99320  Biso   1.000  C
  H27      1.0000 0.15940  0.54860  0.98320  Biso   1.000  H
  C64      1.0000 0.29120  0.50770  0.97566  Biso   1.000  C
  H28      1.0000 0.32140  0.52020  0.95250  Biso   1.000  H
  C65      1.0000 0.33380  0.47190  0.99587  Biso   1.000  C
  C66      1.0000 0.43040  0.44774  0.98789  Biso   1.000  C
  C67      1.0000 0.48160  0.41720  0.01055  Biso   1.000  C
  H29      1.0000 0.45600  0.40690  0.03530  Biso   1.000  H
  C68      1.0000 0.57550  0.40250  0.99396  Biso   1.000  C
  H30      1.0000 0.62180  0.38210  0.00640  Biso   1.000  H
  C69      1.0000 0.59270  0.42100  0.95780  Biso   1.000  C
  C70      1.0000 0.68190  0.41488  0.93331  Biso   1.000  C
  S16      1.0000 0.00007  0.05234  0.54497  Biso   1.000  S
  S17      1.0000 0.25883  0.95816  0.53681  Biso   1.000  S
  S18      1.0000 0.49580  0.95792  0.44419  Biso   1.000  S
  N11      1.0000 0.75080  0.07984  0.59691  Biso   1.000  N
  N12      1.0000 0.75280  0.90963  0.41368  Biso   1.000  N
  C71      1.0000 0.82400  0.05920  0.59009  Biso   1.000  C
  C72      1.0000 0.91450  0.03400  0.58080  Biso   1.000  C
  C73      1.0000 0.94530  0.99440  0.59674  Biso   1.000  C
  H31      1.0000 0.90810  0.97920  0.61710  Biso   1.000  H
  C74      1.0000 0.03810  0.97830  0.57973  Biso   1.000  C
  H32      1.0000 0.07060  0.95110  0.58740  Biso   1.000  H
  C75      1.0000 0.07720  0.00580  0.55101  Biso   1.000  C
  C76      1.0000 0.16880  0.99981  0.52631  Biso   1.000  C
  C77      1.0000 0.19790  0.02380  0.49320  Biso   1.000  C
  H33      1.0000 0.15940  0.04860  0.48320  Biso   1.000  H
  C78      1.0000 0.29120  0.00770  0.47566  Biso   1.000  C
  H34      1.0000 0.32140  0.02020  0.45250  Biso   1.000  H
  C79      1.0000 0.33380  0.97190  0.49587  Biso   1.000  C
  C80      1.0000 0.43040  0.94774  0.48789  Biso   1.000  C
  C81      1.0000 0.48160  0.91720  0.51055  Biso   1.000  C
  H35      1.0000 0.45600  0.90690  0.53530  Biso   1.000  H
  C82      1.0000 0.57550  0.90250  0.49396  Biso   1.000  C
  H36      1.0000 0.62180  0.88210  0.50640  Biso   1.000  H
  C83      1.0000 0.59270  0.92100  0.45780  Biso   1.000  C
  C84      1.0000 0.68190  0.91488  0.43331  Biso   1.000  C
  S19      1.0000 0.50007  0.55234  0.54497  Biso   1.000  S
  S20      1.0000 0.75883  0.45816  0.53681  Biso   1.000  S
  S21      1.0000 0.99580  0.45792  0.44419  Biso   1.000  S
  N13      1.0000 0.25080  0.57984  0.59691  Biso   1.000  N
  N14      1.0000 0.25280  0.40963  0.41368  Biso   1.000  N
  C85      1.0000 0.32400  0.55920  0.59009  Biso   1.000  C
  C86      1.0000 0.41450  0.53400  0.58080  Biso   1.000  C
  C87      1.0000 0.44530  0.49440  0.59674  Biso   1.000  C
  H37      1.0000 0.40810  0.47920  0.61710  Biso   1.000  H
  C88      1.0000 0.53810  0.47830  0.57973  Biso   1.000  C
  H38      1.0000 0.57060  0.45110  0.58740  Biso   1.000  H
  C89      1.0000 0.57720  0.50580  0.55101  Biso   1.000  C
  C90      1.0000 0.66880  0.49981  0.52631  Biso   1.000  C
  C91      1.0000 0.69790  0.52380  0.49320  Biso   1.000  C
  H39      1.0000 0.65940  0.54860  0.48320  Biso   1.000  H
  C92      1.0000 0.79120  0.50770  0.47566  Biso   1.000  C
  H40      1.0000 0.82140  0.52020  0.45250  Biso   1.000  H
  C93      1.0000 0.83380  0.47190  0.49587  Biso   1.000  C
  C94      1.0000 0.93040  0.44774  0.48789  Biso   1.000  C
  C95      1.0000 0.98160  0.41720  0.51055  Biso   1.000  C
  H41      1.0000 0.95600  0.40690  0.53530  Biso   1.000  H
  C96      1.0000 0.07550  0.40250  0.49396  Biso   1.000  C
  H42      1.0000 0.12180  0.38210  0.50640  Biso   1.000  H
  C97      1.0000 0.09270  0.42100  0.45780  Biso   1.000  C
  C98      1.0000 0.18190  0.41488  0.43331  Biso   1.000  C
  S22      1.0000 0.50007  0.05234  0.04497  Biso   1.000  S
  S23      1.0000 0.75883  0.95816  0.03681  Biso   1.000  S
  S24      1.0000 0.99580  0.95792  0.94419  Biso   1.000  S
  N15      1.0000 0.25080  0.07984  0.09691  Biso   1.000  N
  N16      1.0000 0.25280  0.90963  0.91368  Biso   1.000  N
  C99      1.0000 0.32400  0.05920  0.09009  Biso   1.000  C
  C100     1.0000 0.41450  0.03400  0.08080  Biso   1.000  C
  C101     1.0000 0.44530  0.99440  0.09674  Biso   1.000  C
  H43      1.0000 0.40810  0.97920  0.11710  Biso   1.000  H
  C102     1.0000 0.53810  0.97830  0.07973  Biso   1.000  C
  H44      1.0000 0.57060  0.95110  0.08740  Biso   1.000  H
  C103     1.0000 0.57720  0.00580  0.05101  Biso   1.000  C
  C104     1.0000 0.66880  0.99981  0.02631  Biso   1.000  C
  C105     1.0000 0.69790  0.02380  0.99320  Biso   1.000  C
  H45      1.0000 0.65940  0.04860  0.98320  Biso   1.000  H
  C106     1.0000 0.79120  0.00770  0.97566  Biso   1.000  C
  H46      1.0000 0.82140  0.02020  0.95250  Biso   1.000  H
  C107     1.0000 0.83380  0.97190  0.99587  Biso   1.000  C
  C108     1.0000 0.93040  0.94774  0.98789  Biso   1.000  C
  C109     1.0000 0.98160  0.91720  0.01055  Biso   1.000  C
  H47      1.0000 0.95600  0.90690  0.03530  Biso   1.000  H
  C110     1.0000 0.07550  0.90250  0.99396  Biso   1.000  C
  H48      1.0000 0.12180  0.88210  0.00640  Biso   1.000  H
  C111     1.0000 0.09270  0.92100  0.95780  Biso   1.000  C
  C112     1.0000 0.18190  0.91488  0.93331  Biso   1.000  C
  S25      1.0000 0.00007  0.19766  0.70503  Biso   1.000  S
  S26      1.0000 0.25883  0.29184  0.71319  Biso   1.000  S
  S27      1.0000 0.49580  0.29208  0.80581  Biso   1.000  S
  N17      1.0000 0.75080  0.17016  0.65309  Biso   1.000  N
  N18      1.0000 0.75280  0.34037  0.83632  Biso   1.000  N
  C113     1.0000 0.82400  0.19080  0.65991  Biso   1.000  C
  C114     1.0000 0.91450  0.21600  0.66920  Biso   1.000  C
  C115     1.0000 0.94530  0.25560  0.65326  Biso   1.000  C
  H49      1.0000 0.90810  0.27080  0.63290  Biso   1.000  H
  C116     1.0000 0.03810  0.27170  0.67027  Biso   1.000  C
  H50      1.0000 0.07060  0.29890  0.66260  Biso   1.000  H
  C117     1.0000 0.07720  0.24420  0.69899  Biso   1.000  C
  C118     1.0000 0.16880  0.25019  0.72369  Biso   1.000  C
  C119     1.0000 0.19790  0.22620  0.75680  Biso   1.000  C
  H51      1.0000 0.15940  0.20140  0.76680  Biso   1.000  H
  C120     1.0000 0.29120  0.24230  0.77434  Biso   1.000  C
  H52      1.0000 0.32140  0.22980  0.79750  Biso   1.000  H
  C121     1.0000 0.33380  0.27810  0.75413  Biso   1.000  C
  C122     1.0000 0.43040  0.30226  0.76211  Biso   1.000  C
  C123     1.0000 0.48160  0.33280  0.73945  Biso   1.000  C
  H53      1.0000 0.45600  0.34310  0.71470  Biso   1.000  H
  C124     1.0000 0.57550  0.34750  0.75604  Biso   1.000  C
  H54      1.0000 0.62180  0.36790  0.74360  Biso   1.000  H
  C125     1.0000 0.59270  0.32900  0.79220  Biso   1.000  C
  C126     1.0000 0.68190  0.33512  0.81669  Biso   1.000  C
  S28      1.0000 0.00007  0.69766  0.20503  Biso   1.000  S
  S29      1.0000 0.25883  0.79184  0.21319  Biso   1.000  S
  S30      1.0000 0.49580  0.79208  0.30581  Biso   1.000  S
  N19      1.0000 0.75080  0.67016  0.15309  Biso   1.000  N
  N20      1.0000 0.75280  0.84037  0.33632  Biso   1.000  N
  C127     1.0000 0.82400  0.69080  0.15991  Biso   1.000  C
  C128     1.0000 0.91450  0.71600  0.16920  Biso   1.000  C
  C129     1.0000 0.94530  0.75560  0.15326  Biso   1.000  C
  H55      1.0000 0.90810  0.77080  0.13290  Biso   1.000  H
  C130     1.0000 0.03810  0.77170  0.17027  Biso   1.000  C
  H56      1.0000 0.07060  0.79890  0.16260  Biso   1.000  H
  C131     1.0000 0.07720  0.74420  0.19899  Biso   1.000  C
  C132     1.0000 0.16880  0.75019  0.22369  Biso   1.000  C
  C133     1.0000 0.19790  0.72620  0.25680  Biso   1.000  C
  H57      1.0000 0.15940  0.70140  0.26680  Biso   1.000  H
  C134     1.0000 0.29120  0.74230  0.27434  Biso   1.000  C
  H58      1.0000 0.32140  0.72980  0.29750  Biso   1.000  H
  C135     1.0000 0.33380  0.77810  0.25413  Biso   1.000  C
  C136     1.0000 0.43040  0.80226  0.26211  Biso   1.000  C
  C137     1.0000 0.48160  0.83280  0.23945  Biso   1.000  C
  H59      1.0000 0.45600  0.84310  0.21470  Biso   1.000  H
  C138     1.0000 0.57550  0.84750  0.25604  Biso   1.000  C
  H60      1.0000 0.62180  0.86790  0.24360  Biso   1.000  H
  C139     1.0000 0.59270  0.82900  0.29220  Biso   1.000  C
  C140     1.0000 0.68190  0.83512  0.31669  Biso   1.000  C
  S31      1.0000 0.50007  0.19766  0.20503  Biso   1.000  S
  S32      1.0000 0.75883  0.29184  0.21319  Biso   1.000  S
  S33      1.0000 0.99580  0.29208  0.30581  Biso   1.000  S
  N21      1.0000 0.25080  0.17016  0.15309  Biso   1.000  N
  N22      1.0000 0.25280  0.34037  0.33632  Biso   1.000  N
  C141     1.0000 0.32400  0.19080  0.15991  Biso   1.000  C
  C142     1.0000 0.41450  0.21600  0.16920  Biso   1.000  C
  C143     1.0000 0.44530  0.25560  0.15326  Biso   1.000  C
  H61      1.0000 0.40810  0.27080  0.13290  Biso   1.000  H
  C144     1.0000 0.53810  0.27170  0.17027  Biso   1.000  C
  H62      1.0000 0.57060  0.29890  0.16260  Biso   1.000  H
  C145     1.0000 0.57720  0.24420  0.19899  Biso   1.000  C
  C146     1.0000 0.66880  0.25019  0.22369  Biso   1.000  C
  C147     1.0000 0.69790  0.22620  0.25680  Biso   1.000  C
  H63      1.0000 0.65940  0.20140  0.26680  Biso   1.000  H
  C148     1.0000 0.79120  0.24230  0.27434  Biso   1.000  C
  H64      1.0000 0.82140  0.22980  0.29750  Biso   1.000  H
  C149     1.0000 0.83380  0.27810  0.25413  Biso   1.000  C
  C150     1.0000 0.93040  0.30226  0.26211  Biso   1.000  C
  C151     1.0000 0.98160  0.33280  0.23945  Biso   1.000  C
  H65      1.0000 0.95600  0.34310  0.21470  Biso   1.000  H
  C152     1.0000 0.07550  0.34750  0.25604  Biso   1.000  C
  H66      1.0000 0.12180  0.36790  0.24360  Biso   1.000  H
  C153     1.0000 0.09270  0.32900  0.29220  Biso   1.000  C
  C154     1.0000 0.18190  0.33512  0.31669  Biso   1.000  C
  S34      1.0000 0.50007  0.69766  0.70503  Biso   1.000  S
  S35      1.0000 0.75883  0.79184  0.71319  Biso   1.000  S
  S36      1.0000 0.99580  0.79208  0.80581  Biso   1.000  S
  N23      1.0000 0.25080  0.67016  0.65309  Biso   1.000  N
  N24      1.0000 0.25280  0.84037  0.83632  Biso   1.000  N
  C155     1.0000 0.32400  0.69080  0.65991  Biso   1.000  C
  C156     1.0000 0.41450  0.71600  0.66920  Biso   1.000  C
  C157     1.0000 0.44530  0.75560  0.65326  Biso   1.000  C
  H67      1.0000 0.40810  0.77080  0.63290  Biso   1.000  H
  C158     1.0000 0.53810  0.77170  0.67027  Biso   1.000  C
  H68      1.0000 0.57060  0.79890  0.66260  Biso   1.000  H
  C159     1.0000 0.57720  0.74420  0.69899  Biso   1.000  C
  C160     1.0000 0.66880  0.75019  0.72369  Biso   1.000  C
  C161     1.0000 0.69790  0.72620  0.75680  Biso   1.000  C
  H69      1.0000 0.65940  0.70140  0.76680  Biso   1.000  H
  C162     1.0000 0.79120  0.74230  0.77434  Biso   1.000  C
  H70      1.0000 0.82140  0.72980  0.79750  Biso   1.000  H
  C163     1.0000 0.83380  0.77810  0.75413  Biso   1.000  C
  C164     1.0000 0.93040  0.80226  0.76211  Biso   1.000  C
  C165     1.0000 0.98160  0.83280  0.73945  Biso   1.000  C
  H71      1.0000 0.95600  0.84310  0.71470  Biso   1.000  H
  C166     1.0000 0.07550  0.84750  0.75604  Biso   1.000  C
  H72      1.0000 0.12180  0.86790  0.74360  Biso   1.000  H
  C167     1.0000 0.09270  0.82900  0.79220  Biso   1.000  C
  C168     1.0000 0.18190  0.83512  0.81669  Biso   1.000  C
  S37      1.0000 0.74993  0.55234  0.70503  Biso   1.000  S
  S38      1.0000 0.49117  0.45816  0.71319  Biso   1.000  S
  S39      1.0000 0.25420  0.45792  0.80581  Biso   1.000  S
  N25      1.0000 0.99920  0.57984  0.65309  Biso   1.000  N
  N26      1.0000 0.99720  0.40963  0.83632  Biso   1.000  N
  C169     1.0000 0.92600  0.55920  0.65991  Biso   1.000  C
  C170     1.0000 0.83550  0.53400  0.66920  Biso   1.000  C
  C171     1.0000 0.80470  0.49440  0.65326  Biso   1.000  C
  H73      1.0000 0.84190  0.47920  0.63290  Biso   1.000  H
  C172     1.0000 0.71190  0.47830  0.67027  Biso   1.000  C
  H74      1.0000 0.67940  0.45110  0.66260  Biso   1.000  H
  C173     1.0000 0.67280  0.50580  0.69899  Biso   1.000  C
  C174     1.0000 0.58120  0.49981  0.72369  Biso   1.000  C
  C175     1.0000 0.55210  0.52380  0.75680  Biso   1.000  C
  H75      1.0000 0.59060  0.54860  0.76680  Biso   1.000  H
  C176     1.0000 0.45880  0.50770  0.77434  Biso   1.000  C
  H76      1.0000 0.42860  0.52020  0.79750  Biso   1.000  H
  C177     1.0000 0.41620  0.47190  0.75413  Biso   1.000  C
  C178     1.0000 0.31960  0.44774  0.76211  Biso   1.000  C
  C179     1.0000 0.26840  0.41720  0.73945  Biso   1.000  C
  H77      1.0000 0.29400  0.40690  0.71470  Biso   1.000  H
  C180     1.0000 0.17450  0.40250  0.75604  Biso   1.000  C
  H78      1.0000 0.12820  0.38210  0.74360  Biso   1.000  H
  C181     1.0000 0.15730  0.42100  0.79220  Biso   1.000  C
  C182     1.0000 0.06810  0.41488  0.81669  Biso   1.000  C
  S40      1.0000 0.74993  0.05234  0.20503  Biso   1.000  S
  S41      1.0000 0.49117  0.95816  0.21319  Biso   1.000  S
  S42      1.0000 0.25420  0.95792  0.30581  Biso   1.000  S
  N27      1.0000 0.99920  0.07984  0.15309  Biso   1.000  N
  N28      1.0000 0.99720  0.90963  0.33632  Biso   1.000  N
  C183     1.0000 0.92600  0.05920  0.15991  Biso   1.000  C
  C184     1.0000 0.83550  0.03400  0.16920  Biso   1.000  C
  C185     1.0000 0.80470  0.99440  0.15326  Biso   1.000  C
  H79      1.0000 0.84190  0.97920  0.13290  Biso   1.000  H
  C186     1.0000 0.71190  0.97830  0.17027  Biso   1.000  C
  H80      1.0000 0.67940  0.95110  0.16260  Biso   1.000  H
  C187     1.0000 0.67280  0.00580  0.19899  Biso   1.000  C
  C188     1.0000 0.58120  0.99981  0.22369  Biso   1.000  C
  C189     1.0000 0.55210  0.02380  0.25680  Biso   1.000  C
  H81      1.0000 0.59060  0.04860  0.26680  Biso   1.000  H
  C190     1.0000 0.45880  0.00770  0.27434  Biso   1.000  C
  H82      1.0000 0.42860  0.02020  0.29750  Biso   1.000  H
  C191     1.0000 0.41620  0.97190  0.25413  Biso   1.000  C
  C192     1.0000 0.31960  0.94774  0.26211  Biso   1.000  C
  C193     1.0000 0.26840  0.91720  0.23945  Biso   1.000  C
  H83      1.0000 0.29400  0.90690  0.21470  Biso   1.000  H
  C194     1.0000 0.17450  0.90250  0.25604  Biso   1.000  C
  H84      1.0000 0.12820  0.88210  0.24360  Biso   1.000  H
  C195     1.0000 0.15730  0.92100  0.29220  Biso   1.000  C
  C196     1.0000 0.06810  0.91488  0.31669  Biso   1.000  C
  S43      1.0000 0.24993  0.55234  0.20503  Biso   1.000  S
  S44      1.0000 0.99117  0.45816  0.21319  Biso   1.000  S
  S45      1.0000 0.75420  0.45792  0.30581  Biso   1.000  S
  N29      1.0000 0.49920  0.57984  0.15309  Biso   1.000  N
  N30      1.0000 0.49720  0.40963  0.33632  Biso   1.000  N
  C197     1.0000 0.42600  0.55920  0.15991  Biso   1.000  C
  C198     1.0000 0.33550  0.53400  0.16920  Biso   1.000  C
  C199     1.0000 0.30470  0.49440  0.15326  Biso   1.000  C
  H85      1.0000 0.34190  0.47920  0.13290  Biso   1.000  H
  C200     1.0000 0.21190  0.47830  0.17027  Biso   1.000  C
  H86      1.0000 0.17940  0.45110  0.16260  Biso   1.000  H
  C201     1.0000 0.17280  0.50580  0.19899  Biso   1.000  C
  C202     1.0000 0.08120  0.49981  0.22369  Biso   1.000  C
  C203     1.0000 0.05210  0.52380  0.25680  Biso   1.000  C
  H87      1.0000 0.09060  0.54860  0.26680  Biso   1.000  H
  C204     1.0000 0.95880  0.50770  0.27434  Biso   1.000  C
  H88      1.0000 0.92860  0.52020  0.29750  Biso   1.000  H
  C205     1.0000 0.91620  0.47190  0.25413  Biso   1.000  C
  C206     1.0000 0.81960  0.44774  0.26211  Biso   1.000  C
  C207     1.0000 0.76840  0.41720  0.23945  Biso   1.000  C
  H89      1.0000 0.79400  0.40690  0.21470  Biso   1.000  H
  C208     1.0000 0.67450  0.40250  0.25604  Biso   1.000  C
  H90      1.0000 0.62820  0.38210  0.24360  Biso   1.000  H
  C209     1.0000 0.65730  0.42100  0.29220  Biso   1.000  C
  C210     1.0000 0.56810  0.41488  0.31669  Biso   1.000  C
  S46      1.0000 0.24993  0.05234  0.70503  Biso   1.000  S
  S47      1.0000 0.99117  0.95816  0.71319  Biso   1.000  S
  S48      1.0000 0.75420  0.95792  0.80581  Biso   1.000  S
  N31      1.0000 0.49920  0.07984  0.65309  Biso   1.000  N
  N32      1.0000 0.49720  0.90963  0.83632  Biso   1.000  N
  C211     1.0000 0.42600  0.05920  0.65991  Biso   1.000  C
  C212     1.0000 0.33550  0.03400  0.66920  Biso   1.000  C
  C213     1.0000 0.30470  0.99440  0.65326  Biso   1.000  C
  H91      1.0000 0.34190  0.97920  0.63290  Biso   1.000  H
  C214     1.0000 0.21190  0.97830  0.67027  Biso   1.000  C
  H92      1.0000 0.17940  0.95110  0.66260  Biso   1.000  H
  C215     1.0000 0.17280  0.00580  0.69899  Biso   1.000  C
  C216     1.0000 0.08120  0.99981  0.72369  Biso   1.000  C
  C217     1.0000 0.05210  0.02380  0.75680  Biso   1.000  C
  H93      1.0000 0.09060  0.04860  0.76680  Biso   1.000  H
  C218     1.0000 0.95880  0.00770  0.77434  Biso   1.000  C
  H94      1.0000 0.92860  0.02020  0.79750  Biso   1.000  H
  C219     1.0000 0.91620  0.97190  0.75413  Biso   1.000  C
  C220     1.0000 0.81960  0.94774  0.76211  Biso   1.000  C
  C221     1.0000 0.76840  0.91720  0.73945  Biso   1.000  C
  H95      1.0000 0.79400  0.90690  0.71470  Biso   1.000  H
  C222     1.0000 0.67450  0.90250  0.75604  Biso   1.000  C
  H96      1.0000 0.62820  0.88210  0.74360  Biso   1.000  H
  C223     1.0000 0.65730  0.92100  0.79220  Biso   1.000  C
  C224     1.0000 0.56810  0.91488  0.81669  Biso   1.000  C
  Ag1      1.0000 0.12500  0.12500  0.12500  Biso   1.000  Ag
  Ag2      1.0000 0.12500  0.62500  0.62500  Biso   1.000  Ag
  Ag3      1.0000 0.62500  0.62500  0.12500  Biso   1.000  Ag
  Ag4      1.0000 0.62500  0.12500  0.62500  Biso   1.000  Ag
  Ag5      1.0000 0.87500  0.37500  0.87500  Biso   1.000  Ag
  Ag6      1.0000 0.87500  0.87500  0.37500  Biso   1.000  Ag
  Ag7      1.0000 0.37500  0.37500  0.37500  Biso   1.000  Ag
  Ag8      1.0000 0.37500  0.87500  0.87500  Biso   1.000  Ag
  S49      1.0000 0.25007  0.80234  0.95503  Biso   1.000  S
  S50      1.0000 0.50883  0.70816  0.96319  Biso   1.000  S
  S51      1.0000 0.74580  0.70792  0.05581  Biso   1.000  S
  N33      1.0000 0.00080  0.82984  0.90309  Biso   1.000  N
  N34      1.0000 0.00280  0.65963  0.08632  Biso   1.000  N
  C225     1.0000 0.07400  0.80920  0.90991  Biso   1.000  C
  C226     1.0000 0.16450  0.78400  0.91920  Biso   1.000  C
  C227     1.0000 0.19530  0.74440  0.90326  Biso   1.000  C
  H97      1.0000 0.15810  0.72920  0.88290  Biso   1.000  H
  C228     1.0000 0.28810  0.72830  0.92027  Biso   1.000  C
  H98      1.0000 0.32060  0.70110  0.91260  Biso   1.000  H
  C229     1.0000 0.32720  0.75580  0.94899  Biso   1.000  C
  C230     1.0000 0.41880  0.74981  0.97369  Biso   1.000  C
  C231     1.0000 0.44790  0.77380  0.00680  Biso   1.000  C
  H99      1.0000 0.40940  0.79860  0.01680  Biso   1.000  H
  C232     1.0000 0.54120  0.75770  0.02434  Biso   1.000  C
  H100     1.0000 0.57140  0.77020  0.04750  Biso   1.000  H
  C233     1.0000 0.58380  0.72190  0.00413  Biso   1.000  C
  C234     1.0000 0.68040  0.69774  0.01211  Biso   1.000  C
  C235     1.0000 0.73160  0.66720  0.98945  Biso   1.000  C
  H101     1.0000 0.70600  0.65690  0.96470  Biso   1.000  H
  C236     1.0000 0.82550  0.65250  0.00604  Biso   1.000  C
  H102     1.0000 0.87180  0.63210  0.99360  Biso   1.000  H
  C237     1.0000 0.84270  0.67100  0.04220  Biso   1.000  C
  C238     1.0000 0.93190  0.66488  0.06669  Biso   1.000  C
  S52      1.0000 0.25007  0.30234  0.45503  Biso   1.000  S
  S53      1.0000 0.50883  0.20816  0.46319  Biso   1.000  S
  S54      1.0000 0.74580  0.20792  0.55581  Biso   1.000  S
  N35      1.0000 0.00080  0.32984  0.40309  Biso   1.000  N
  N36      1.0000 0.00280  0.15963  0.58632  Biso   1.000  N
  C239     1.0000 0.07400  0.30920  0.40991  Biso   1.000  C
  C240     1.0000 0.16450  0.28400  0.41920  Biso   1.000  C
  C241     1.0000 0.19530  0.24440  0.40326  Biso   1.000  C
  H103     1.0000 0.15810  0.22920  0.38290  Biso   1.000  H
  C242     1.0000 0.28810  0.22830  0.42027  Biso   1.000  C
  H104     1.0000 0.32060  0.20110  0.41260  Biso   1.000  H
  C243     1.0000 0.32720  0.25580  0.44899  Biso   1.000  C
  C244     1.0000 0.41880  0.24981  0.47369  Biso   1.000  C
  C245     1.0000 0.44790  0.27380  0.50680  Biso   1.000  C
  H105     1.0000 0.40940  0.29860  0.51680  Biso   1.000  H
  C246     1.0000 0.54120  0.25770  0.52434  Biso   1.000  C
  H106     1.0000 0.57140  0.27020  0.54750  Biso   1.000  H
  C247     1.0000 0.58380  0.22190  0.50413  Biso   1.000  C
  C248     1.0000 0.68040  0.19774  0.51211  Biso   1.000  C
  C249     1.0000 0.73160  0.16720  0.48945  Biso   1.000  C
  H107     1.0000 0.70600  0.15690  0.46470  Biso   1.000  H
  C250     1.0000 0.82550  0.15250  0.50604  Biso   1.000  C
  H108     1.0000 0.87180  0.13210  0.49360  Biso   1.000  H
  C251     1.0000 0.84270  0.17100  0.54220  Biso   1.000  C
  C252     1.0000 0.93190  0.16488  0.56669  Biso   1.000  C
  S55      1.0000 0.75007  0.80234  0.45503  Biso   1.000  S
  S56      1.0000 0.00883  0.70816  0.46319  Biso   1.000  S
  S57      1.0000 0.24580  0.70792  0.55581  Biso   1.000  S
  N37      1.0000 0.50080  0.82984  0.40309  Biso   1.000  N
  N38      1.0000 0.50280  0.65963  0.58632  Biso   1.000  N
  C253     1.0000 0.57400  0.80920  0.40991  Biso   1.000  C
  C254     1.0000 0.66450  0.78400  0.41920  Biso   1.000  C
  C255     1.0000 0.69530  0.74440  0.40326  Biso   1.000  C
  H109     1.0000 0.65810  0.72920  0.38290  Biso   1.000  H
  C256     1.0000 0.78810  0.72830  0.42027  Biso   1.000  C
  H110     1.0000 0.82060  0.70110  0.41260  Biso   1.000  H
  C257     1.0000 0.82720  0.75580  0.44899  Biso   1.000  C
  C258     1.0000 0.91880  0.74981  0.47369  Biso   1.000  C
  C259     1.0000 0.94790  0.77380  0.50680  Biso   1.000  C
  H111     1.0000 0.90940  0.79860  0.51680  Biso   1.000  H
  C260     1.0000 0.04120  0.75770  0.52434  Biso   1.000  C
  H112     1.0000 0.07140  0.77020  0.54750  Biso   1.000  H
  C261     1.0000 0.08380  0.72190  0.50413  Biso   1.000  C
  C262     1.0000 0.18040  0.69774  0.51211  Biso   1.000  C
  C263     1.0000 0.23160  0.66720  0.48945  Biso   1.000  C
  H113     1.0000 0.20600  0.65690  0.46470  Biso   1.000  H
  C264     1.0000 0.32550  0.65250  0.50604  Biso   1.000  C
  H114     1.0000 0.37180  0.63210  0.49360  Biso   1.000  H
  C265     1.0000 0.34270  0.67100  0.54220  Biso   1.000  C
  C266     1.0000 0.43190  0.66488  0.56669  Biso   1.000  C
  S58      1.0000 0.75007  0.30234  0.95503  Biso   1.000  S
  S59      1.0000 0.00883  0.20816  0.96319  Biso   1.000  S
  S60      1.0000 0.24580  0.20792  0.05581  Biso   1.000  S
  N39      1.0000 0.50080  0.32984  0.90309  Biso   1.000  N
  N40      1.0000 0.50280  0.15963  0.08632  Biso   1.000  N
  C267     1.0000 0.57400  0.30920  0.90991  Biso   1.000  C
  C268     1.0000 0.66450  0.28400  0.91920  Biso   1.000  C
  C269     1.0000 0.69530  0.24440  0.90326  Biso   1.000  C
  H115     1.0000 0.65810  0.22920  0.88290  Biso   1.000  H
  C270     1.0000 0.78810  0.22830  0.92027  Biso   1.000  C
  H116     1.0000 0.82060  0.20110  0.91260  Biso   1.000  H
  C271     1.0000 0.82720  0.25580  0.94899  Biso   1.000  C
  C272     1.0000 0.91880  0.24981  0.97369  Biso   1.000  C
  C273     1.0000 0.94790  0.27380  0.00680  Biso   1.000  C
  H117     1.0000 0.90940  0.29860  0.01680  Biso   1.000  H
  C274     1.0000 0.04120  0.25770  0.02434  Biso   1.000  C
  H118     1.0000 0.07140  0.27020  0.04750  Biso   1.000  H
  C275     1.0000 0.08380  0.22190  0.00413  Biso   1.000  C
  C276     1.0000 0.18040  0.19774  0.01211  Biso   1.000  C
  C277     1.0000 0.23160  0.16720  0.98945  Biso   1.000  C
  H119     1.0000 0.20600  0.15690  0.96470  Biso   1.000  H
  C278     1.0000 0.32550  0.15250  0.00604  Biso   1.000  C
  H120     1.0000 0.37180  0.13210  0.99360  Biso   1.000  H
  C279     1.0000 0.34270  0.17100  0.04220  Biso   1.000  C
  C280     1.0000 0.43190  0.16488  0.06669  Biso   1.000  C
  S61      1.0000 0.99993  0.44766  0.95503  Biso   1.000  S
  S62      1.0000 0.74117  0.54184  0.96319  Biso   1.000  S
  S63      1.0000 0.50420  0.54208  0.05581  Biso   1.000  S
  N41      1.0000 0.24920  0.42016  0.90309  Biso   1.000  N
  N42      1.0000 0.24720  0.59037  0.08632  Biso   1.000  N
  C281     1.0000 0.17600  0.44080  0.90991  Biso   1.000  C
  C282     1.0000 0.08550  0.46600  0.91920  Biso   1.000  C
  C283     1.0000 0.05470  0.50560  0.90326  Biso   1.000  C
  H121     1.0000 0.09190  0.52080  0.88290  Biso   1.000  H
  C284     1.0000 0.96190  0.52170  0.92027  Biso   1.000  C
  H122     1.0000 0.92940  0.54890  0.91260  Biso   1.000  H
  C285     1.0000 0.92280  0.49420  0.94899  Biso   1.000  C
  C286     1.0000 0.83120  0.50019  0.97369  Biso   1.000  C
  C287     1.0000 0.80210  0.47620  0.00680  Biso   1.000  C
  H123     1.0000 0.84060  0.45140  0.01680  Biso   1.000  H
  C288     1.0000 0.70880  0.49230  0.02434  Biso   1.000  C
  H124     1.0000 0.67860  0.47980  0.04750  Biso   1.000  H
  C289     1.0000 0.66620  0.52810  0.00413  Biso   1.000  C
  C290     1.0000 0.56960  0.55226  0.01211  Biso   1.000  C
  C291     1.0000 0.51840  0.58280  0.98945  Biso   1.000  C
  H125     1.0000 0.54400  0.59310  0.96470  Biso   1.000  H
  C292     1.0000 0.42450  0.59750  0.00604  Biso   1.000  C
  H126     1.0000 0.37820  0.61790  0.99360  Biso   1.000  H
  C293     1.0000 0.40730  0.57900  0.04220  Biso   1.000  C
  C294     1.0000 0.31810  0.58512  0.06669  Biso   1.000  C
  S64      1.0000 0.99993  0.94766  0.45503  Biso   1.000  S
  S65      1.0000 0.74117  0.04184  0.46319  Biso   1.000  S
  S66      1.0000 0.50420  0.04208  0.55581  Biso   1.000  S
  N43      1.0000 0.24920  0.92016  0.40309  Biso   1.000  N
  N44      1.0000 0.24720  0.09037  0.58632  Biso   1.000  N
  C295     1.0000 0.17600  0.94080  0.40991  Biso   1.000  C
  C296     1.0000 0.08550  0.96600  0.41920  Biso   1.000  C
  C297     1.0000 0.05470  0.00560  0.40326  Biso   1.000  C
  H127     1.0000 0.09190  0.02080  0.38290  Biso   1.000  H
  C298     1.0000 0.96190  0.02170  0.42027  Biso   1.000  C
  H128     1.0000 0.92940  0.04890  0.41260  Biso   1.000  H
  C299     1.0000 0.92280  0.99420  0.44899  Biso   1.000  C
  C300     1.0000 0.83120  0.00019  0.47369  Biso   1.000  C
  C301     1.0000 0.80210  0.97620  0.50680  Biso   1.000  C
  H129     1.0000 0.84060  0.95140  0.51680  Biso   1.000  H
  C302     1.0000 0.70880  0.99230  0.52434  Biso   1.000  C
  H130     1.0000 0.67860  0.97980  0.54750  Biso   1.000  H
  C303     1.0000 0.66620  0.02810  0.50413  Biso   1.000  C
  C304     1.0000 0.56960  0.05226  0.51211  Biso   1.000  C
  C305     1.0000 0.51840  0.08280  0.48945  Biso   1.000  C
  H131     1.0000 0.54400  0.09310  0.46470  Biso   1.000  H
  C306     1.0000 0.42450  0.09750  0.50604  Biso   1.000  C
  H132     1.0000 0.37820  0.11790  0.49360  Biso   1.000  H
  C307     1.0000 0.40730  0.07900  0.54220  Biso   1.000  C
  C308     1.0000 0.31810  0.08512  0.56669  Biso   1.000  C
  S67      1.0000 0.49993  0.44766  0.45503  Biso   1.000  S
  S68      1.0000 0.24117  0.54184  0.46319  Biso   1.000  S
  S69      1.0000 0.00420  0.54208  0.55581  Biso   1.000  S
  N45      1.0000 0.74920  0.42016  0.40309  Biso   1.000  N
  N46      1.0000 0.74720  0.59037  0.58632  Biso   1.000  N
  C309     1.0000 0.67600  0.44080  0.40991  Biso   1.000  C
  C310     1.0000 0.58550  0.46600  0.41920  Biso   1.000  C
  C311     1.0000 0.55470  0.50560  0.40326  Biso   1.000  C
  H133     1.0000 0.59190  0.52080  0.38290  Biso   1.000  H
  C312     1.0000 0.46190  0.52170  0.42027  Biso   1.000  C
  H134     1.0000 0.42940  0.54890  0.41260  Biso   1.000  H
  C313     1.0000 0.42280  0.49420  0.44899  Biso   1.000  C
  C314     1.0000 0.33120  0.50019  0.47369  Biso   1.000  C
  C315     1.0000 0.30210  0.47620  0.50680  Biso   1.000  C
  H135     1.0000 0.34060  0.45140  0.51680  Biso   1.000  H
  C316     1.0000 0.20880  0.49230  0.52434  Biso   1.000  C
  H136     1.0000 0.17860  0.47980  0.54750  Biso   1.000  H
  C317     1.0000 0.16620  0.52810  0.50413  Biso   1.000  C
  C318     1.0000 0.06960  0.55226  0.51211  Biso   1.000  C
  C319     1.0000 0.01840  0.58280  0.48945  Biso   1.000  C
  H137     1.0000 0.04400  0.59310  0.46470  Biso   1.000  H
  C320     1.0000 0.92450  0.59750  0.50604  Biso   1.000  C
  H138     1.0000 0.87820  0.61790  0.49360  Biso   1.000  H
  C321     1.0000 0.90730  0.57900  0.54220  Biso   1.000  C
  C322     1.0000 0.81810  0.58512  0.56669  Biso   1.000  C
  S70      1.0000 0.49993  0.94766  0.95503  Biso   1.000  S
  S71      1.0000 0.24117  0.04184  0.96319  Biso   1.000  S
  S72      1.0000 0.00420  0.04208  0.05581  Biso   1.000  S
  N47      1.0000 0.74920  0.92016  0.90309  Biso   1.000  N
  N48      1.0000 0.74720  0.09037  0.08632  Biso   1.000  N
  C323     1.0000 0.67600  0.94080  0.90991  Biso   1.000  C
  C324     1.0000 0.58550  0.96600  0.91920  Biso   1.000  C
  C325     1.0000 0.55470  0.00560  0.90326  Biso   1.000  C
  H139     1.0000 0.59190  0.02080  0.88290  Biso   1.000  H
  C326     1.0000 0.46190  0.02170  0.92027  Biso   1.000  C
  H140     1.0000 0.42940  0.04890  0.91260  Biso   1.000  H
  C327     1.0000 0.42280  0.99420  0.94899  Biso   1.000  C
  C328     1.0000 0.33120  0.00019  0.97369  Biso   1.000  C
  C329     1.0000 0.30210  0.97620  0.00680  Biso   1.000  C
  H141     1.0000 0.34060  0.95140  0.01680  Biso   1.000  H
  C330     1.0000 0.20880  0.99230  0.02434  Biso   1.000  C
  H142     1.0000 0.17860  0.97980  0.04750  Biso   1.000  H
  C331     1.0000 0.16620  0.02810  0.00413  Biso   1.000  C
  C332     1.0000 0.06960  0.05226  0.01211  Biso   1.000  C
  C333     1.0000 0.01840  0.08280  0.98945  Biso   1.000  C
  H143     1.0000 0.04400  0.09310  0.96470  Biso   1.000  H
  C334     1.0000 0.92450  0.09750  0.00604  Biso   1.000  C
  H144     1.0000 0.87820  0.11790  0.99360  Biso   1.000  H
  C335     1.0000 0.90730  0.07900  0.04220  Biso   1.000  C
  C336     1.0000 0.81810  0.08512  0.06669  Biso   1.000  C
  S73      1.0000 0.99993  0.80234  0.29497  Biso   1.000  S
  S74      1.0000 0.74117  0.70816  0.28681  Biso   1.000  S
  S75      1.0000 0.50420  0.70792  0.19419  Biso   1.000  S
  N49      1.0000 0.24920  0.82984  0.34691  Biso   1.000  N
  N50      1.0000 0.24720  0.65963  0.16368  Biso   1.000  N
  C337     1.0000 0.17600  0.80920  0.34009  Biso   1.000  C
  C338     1.0000 0.08550  0.78400  0.33080  Biso   1.000  C
  C339     1.0000 0.05470  0.74440  0.34674  Biso   1.000  C
  H145     1.0000 0.09190  0.72920  0.36710  Biso   1.000  H
  C340     1.0000 0.96190  0.72830  0.32973  Biso   1.000  C
  H146     1.0000 0.92940  0.70110  0.33740  Biso   1.000  H
  C341     1.0000 0.92280  0.75580  0.30101  Biso   1.000  C
  C342     1.0000 0.83120  0.74981  0.27631  Biso   1.000  C
  C343     1.0000 0.80210  0.77380  0.24320  Biso   1.000  C
  H147     1.0000 0.84060  0.79860  0.23320  Biso   1.000  H
  C344     1.0000 0.70880  0.75770  0.22566  Biso   1.000  C
  H148     1.0000 0.67860  0.77020  0.20250  Biso   1.000  H
  C345     1.0000 0.66620  0.72190  0.24587  Biso   1.000  C
  C346     1.0000 0.56960  0.69774  0.23789  Biso   1.000  C
  C347     1.0000 0.51840  0.66720  0.26055  Biso   1.000  C
  H149     1.0000 0.54400  0.65690  0.28530  Biso   1.000  H
  C348     1.0000 0.42450  0.65250  0.24396  Biso   1.000  C
  H150     1.0000 0.37820  0.63210  0.25640  Biso   1.000  H
  C349     1.0000 0.40730  0.67100  0.20780  Biso   1.000  C
  C350     1.0000 0.31810  0.66488  0.18331  Biso   1.000  C
  S76      1.0000 0.99993  0.30234  0.79497  Biso   1.000  S
  S77      1.0000 0.74117  0.20816  0.78681  Biso   1.000  S
  S78      1.0000 0.50420  0.20792  0.69419  Biso   1.000  S
  N51      1.0000 0.24920  0.32984  0.84691  Biso   1.000  N
  N52      1.0000 0.24720  0.15963  0.66368  Biso   1.000  N
  C351     1.0000 0.17600  0.30920  0.84009  Biso   1.000  C
  C352     1.0000 0.08550  0.28400  0.83080  Biso   1.000  C
  C353     1.0000 0.05470  0.24440  0.84674  Biso   1.000  C
  H151     1.0000 0.09190  0.22920  0.86710  Biso   1.000  H
  C354     1.0000 0.96190  0.22830  0.82973  Biso   1.000  C
  H152     1.0000 0.92940  0.20110  0.83740  Biso   1.000  H
  C355     1.0000 0.92280  0.25580  0.80101  Biso   1.000  C
  C356     1.0000 0.83120  0.24981  0.77631  Biso   1.000  C
  C357     1.0000 0.80210  0.27380  0.74320  Biso   1.000  C
  H153     1.0000 0.84060  0.29860  0.73320  Biso   1.000  H
  C358     1.0000 0.70880  0.25770  0.72566  Biso   1.000  C
  H154     1.0000 0.67860  0.27020  0.70250  Biso   1.000  H
  C359     1.0000 0.66620  0.22190  0.74587  Biso   1.000  C
  C360     1.0000 0.56960  0.19774  0.73789  Biso   1.000  C
  C361     1.0000 0.51840  0.16720  0.76055  Biso   1.000  C
  H155     1.0000 0.54400  0.15690  0.78530  Biso   1.000  H
  C362     1.0000 0.42450  0.15250  0.74396  Biso   1.000  C
  H156     1.0000 0.37820  0.13210  0.75640  Biso   1.000  H
  C363     1.0000 0.40730  0.17100  0.70780  Biso   1.000  C
  C364     1.0000 0.31810  0.16488  0.68331  Biso   1.000  C
  S79      1.0000 0.49993  0.80234  0.79497  Biso   1.000  S
  S80      1.0000 0.24117  0.70816  0.78681  Biso   1.000  S
  S81      1.0000 0.00420  0.70792  0.69419  Biso   1.000  S
  N53      1.0000 0.74920  0.82984  0.84691  Biso   1.000  N
  N54      1.0000 0.74720  0.65963  0.66368  Biso   1.000  N
  C365     1.0000 0.67600  0.80920  0.84009  Biso   1.000  C
  C366     1.0000 0.58550  0.78400  0.83080  Biso   1.000  C
  C367     1.0000 0.55470  0.74440  0.84674  Biso   1.000  C
  H157     1.0000 0.59190  0.72920  0.86710  Biso   1.000  H
  C368     1.0000 0.46190  0.72830  0.82973  Biso   1.000  C
  H158     1.0000 0.42940  0.70110  0.83740  Biso   1.000  H
  C369     1.0000 0.42280  0.75580  0.80101  Biso   1.000  C
  C370     1.0000 0.33120  0.74981  0.77631  Biso   1.000  C
  C371     1.0000 0.30210  0.77380  0.74320  Biso   1.000  C
  H159     1.0000 0.34060  0.79860  0.73320  Biso   1.000  H
  C372     1.0000 0.20880  0.75770  0.72566  Biso   1.000  C
  H160     1.0000 0.17860  0.77020  0.70250  Biso   1.000  H
  C373     1.0000 0.16620  0.72190  0.74587  Biso   1.000  C
  C374     1.0000 0.06960  0.69774  0.73789  Biso   1.000  C
  C375     1.0000 0.01840  0.66720  0.76055  Biso   1.000  C
  H161     1.0000 0.04400  0.65690  0.78530  Biso   1.000  H
  C376     1.0000 0.92450  0.65250  0.74396  Biso   1.000  C
  H162     1.0000 0.87820  0.63210  0.75640  Biso   1.000  H
  C377     1.0000 0.90730  0.67100  0.70780  Biso   1.000  C
  C378     1.0000 0.81810  0.66488  0.68331  Biso   1.000  C
  S82      1.0000 0.49993  0.30234  0.29497  Biso   1.000  S
  S83      1.0000 0.24117  0.20816  0.28681  Biso   1.000  S
  S84      1.0000 0.00420  0.20792  0.19419  Biso   1.000  S
  N55      1.0000 0.74920  0.32984  0.34691  Biso   1.000  N
  N56      1.0000 0.74720  0.15963  0.16368  Biso   1.000  N
  C379     1.0000 0.67600  0.30920  0.34009  Biso   1.000  C
  C380     1.0000 0.58550  0.28400  0.33080  Biso   1.000  C
  C381     1.0000 0.55470  0.24440  0.34674  Biso   1.000  C
  H163     1.0000 0.59190  0.22920  0.36710  Biso   1.000  H
  C382     1.0000 0.46190  0.22830  0.32973  Biso   1.000  C
  H164     1.0000 0.42940  0.20110  0.33740  Biso   1.000  H
  C383     1.0000 0.42280  0.25580  0.30101  Biso   1.000  C
  C384     1.0000 0.33120  0.24981  0.27631  Biso   1.000  C
  C385     1.0000 0.30210  0.27380  0.24320  Biso   1.000  C
  H165     1.0000 0.34060  0.29860  0.23320  Biso   1.000  H
  C386     1.0000 0.20880  0.25770  0.22566  Biso   1.000  C
  H166     1.0000 0.17860  0.27020  0.20250  Biso   1.000  H
  C387     1.0000 0.16620  0.22190  0.24587  Biso   1.000  C
  C388     1.0000 0.06960  0.19774  0.23789  Biso   1.000  C
  C389     1.0000 0.01840  0.16720  0.26055  Biso   1.000  C
  H167     1.0000 0.04400  0.15690  0.28530  Biso   1.000  H
  C390     1.0000 0.92450  0.15250  0.24396  Biso   1.000  C
  H168     1.0000 0.87820  0.13210  0.25640  Biso   1.000  H
  C391     1.0000 0.90730  0.17100  0.20780  Biso   1.000  C
  C392     1.0000 0.81810  0.16488  0.18331  Biso   1.000  C
  S85      1.0000 0.25007  0.44766  0.29497  Biso   1.000  S
  S86      1.0000 0.50883  0.54184  0.28681  Biso   1.000  S
  S87      1.0000 0.74580  0.54208  0.19419  Biso   1.000  S
  N57      1.0000 0.00080  0.42016  0.34691  Biso   1.000  N
  N58      1.0000 0.00280  0.59037  0.16368  Biso   1.000  N
  C393     1.0000 0.07400  0.44080  0.34009  Biso   1.000  C
  C394     1.0000 0.16450  0.46600  0.33080  Biso   1.000  C
  C395     1.0000 0.19530  0.50560  0.34674  Biso   1.000  C
  H169     1.0000 0.15810  0.52080  0.36710  Biso   1.000  H
  C396     1.0000 0.28810  0.52170  0.32973  Biso   1.000  C
  H170     1.0000 0.32060  0.54890  0.33740  Biso   1.000  H
  C397     1.0000 0.32720  0.49420  0.30101  Biso   1.000  C
  C398     1.0000 0.41880  0.50019  0.27631  Biso   1.000  C
  C399     1.0000 0.44790  0.47620  0.24320  Biso   1.000  C
  H171     1.0000 0.40940  0.45140  0.23320  Biso   1.000  H
  C400     1.0000 0.54120  0.49230  0.22566  Biso   1.000  C
  H172     1.0000 0.57140  0.47980  0.20250  Biso   1.000  H
  C401     1.0000 0.58380  0.52810  0.24587  Biso   1.000  C
  C402     1.0000 0.68040  0.55226  0.23789  Biso   1.000  C
  C403     1.0000 0.73160  0.58280  0.26055  Biso   1.000  C
  H173     1.0000 0.70600  0.59310  0.28530  Biso   1.000  H
  C404     1.0000 0.82550  0.59750  0.24396  Biso   1.000  C
  H174     1.0000 0.87180  0.61790  0.25640  Biso   1.000  H
  C405     1.0000 0.84270  0.57900  0.20780  Biso   1.000  C
  C406     1.0000 0.93190  0.58512  0.18331  Biso   1.000  C
  S88      1.0000 0.25007  0.94766  0.79497  Biso   1.000  S
  S89      1.0000 0.50883  0.04184  0.78681  Biso   1.000  S
  S90      1.0000 0.74580  0.04208  0.69419  Biso   1.000  S
  N59      1.0000 0.00080  0.92016  0.84691  Biso   1.000  N
  N60      1.0000 0.00280  0.09037  0.66368  Biso   1.000  N
  C407     1.0000 0.07400  0.94080  0.84009  Biso   1.000  C
  C408     1.0000 0.16450  0.96600  0.83080  Biso   1.000  C
  C409     1.0000 0.19530  0.00560  0.84674  Biso   1.000  C
  H175     1.0000 0.15810  0.02080  0.86710  Biso   1.000  H
  C410     1.0000 0.28810  0.02170  0.82973  Biso   1.000  C
  H176     1.0000 0.32060  0.04890  0.83740  Biso   1.000  H
  C411     1.0000 0.32720  0.99420  0.80101  Biso   1.000  C
  C412     1.0000 0.41880  0.00019  0.77631  Biso   1.000  C
  C413     1.0000 0.44790  0.97620  0.74320  Biso   1.000  C
  H177     1.0000 0.40940  0.95140  0.73320  Biso   1.000  H
  C414     1.0000 0.54120  0.99230  0.72566  Biso   1.000  C
  H178     1.0000 0.57140  0.97980  0.70250  Biso   1.000  H
  C415     1.0000 0.58380  0.02810  0.74587  Biso   1.000  C
  C416     1.0000 0.68040  0.05226  0.73789  Biso   1.000  C
  C417     1.0000 0.73160  0.08280  0.76055  Biso   1.000  C
  H179     1.0000 0.70600  0.09310  0.78530  Biso   1.000  H
  C418     1.0000 0.82550  0.09750  0.74396  Biso   1.000  C
  H180     1.0000 0.87180  0.11790  0.75640  Biso   1.000  H
  C419     1.0000 0.84270  0.07900  0.70780  Biso   1.000  C
  C420     1.0000 0.93190  0.08512  0.68331  Biso   1.000  C
  S91      1.0000 0.75007  0.44766  0.79497  Biso   1.000  S
  S92      1.0000 0.00883  0.54184  0.78681  Biso   1.000  S
  S93      1.0000 0.24580  0.54208  0.69419  Biso   1.000  S
  N61      1.0000 0.50080  0.42016  0.84691  Biso   1.000  N
  N62      1.0000 0.50280  0.59037  0.66368  Biso   1.000  N
  C421     1.0000 0.57400  0.44080  0.84009  Biso   1.000  C
  C422     1.0000 0.66450  0.46600  0.83080  Biso   1.000  C
  C423     1.0000 0.69530  0.50560  0.84674  Biso   1.000  C
  H181     1.0000 0.65810  0.52080  0.86710  Biso   1.000  H
  C424     1.0000 0.78810  0.52170  0.82973  Biso   1.000  C
  H182     1.0000 0.82060  0.54890  0.83740  Biso   1.000  H
  C425     1.0000 0.82720  0.49420  0.80101  Biso   1.000  C
  C426     1.0000 0.91880  0.50019  0.77631  Biso   1.000  C
  C427     1.0000 0.94790  0.47620  0.74320  Biso   1.000  C
  H183     1.0000 0.90940  0.45140  0.73320  Biso   1.000  H
  C428     1.0000 0.04120  0.49230  0.72566  Biso   1.000  C
  H184     1.0000 0.07140  0.47980  0.70250  Biso   1.000  H
  C429     1.0000 0.08380  0.52810  0.74587  Biso   1.000  C
  C430     1.0000 0.18040  0.55226  0.73789  Biso   1.000  C
  C431     1.0000 0.23160  0.58280  0.76055  Biso   1.000  C
  H185     1.0000 0.20600  0.59310  0.78530  Biso   1.000  H
  C432     1.0000 0.32550  0.59750  0.74396  Biso   1.000  C
  H186     1.0000 0.37180  0.61790  0.75640  Biso   1.000  H
  C433     1.0000 0.34270  0.57900  0.70780  Biso   1.000  C
  C434     1.0000 0.43190  0.58512  0.68331  Biso   1.000  C
  S94      1.0000 0.75007  0.94766  0.29497  Biso   1.000  S
  S95      1.0000 0.00883  0.04184  0.28681  Biso   1.000  S
  S96      1.0000 0.24580  0.04208  0.19419  Biso   1.000  S
  N63      1.0000 0.50080  0.92016  0.34691  Biso   1.000  N
  N64      1.0000 0.50280  0.09037  0.16368  Biso   1.000  N
  C435     1.0000 0.57400  0.94080  0.34009  Biso   1.000  C
  C436     1.0000 0.66450  0.96600  0.33080  Biso   1.000  C
  C437     1.0000 0.69530  0.00560  0.34674  Biso   1.000  C
  H187     1.0000 0.65810  0.02080  0.36710  Biso   1.000  H
  C438     1.0000 0.78810  0.02170  0.32973  Biso   1.000  C
  H188     1.0000 0.82060  0.04890  0.33740  Biso   1.000  H
  C439     1.0000 0.82720  0.99420  0.30101  Biso   1.000  C
  C440     1.0000 0.91880  0.00019  0.27631  Biso   1.000  C
  C441     1.0000 0.94790  0.97620  0.24320  Biso   1.000  C
  H189     1.0000 0.90940  0.95140  0.23320  Biso   1.000  H
  C442     1.0000 0.04120  0.99230  0.22566  Biso   1.000  C
  H190     1.0000 0.07140  0.97980  0.20250  Biso   1.000  H
  C443     1.0000 0.08380  0.02810  0.24587  Biso   1.000  C
  C444     1.0000 0.18040  0.05226  0.23789  Biso   1.000  C
  C445     1.0000 0.23160  0.08280  0.26055  Biso   1.000  C
  H191     1.0000 0.20600  0.09310  0.28530  Biso   1.000  H
  C446     1.0000 0.32550  0.09750  0.24396  Biso   1.000  C
  H192     1.0000 0.37180  0.11790  0.25640  Biso   1.000  H
  C447     1.0000 0.34270  0.07900  0.20780  Biso   1.000  C
  C448     1.0000 0.43190  0.08512  0.18331  Biso   1.000  C
  Ag9      1.0000 0.87500  0.87500  0.87500  Biso   1.000  Ag
  Ag10     1.0000 0.87500  0.37500  0.37500  Biso   1.000  Ag
  Ag11     1.0000 0.37500  0.37500  0.87500  Biso   1.000  Ag
  Ag12     1.0000 0.37500  0.87500  0.37500  Biso   1.000  Ag
  Ag13     1.0000 0.12500  0.62500  0.12500  Biso   1.000  Ag
  Ag14     1.0000 0.12500  0.12500  0.62500  Biso   1.000  Ag
  Ag15     1.0000 0.62500  0.62500  0.62500  Biso   1.000  Ag
  Ag16     1.0000 0.62500  0.12500  0.12500  Biso   1.000  Ag
