data_image0
_cell_length_a       26.956
_cell_length_b       26.956
_cell_length_c       39.145
_cell_angle_alpha    90
_cell_angle_beta     90
_cell_angle_gamma    90

_symmetry_space_group_name_H-M    "P 1"
_symmetry_int_tables_number       1

loop_
  _symmetry_equiv_pos_as_xyz
  'x, y, z'

loop_
  _atom_site_label
  _atom_site_occupancy
  _atom_site_fract_x
  _atom_site_fract_y
  _atom_site_fract_z
  _atom_site_thermal_displace_type
  _atom_site_B_iso_or_equiv
  _atom_site_type_symbol
  Cu1      1.0000 0.75177  0.12243  0.19589  Biso   1.000  Cu
  Cu2      1.0000 0.81488  0.09169  0.14767  Biso   1.000  Cu
  O1       1.0000 0.83170  0.34640  0.03565  Biso   1.000  O
  O2       1.0000 0.85800  0.26710  0.03554  Biso   1.000  O
  O3       1.0000 0.75110  0.18248  0.16689  Biso   1.000  O
  O4       1.0000 0.80030  0.15430  0.12483  Biso   1.000  O
  O5       1.0000 0.73620  0.56080  0.28135  Biso   1.000  O
  O6       1.0000 0.68030  0.53560  0.32146  Biso   1.000  O
  O7       1.0000 0.64590  0.31290  0.28407  Biso   1.000  O
  O8       1.0000 0.62460  0.36480  0.32577  Biso   1.000  O
  O9       1.0000 0.92610  0.37680  0.03561  Biso   1.000  O
  O10      1.0000 0.95190  0.29540  0.03617  Biso   1.000  O
  O11      1.0000 0.09030  0.29720  0.16668  Biso   1.000  O
  O12      1.0000 0.06240  0.24220  0.12828  Biso   1.000  O
  N1       1.0000 0.76010  0.41620  0.14340  Biso   1.000  N
  N2       1.0000 0.74280  0.44290  0.17250  Biso   1.000  N
  H1       1.0000 0.74220  0.47450  0.17530  Biso   1.000  H
  N3       1.0000 0.73460  0.36490  0.18310  Biso   1.000  N
  N4       1.0000 0.00300  0.47520  0.16450  Biso   1.000  N
  C1       1.0000 0.75100  0.36890  0.15340  Biso   1.000  C
  C2       1.0000 0.72760  0.40820  0.19460  Biso   1.000  C
  C3       1.0000 0.76420  0.32840  0.13220  Biso   1.000  C
  C4       1.0000 0.78550  0.33400  0.09850  Biso   1.000  C
  H2       1.0000 0.78630  0.36530  0.08840  Biso   1.000  H
  C5       1.0000 0.80550  0.29180  0.08030  Biso   1.000  C
  C6       1.0000 0.79970  0.24540  0.09420  Biso   1.000  C
  H3       1.0000 0.81120  0.21830  0.08190  Biso   1.000  H
  C7       1.0000 0.77820  0.23700  0.12460  Biso   1.000  C
  C8       1.0000 0.75930  0.27990  0.14390  Biso   1.000  C
  H4       1.0000 0.74340  0.27440  0.16460  Biso   1.000  H
  C9       1.0000 0.83580  0.30200  0.04690  Biso   1.000  C
  C10      1.0000 0.77720  0.18550  0.13940  Biso   1.000  C
  C11      1.0000 0.71080  0.42490  0.22810  Biso   1.000  C
  C12      1.0000 0.71770  0.47190  0.24400  Biso   1.000  C
  H5       1.0000 0.73540  0.49690  0.23310  Biso   1.000  H
  C13      1.0000 0.69830  0.47960  0.27530  Biso   1.000  C
  C14      1.0000 0.67260  0.44050  0.29280  Biso   1.000  C
  H6       1.0000 0.65920  0.44600  0.31440  Biso   1.000  H
  C15      1.0000 0.66780  0.39490  0.27750  Biso   1.000  C
  C16      1.0000 0.68800  0.38910  0.24560  Biso   1.000  C
  H7       1.0000 0.68570  0.35800  0.23540  Biso   1.000  H
  C17      1.0000 0.70650  0.53110  0.29490  Biso   1.000  C
  C18      1.0000 0.64320  0.35400  0.29870  Biso   1.000  C
  C19      1.0000 0.00380  0.46100  0.13240  Biso   1.000  C
  C20      1.0000 0.00640  0.41160  0.12000  Biso   1.000  C
  C21      1.0000 0.98430  0.40070  0.09150  Biso   1.000  C
  H8       1.0000 0.96830  0.42610  0.07970  Biso   1.000  H
  C22      1.0000 0.98300  0.35280  0.07720  Biso   1.000  C
  C23      1.0000 0.01140  0.31660  0.09280  Biso   1.000  C
  H9       1.0000 0.01310  0.28540  0.08280  Biso   1.000  H
  C24      1.0000 0.03810  0.32510  0.12370  Biso   1.000  C
  C25      1.0000 0.03430  0.37630  0.13680  Biso   1.000  C
  H10      1.0000 0.05100  0.38490  0.15670  Biso   1.000  H
  C26      1.0000 0.95120  0.33910  0.04670  Biso   1.000  C
  C27      1.0000 0.06610  0.28320  0.14060  Biso   1.000  C
  H11      1.0000 0.00560  0.45640  0.18210  Biso   1.000  H
  Cu3      1.0000 0.24823  0.87757  0.19589  Biso   1.000  Cu
  Cu4      1.0000 0.18512  0.90831  0.14767  Biso   1.000  Cu
  O13      1.0000 0.16830  0.65360  0.03565  Biso   1.000  O
  O14      1.0000 0.14200  0.73290  0.03554  Biso   1.000  O
  O15      1.0000 0.24890  0.81752  0.16689  Biso   1.000  O
  O16      1.0000 0.19970  0.84570  0.12483  Biso   1.000  O
  O17      1.0000 0.26380  0.43920  0.28135  Biso   1.000  O
  O18      1.0000 0.31970  0.46440  0.32146  Biso   1.000  O
  O19      1.0000 0.35410  0.68710  0.28407  Biso   1.000  O
  O20      1.0000 0.37540  0.63520  0.32577  Biso   1.000  O
  O21      1.0000 0.07390  0.62320  0.03561  Biso   1.000  O
  O22      1.0000 0.04810  0.70460  0.03617  Biso   1.000  O
  O23      1.0000 0.90970  0.70280  0.16668  Biso   1.000  O
  O24      1.0000 0.93760  0.75780  0.12828  Biso   1.000  O
  N5       1.0000 0.23990  0.58380  0.14340  Biso   1.000  N
  N6       1.0000 0.25720  0.55710  0.17250  Biso   1.000  N
  H12      1.0000 0.25780  0.52550  0.17530  Biso   1.000  H
  N7       1.0000 0.26540  0.63510  0.18310  Biso   1.000  N
  N8       1.0000 0.99700  0.52480  0.16450  Biso   1.000  N
  C28      1.0000 0.24900  0.63110  0.15340  Biso   1.000  C
  C29      1.0000 0.27240  0.59180  0.19460  Biso   1.000  C
  C30      1.0000 0.23580  0.67160  0.13220  Biso   1.000  C
  C31      1.0000 0.21450  0.66600  0.09850  Biso   1.000  C
  H13      1.0000 0.21370  0.63470  0.08840  Biso   1.000  H
  C32      1.0000 0.19450  0.70820  0.08030  Biso   1.000  C
  C33      1.0000 0.20030  0.75460  0.09420  Biso   1.000  C
  H14      1.0000 0.18880  0.78170  0.08190  Biso   1.000  H
  C34      1.0000 0.22180  0.76300  0.12460  Biso   1.000  C
  C35      1.0000 0.24070  0.72010  0.14390  Biso   1.000  C
  H15      1.0000 0.25660  0.72560  0.16460  Biso   1.000  H
  C36      1.0000 0.16420  0.69800  0.04690  Biso   1.000  C
  C37      1.0000 0.22280  0.81450  0.13940  Biso   1.000  C
  C38      1.0000 0.28920  0.57510  0.22810  Biso   1.000  C
  C39      1.0000 0.28230  0.52810  0.24400  Biso   1.000  C
  H16      1.0000 0.26460  0.50310  0.23310  Biso   1.000  H
  C40      1.0000 0.30170  0.52040  0.27530  Biso   1.000  C
  C41      1.0000 0.32740  0.55950  0.29280  Biso   1.000  C
  H17      1.0000 0.34080  0.55400  0.31440  Biso   1.000  H
  C42      1.0000 0.33220  0.60510  0.27750  Biso   1.000  C
  C43      1.0000 0.31200  0.61090  0.24560  Biso   1.000  C
  H18      1.0000 0.31430  0.64200  0.23540  Biso   1.000  H
  C44      1.0000 0.29350  0.46890  0.29490  Biso   1.000  C
  C45      1.0000 0.35680  0.64600  0.29870  Biso   1.000  C
  C46      1.0000 0.99620  0.53900  0.13240  Biso   1.000  C
  C47      1.0000 0.99360  0.58840  0.12000  Biso   1.000  C
  C48      1.0000 0.01570  0.59930  0.09150  Biso   1.000  C
  H19      1.0000 0.03170  0.57390  0.07970  Biso   1.000  H
  C49      1.0000 0.01700  0.64720  0.07720  Biso   1.000  C
  C50      1.0000 0.98860  0.68340  0.09280  Biso   1.000  C
  H20      1.0000 0.98690  0.71460  0.08280  Biso   1.000  H
  C51      1.0000 0.96190  0.67490  0.12370  Biso   1.000  C
  C52      1.0000 0.96570  0.62370  0.13680  Biso   1.000  C
  H21      1.0000 0.94900  0.61510  0.15670  Biso   1.000  H
  C53      1.0000 0.04880  0.66090  0.04670  Biso   1.000  C
  C54      1.0000 0.93390  0.71680  0.14060  Biso   1.000  C
  H22      1.0000 0.99440  0.54360  0.18210  Biso   1.000  H
  Cu5      1.0000 0.87757  0.75177  0.19589  Biso   1.000  Cu
  Cu6      1.0000 0.90831  0.81488  0.14767  Biso   1.000  Cu
  O25      1.0000 0.65360  0.83170  0.03565  Biso   1.000  O
  O26      1.0000 0.73290  0.85800  0.03554  Biso   1.000  O
  O27      1.0000 0.81752  0.75110  0.16689  Biso   1.000  O
  O28      1.0000 0.84570  0.80030  0.12483  Biso   1.000  O
  O29      1.0000 0.43920  0.73620  0.28135  Biso   1.000  O
  O30      1.0000 0.46440  0.68030  0.32146  Biso   1.000  O
  O31      1.0000 0.68710  0.64590  0.28407  Biso   1.000  O
  O32      1.0000 0.63520  0.62460  0.32577  Biso   1.000  O
  O33      1.0000 0.62320  0.92610  0.03561  Biso   1.000  O
  O34      1.0000 0.70460  0.95190  0.03617  Biso   1.000  O
  O35      1.0000 0.70280  0.09030  0.16668  Biso   1.000  O
  O36      1.0000 0.75780  0.06240  0.12828  Biso   1.000  O
  N9       1.0000 0.58380  0.76010  0.14340  Biso   1.000  N
  N10      1.0000 0.55710  0.74280  0.17250  Biso   1.000  N
  H23      1.0000 0.52550  0.74220  0.17530  Biso   1.000  H
  N11      1.0000 0.63510  0.73460  0.18310  Biso   1.000  N
  N12      1.0000 0.52480  0.00300  0.16450  Biso   1.000  N
  C55      1.0000 0.63110  0.75100  0.15340  Biso   1.000  C
  C56      1.0000 0.59180  0.72760  0.19460  Biso   1.000  C
  C57      1.0000 0.67160  0.76420  0.13220  Biso   1.000  C
  C58      1.0000 0.66600  0.78550  0.09850  Biso   1.000  C
  H24      1.0000 0.63470  0.78630  0.08840  Biso   1.000  H
  C59      1.0000 0.70820  0.80550  0.08030  Biso   1.000  C
  C60      1.0000 0.75460  0.79970  0.09420  Biso   1.000  C
  H25      1.0000 0.78170  0.81120  0.08190  Biso   1.000  H
  C61      1.0000 0.76300  0.77820  0.12460  Biso   1.000  C
  C62      1.0000 0.72010  0.75930  0.14390  Biso   1.000  C
  H26      1.0000 0.72560  0.74340  0.16460  Biso   1.000  H
  C63      1.0000 0.69800  0.83580  0.04690  Biso   1.000  C
  C64      1.0000 0.81450  0.77720  0.13940  Biso   1.000  C
  C65      1.0000 0.57510  0.71080  0.22810  Biso   1.000  C
  C66      1.0000 0.52810  0.71770  0.24400  Biso   1.000  C
  H27      1.0000 0.50310  0.73540  0.23310  Biso   1.000  H
  C67      1.0000 0.52040  0.69830  0.27530  Biso   1.000  C
  C68      1.0000 0.55950  0.67260  0.29280  Biso   1.000  C
  H28      1.0000 0.55400  0.65920  0.31440  Biso   1.000  H
  C69      1.0000 0.60510  0.66780  0.27750  Biso   1.000  C
  C70      1.0000 0.61090  0.68800  0.24560  Biso   1.000  C
  H29      1.0000 0.64200  0.68570  0.23540  Biso   1.000  H
  C71      1.0000 0.46890  0.70650  0.29490  Biso   1.000  C
  C72      1.0000 0.64600  0.64320  0.29870  Biso   1.000  C
  C73      1.0000 0.53900  0.00380  0.13240  Biso   1.000  C
  C74      1.0000 0.58840  0.00640  0.12000  Biso   1.000  C
  C75      1.0000 0.59930  0.98430  0.09150  Biso   1.000  C
  H30      1.0000 0.57390  0.96830  0.07970  Biso   1.000  H
  C76      1.0000 0.64720  0.98300  0.07720  Biso   1.000  C
  C77      1.0000 0.68340  0.01140  0.09280  Biso   1.000  C
  H31      1.0000 0.71460  0.01310  0.08280  Biso   1.000  H
  C78      1.0000 0.67490  0.03810  0.12370  Biso   1.000  C
  C79      1.0000 0.62370  0.03430  0.13680  Biso   1.000  C
  H32      1.0000 0.61510  0.05100  0.15670  Biso   1.000  H
  C80      1.0000 0.66090  0.95120  0.04670  Biso   1.000  C
  C81      1.0000 0.71680  0.06610  0.14060  Biso   1.000  C
  H33      1.0000 0.54360  0.00560  0.18210  Biso   1.000  H
  Cu7      1.0000 0.12243  0.24823  0.19589  Biso   1.000  Cu
  Cu8      1.0000 0.09169  0.18512  0.14767  Biso   1.000  Cu
  O37      1.0000 0.34640  0.16830  0.03565  Biso   1.000  O
  O38      1.0000 0.26710  0.14200  0.03554  Biso   1.000  O
  O39      1.0000 0.18248  0.24890  0.16689  Biso   1.000  O
  O40      1.0000 0.15430  0.19970  0.12483  Biso   1.000  O
  O41      1.0000 0.56080  0.26380  0.28135  Biso   1.000  O
  O42      1.0000 0.53560  0.31970  0.32146  Biso   1.000  O
  O43      1.0000 0.31290  0.35410  0.28407  Biso   1.000  O
  O44      1.0000 0.36480  0.37540  0.32577  Biso   1.000  O
  O45      1.0000 0.37680  0.07390  0.03561  Biso   1.000  O
  O46      1.0000 0.29540  0.04810  0.03617  Biso   1.000  O
  O47      1.0000 0.29720  0.90970  0.16668  Biso   1.000  O
  O48      1.0000 0.24220  0.93760  0.12828  Biso   1.000  O
  N13      1.0000 0.41620  0.23990  0.14340  Biso   1.000  N
  N14      1.0000 0.44290  0.25720  0.17250  Biso   1.000  N
  H34      1.0000 0.47450  0.25780  0.17530  Biso   1.000  H
  N15      1.0000 0.36490  0.26540  0.18310  Biso   1.000  N
  N16      1.0000 0.47520  0.99700  0.16450  Biso   1.000  N
  C82      1.0000 0.36890  0.24900  0.15340  Biso   1.000  C
  C83      1.0000 0.40820  0.27240  0.19460  Biso   1.000  C
  C84      1.0000 0.32840  0.23580  0.13220  Biso   1.000  C
  C85      1.0000 0.33400  0.21450  0.09850  Biso   1.000  C
  H35      1.0000 0.36530  0.21370  0.08840  Biso   1.000  H
  C86      1.0000 0.29180  0.19450  0.08030  Biso   1.000  C
  C87      1.0000 0.24540  0.20030  0.09420  Biso   1.000  C
  H36      1.0000 0.21830  0.18880  0.08190  Biso   1.000  H
  C88      1.0000 0.23700  0.22180  0.12460  Biso   1.000  C
  C89      1.0000 0.27990  0.24070  0.14390  Biso   1.000  C
  H37      1.0000 0.27440  0.25660  0.16460  Biso   1.000  H
  C90      1.0000 0.30200  0.16420  0.04690  Biso   1.000  C
  C91      1.0000 0.18550  0.22280  0.13940  Biso   1.000  C
  C92      1.0000 0.42490  0.28920  0.22810  Biso   1.000  C
  C93      1.0000 0.47190  0.28230  0.24400  Biso   1.000  C
  H38      1.0000 0.49690  0.26460  0.23310  Biso   1.000  H
  C94      1.0000 0.47960  0.30170  0.27530  Biso   1.000  C
  C95      1.0000 0.44050  0.32740  0.29280  Biso   1.000  C
  H39      1.0000 0.44600  0.34080  0.31440  Biso   1.000  H
  C96      1.0000 0.39490  0.33220  0.27750  Biso   1.000  C
  C97      1.0000 0.38910  0.31200  0.24560  Biso   1.000  C
  H40      1.0000 0.35800  0.31430  0.23540  Biso   1.000  H
  C98      1.0000 0.53110  0.29350  0.29490  Biso   1.000  C
  C99      1.0000 0.35400  0.35680  0.29870  Biso   1.000  C
  C100     1.0000 0.46100  0.99620  0.13240  Biso   1.000  C
  C101     1.0000 0.41160  0.99360  0.12000  Biso   1.000  C
  C102     1.0000 0.40070  0.01570  0.09150  Biso   1.000  C
  H41      1.0000 0.42610  0.03170  0.07970  Biso   1.000  H
  C103     1.0000 0.35280  0.01700  0.07720  Biso   1.000  C
  C104     1.0000 0.31660  0.98860  0.09280  Biso   1.000  C
  H42      1.0000 0.28540  0.98690  0.08280  Biso   1.000  H
  C105     1.0000 0.32510  0.96190  0.12370  Biso   1.000  C
  C106     1.0000 0.37630  0.96570  0.13680  Biso   1.000  C
  H43      1.0000 0.38490  0.94900  0.15670  Biso   1.000  H
  C107     1.0000 0.33910  0.04880  0.04670  Biso   1.000  C
  C108     1.0000 0.28320  0.93390  0.14060  Biso   1.000  C
  H44      1.0000 0.45640  0.99440  0.18210  Biso   1.000  H
  Cu9      1.0000 0.74823  0.62243  0.30411  Biso   1.000  Cu
  Cu10     1.0000 0.68512  0.59169  0.35233  Biso   1.000  Cu
  O49      1.0000 0.66830  0.84640  0.46435  Biso   1.000  O
  O50      1.0000 0.64200  0.76710  0.46446  Biso   1.000  O
  O51      1.0000 0.74890  0.68248  0.33311  Biso   1.000  O
  O52      1.0000 0.69970  0.65430  0.37517  Biso   1.000  O
  O53      1.0000 0.76380  0.06080  0.21865  Biso   1.000  O
  O54      1.0000 0.81970  0.03560  0.17854  Biso   1.000  O
  O55      1.0000 0.85410  0.81290  0.21593  Biso   1.000  O
  O56      1.0000 0.87540  0.86480  0.17423  Biso   1.000  O
  O57      1.0000 0.57390  0.87680  0.46439  Biso   1.000  O
  O58      1.0000 0.54810  0.79540  0.46383  Biso   1.000  O
  O59      1.0000 0.40970  0.79720  0.33332  Biso   1.000  O
  O60      1.0000 0.43760  0.74220  0.37172  Biso   1.000  O
  N17      1.0000 0.73990  0.91620  0.35660  Biso   1.000  N
  N18      1.0000 0.75720  0.94290  0.32750  Biso   1.000  N
  H45      1.0000 0.75780  0.97450  0.32470  Biso   1.000  H
  N19      1.0000 0.76540  0.86490  0.31690  Biso   1.000  N
  N20      1.0000 0.49700  0.97520  0.33550  Biso   1.000  N
  C109     1.0000 0.74900  0.86890  0.34660  Biso   1.000  C
  C110     1.0000 0.77240  0.90820  0.30540  Biso   1.000  C
  C111     1.0000 0.73580  0.82840  0.36780  Biso   1.000  C
  C112     1.0000 0.71450  0.83400  0.40150  Biso   1.000  C
  H46      1.0000 0.71370  0.86530  0.41160  Biso   1.000  H
  C113     1.0000 0.69450  0.79180  0.41970  Biso   1.000  C
  C114     1.0000 0.70030  0.74540  0.40580  Biso   1.000  C
  H47      1.0000 0.68880  0.71830  0.41810  Biso   1.000  H
  C115     1.0000 0.72180  0.73700  0.37540  Biso   1.000  C
  C116     1.0000 0.74070  0.77990  0.35610  Biso   1.000  C
  H48      1.0000 0.75660  0.77440  0.33540  Biso   1.000  H
  C117     1.0000 0.66420  0.80200  0.45310  Biso   1.000  C
  C118     1.0000 0.72280  0.68550  0.36060  Biso   1.000  C
  C119     1.0000 0.78920  0.92490  0.27190  Biso   1.000  C
  C120     1.0000 0.78230  0.97190  0.25600  Biso   1.000  C
  H49      1.0000 0.76460  0.99690  0.26690  Biso   1.000  H
  C121     1.0000 0.80170  0.97960  0.22470  Biso   1.000  C
  C122     1.0000 0.82740  0.94050  0.20720  Biso   1.000  C
  H50      1.0000 0.84080  0.94600  0.18560  Biso   1.000  H
  C123     1.0000 0.83220  0.89490  0.22250  Biso   1.000  C
  C124     1.0000 0.81200  0.88910  0.25440  Biso   1.000  C
  H51      1.0000 0.81430  0.85800  0.26460  Biso   1.000  H
  C125     1.0000 0.79350  0.03110  0.20510  Biso   1.000  C
  C126     1.0000 0.85680  0.85400  0.20130  Biso   1.000  C
  C127     1.0000 0.49620  0.96100  0.36760  Biso   1.000  C
  C128     1.0000 0.49360  0.91160  0.38000  Biso   1.000  C
  C129     1.0000 0.51570  0.90070  0.40850  Biso   1.000  C
  H52      1.0000 0.53170  0.92610  0.42030  Biso   1.000  H
  C130     1.0000 0.51700  0.85280  0.42280  Biso   1.000  C
  C131     1.0000 0.48860  0.81660  0.40720  Biso   1.000  C
  H53      1.0000 0.48690  0.78540  0.41720  Biso   1.000  H
  C132     1.0000 0.46190  0.82510  0.37630  Biso   1.000  C
  C133     1.0000 0.46570  0.87630  0.36320  Biso   1.000  C
  H54      1.0000 0.44900  0.88490  0.34330  Biso   1.000  H
  C134     1.0000 0.54880  0.83910  0.45330  Biso   1.000  C
  C135     1.0000 0.43390  0.78320  0.35940  Biso   1.000  C
  H55      1.0000 0.49440  0.95640  0.31790  Biso   1.000  H
  Cu11     1.0000 0.25177  0.37757  0.30411  Biso   1.000  Cu
  Cu12     1.0000 0.31488  0.40831  0.35233  Biso   1.000  Cu
  O61      1.0000 0.33170  0.15360  0.46435  Biso   1.000  O
  O62      1.0000 0.35800  0.23290  0.46446  Biso   1.000  O
  O63      1.0000 0.25110  0.31752  0.33311  Biso   1.000  O
  O64      1.0000 0.30030  0.34570  0.37517  Biso   1.000  O
  O65      1.0000 0.23620  0.93920  0.21865  Biso   1.000  O
  O66      1.0000 0.18030  0.96440  0.17854  Biso   1.000  O
  O67      1.0000 0.14590  0.18710  0.21593  Biso   1.000  O
  O68      1.0000 0.12460  0.13520  0.17423  Biso   1.000  O
  O69      1.0000 0.42610  0.12320  0.46439  Biso   1.000  O
  O70      1.0000 0.45190  0.20460  0.46383  Biso   1.000  O
  O71      1.0000 0.59030  0.20280  0.33332  Biso   1.000  O
  O72      1.0000 0.56240  0.25780  0.37172  Biso   1.000  O
  N21      1.0000 0.26010  0.08380  0.35660  Biso   1.000  N
  N22      1.0000 0.24280  0.05710  0.32750  Biso   1.000  N
  H56      1.0000 0.24220  0.02550  0.32470  Biso   1.000  H
  N23      1.0000 0.23460  0.13510  0.31690  Biso   1.000  N
  N24      1.0000 0.50300  0.02480  0.33550  Biso   1.000  N
  C136     1.0000 0.25100  0.13110  0.34660  Biso   1.000  C
  C137     1.0000 0.22760  0.09180  0.30540  Biso   1.000  C
  C138     1.0000 0.26420  0.17160  0.36780  Biso   1.000  C
  C139     1.0000 0.28550  0.16600  0.40150  Biso   1.000  C
  H57      1.0000 0.28630  0.13470  0.41160  Biso   1.000  H
  C140     1.0000 0.30550  0.20820  0.41970  Biso   1.000  C
  C141     1.0000 0.29970  0.25460  0.40580  Biso   1.000  C
  H58      1.0000 0.31120  0.28170  0.41810  Biso   1.000  H
  C142     1.0000 0.27820  0.26300  0.37540  Biso   1.000  C
  C143     1.0000 0.25930  0.22010  0.35610  Biso   1.000  C
  H59      1.0000 0.24340  0.22560  0.33540  Biso   1.000  H
  C144     1.0000 0.33580  0.19800  0.45310  Biso   1.000  C
  C145     1.0000 0.27720  0.31450  0.36060  Biso   1.000  C
  C146     1.0000 0.21080  0.07510  0.27190  Biso   1.000  C
  C147     1.0000 0.21770  0.02810  0.25600  Biso   1.000  C
  H60      1.0000 0.23540  0.00310  0.26690  Biso   1.000  H
  C148     1.0000 0.19830  0.02040  0.22470  Biso   1.000  C
  C149     1.0000 0.17260  0.05950  0.20720  Biso   1.000  C
  H61      1.0000 0.15920  0.05400  0.18560  Biso   1.000  H
  C150     1.0000 0.16780  0.10510  0.22250  Biso   1.000  C
  C151     1.0000 0.18800  0.11090  0.25440  Biso   1.000  C
  H62      1.0000 0.18570  0.14200  0.26460  Biso   1.000  H
  C152     1.0000 0.20650  0.96890  0.20510  Biso   1.000  C
  C153     1.0000 0.14320  0.14600  0.20130  Biso   1.000  C
  C154     1.0000 0.50380  0.03900  0.36760  Biso   1.000  C
  C155     1.0000 0.50640  0.08840  0.38000  Biso   1.000  C
  C156     1.0000 0.48430  0.09930  0.40850  Biso   1.000  C
  H63      1.0000 0.46830  0.07390  0.42030  Biso   1.000  H
  C157     1.0000 0.48300  0.14720  0.42280  Biso   1.000  C
  C158     1.0000 0.51140  0.18340  0.40720  Biso   1.000  C
  H64      1.0000 0.51310  0.21460  0.41720  Biso   1.000  H
  C159     1.0000 0.53810  0.17490  0.37630  Biso   1.000  C
  C160     1.0000 0.53430  0.12370  0.36320  Biso   1.000  C
  H65      1.0000 0.55100  0.11510  0.34330  Biso   1.000  H
  C161     1.0000 0.45120  0.16090  0.45330  Biso   1.000  C
  C162     1.0000 0.56610  0.21680  0.35940  Biso   1.000  C
  H66      1.0000 0.50560  0.04360  0.31790  Biso   1.000  H
  Cu13     1.0000 0.62243  0.25177  0.30411  Biso   1.000  Cu
  Cu14     1.0000 0.59169  0.31488  0.35233  Biso   1.000  Cu
  O73      1.0000 0.84640  0.33170  0.46435  Biso   1.000  O
  O74      1.0000 0.76710  0.35800  0.46446  Biso   1.000  O
  O75      1.0000 0.68248  0.25110  0.33311  Biso   1.000  O
  O76      1.0000 0.65430  0.30030  0.37517  Biso   1.000  O
  O77      1.0000 0.06080  0.23620  0.21865  Biso   1.000  O
  O78      1.0000 0.03560  0.18030  0.17854  Biso   1.000  O
  O79      1.0000 0.81290  0.14590  0.21593  Biso   1.000  O
  O80      1.0000 0.86480  0.12460  0.17423  Biso   1.000  O
  O81      1.0000 0.87680  0.42610  0.46439  Biso   1.000  O
  O82      1.0000 0.79540  0.45190  0.46383  Biso   1.000  O
  O83      1.0000 0.79720  0.59030  0.33332  Biso   1.000  O
  O84      1.0000 0.74220  0.56240  0.37172  Biso   1.000  O
  N25      1.0000 0.91620  0.26010  0.35660  Biso   1.000  N
  N26      1.0000 0.94290  0.24280  0.32750  Biso   1.000  N
  H67      1.0000 0.97450  0.24220  0.32470  Biso   1.000  H
  N27      1.0000 0.86490  0.23460  0.31690  Biso   1.000  N
  N28      1.0000 0.97520  0.50300  0.33550  Biso   1.000  N
  C163     1.0000 0.86890  0.25100  0.34660  Biso   1.000  C
  C164     1.0000 0.90820  0.22760  0.30540  Biso   1.000  C
  C165     1.0000 0.82840  0.26420  0.36780  Biso   1.000  C
  C166     1.0000 0.83400  0.28550  0.40150  Biso   1.000  C
  H68      1.0000 0.86530  0.28630  0.41160  Biso   1.000  H
  C167     1.0000 0.79180  0.30550  0.41970  Biso   1.000  C
  C168     1.0000 0.74540  0.29970  0.40580  Biso   1.000  C
  H69      1.0000 0.71830  0.31120  0.41810  Biso   1.000  H
  C169     1.0000 0.73700  0.27820  0.37540  Biso   1.000  C
  C170     1.0000 0.77990  0.25930  0.35610  Biso   1.000  C
  H70      1.0000 0.77440  0.24340  0.33540  Biso   1.000  H
  C171     1.0000 0.80200  0.33580  0.45310  Biso   1.000  C
  C172     1.0000 0.68550  0.27720  0.36060  Biso   1.000  C
  C173     1.0000 0.92490  0.21080  0.27190  Biso   1.000  C
  C174     1.0000 0.97190  0.21770  0.25600  Biso   1.000  C
  H71      1.0000 0.99690  0.23540  0.26690  Biso   1.000  H
  C175     1.0000 0.97960  0.19830  0.22470  Biso   1.000  C
  C176     1.0000 0.94050  0.17260  0.20720  Biso   1.000  C
  H72      1.0000 0.94600  0.15920  0.18560  Biso   1.000  H
  C177     1.0000 0.89490  0.16780  0.22250  Biso   1.000  C
  C178     1.0000 0.88910  0.18800  0.25440  Biso   1.000  C
  H73      1.0000 0.85800  0.18570  0.26460  Biso   1.000  H
  C179     1.0000 0.03110  0.20650  0.20510  Biso   1.000  C
  C180     1.0000 0.85400  0.14320  0.20130  Biso   1.000  C
  C181     1.0000 0.96100  0.50380  0.36760  Biso   1.000  C
  C182     1.0000 0.91160  0.50640  0.38000  Biso   1.000  C
  C183     1.0000 0.90070  0.48430  0.40850  Biso   1.000  C
  H74      1.0000 0.92610  0.46830  0.42030  Biso   1.000  H
  C184     1.0000 0.85280  0.48300  0.42280  Biso   1.000  C
  C185     1.0000 0.81660  0.51140  0.40720  Biso   1.000  C
  H75      1.0000 0.78540  0.51310  0.41720  Biso   1.000  H
  C186     1.0000 0.82510  0.53810  0.37630  Biso   1.000  C
  C187     1.0000 0.87630  0.53430  0.36320  Biso   1.000  C
  H76      1.0000 0.88490  0.55100  0.34330  Biso   1.000  H
  C188     1.0000 0.83910  0.45120  0.45330  Biso   1.000  C
  C189     1.0000 0.78320  0.56610  0.35940  Biso   1.000  C
  H77      1.0000 0.95640  0.50560  0.31790  Biso   1.000  H
  Cu15     1.0000 0.37757  0.74823  0.30411  Biso   1.000  Cu
  Cu16     1.0000 0.40831  0.68512  0.35233  Biso   1.000  Cu
  O85      1.0000 0.15360  0.66830  0.46435  Biso   1.000  O
  O86      1.0000 0.23290  0.64200  0.46446  Biso   1.000  O
  O87      1.0000 0.31752  0.74890  0.33311  Biso   1.000  O
  O88      1.0000 0.34570  0.69970  0.37517  Biso   1.000  O
  O89      1.0000 0.93920  0.76380  0.21865  Biso   1.000  O
  O90      1.0000 0.96440  0.81970  0.17854  Biso   1.000  O
  O91      1.0000 0.18710  0.85410  0.21593  Biso   1.000  O
  O92      1.0000 0.13520  0.87540  0.17423  Biso   1.000  O
  O93      1.0000 0.12320  0.57390  0.46439  Biso   1.000  O
  O94      1.0000 0.20460  0.54810  0.46383  Biso   1.000  O
  O95      1.0000 0.20280  0.40970  0.33332  Biso   1.000  O
  O96      1.0000 0.25780  0.43760  0.37172  Biso   1.000  O
  N29      1.0000 0.08380  0.73990  0.35660  Biso   1.000  N
  N30      1.0000 0.05710  0.75720  0.32750  Biso   1.000  N
  H78      1.0000 0.02550  0.75780  0.32470  Biso   1.000  H
  N31      1.0000 0.13510  0.76540  0.31690  Biso   1.000  N
  N32      1.0000 0.02480  0.49700  0.33550  Biso   1.000  N
  C190     1.0000 0.13110  0.74900  0.34660  Biso   1.000  C
  C191     1.0000 0.09180  0.77240  0.30540  Biso   1.000  C
  C192     1.0000 0.17160  0.73580  0.36780  Biso   1.000  C
  C193     1.0000 0.16600  0.71450  0.40150  Biso   1.000  C
  H79      1.0000 0.13470  0.71370  0.41160  Biso   1.000  H
  C194     1.0000 0.20820  0.69450  0.41970  Biso   1.000  C
  C195     1.0000 0.25460  0.70030  0.40580  Biso   1.000  C
  H80      1.0000 0.28170  0.68880  0.41810  Biso   1.000  H
  C196     1.0000 0.26300  0.72180  0.37540  Biso   1.000  C
  C197     1.0000 0.22010  0.74070  0.35610  Biso   1.000  C
  H81      1.0000 0.22560  0.75660  0.33540  Biso   1.000  H
  C198     1.0000 0.19800  0.66420  0.45310  Biso   1.000  C
  C199     1.0000 0.31450  0.72280  0.36060  Biso   1.000  C
  C200     1.0000 0.07510  0.78920  0.27190  Biso   1.000  C
  C201     1.0000 0.02810  0.78230  0.25600  Biso   1.000  C
  H82      1.0000 0.00310  0.76460  0.26690  Biso   1.000  H
  C202     1.0000 0.02040  0.80170  0.22470  Biso   1.000  C
  C203     1.0000 0.05950  0.82740  0.20720  Biso   1.000  C
  H83      1.0000 0.05400  0.84080  0.18560  Biso   1.000  H
  C204     1.0000 0.10510  0.83220  0.22250  Biso   1.000  C
  C205     1.0000 0.11090  0.81200  0.25440  Biso   1.000  C
  H84      1.0000 0.14200  0.81430  0.26460  Biso   1.000  H
  C206     1.0000 0.96890  0.79350  0.20510  Biso   1.000  C
  C207     1.0000 0.14600  0.85680  0.20130  Biso   1.000  C
  C208     1.0000 0.03900  0.49620  0.36760  Biso   1.000  C
  C209     1.0000 0.08840  0.49360  0.38000  Biso   1.000  C
  C210     1.0000 0.09930  0.51570  0.40850  Biso   1.000  C
  H85      1.0000 0.07390  0.53170  0.42030  Biso   1.000  H
  C211     1.0000 0.14720  0.51700  0.42280  Biso   1.000  C
  C212     1.0000 0.18340  0.48860  0.40720  Biso   1.000  C
  H86      1.0000 0.21460  0.48690  0.41720  Biso   1.000  H
  C213     1.0000 0.17490  0.46190  0.37630  Biso   1.000  C
  C214     1.0000 0.12370  0.46570  0.36320  Biso   1.000  C
  H87      1.0000 0.11510  0.44900  0.34330  Biso   1.000  H
  C215     1.0000 0.16090  0.54880  0.45330  Biso   1.000  C
  C216     1.0000 0.21680  0.43390  0.35940  Biso   1.000  C
  H88      1.0000 0.04360  0.49440  0.31790  Biso   1.000  H
  Cu17     1.0000 0.24823  0.87757  0.80411  Biso   1.000  Cu
  Cu18     1.0000 0.18512  0.90831  0.85233  Biso   1.000  Cu
  O97      1.0000 0.16830  0.65360  0.96435  Biso   1.000  O
  O98      1.0000 0.14200  0.73290  0.96446  Biso   1.000  O
  O99      1.0000 0.24890  0.81752  0.83311  Biso   1.000  O
  O100     1.0000 0.19970  0.84570  0.87517  Biso   1.000  O
  O101     1.0000 0.26380  0.43920  0.71865  Biso   1.000  O
  O102     1.0000 0.31970  0.46440  0.67854  Biso   1.000  O
  O103     1.0000 0.35410  0.68710  0.71593  Biso   1.000  O
  O104     1.0000 0.37540  0.63520  0.67423  Biso   1.000  O
  O105     1.0000 0.07390  0.62320  0.96439  Biso   1.000  O
  O106     1.0000 0.04810  0.70460  0.96383  Biso   1.000  O
  O107     1.0000 0.90970  0.70280  0.83332  Biso   1.000  O
  O108     1.0000 0.93760  0.75780  0.87172  Biso   1.000  O
  N33      1.0000 0.23990  0.58380  0.85660  Biso   1.000  N
  N34      1.0000 0.25720  0.55710  0.82750  Biso   1.000  N
  H89      1.0000 0.25780  0.52550  0.82470  Biso   1.000  H
  N35      1.0000 0.26540  0.63510  0.81690  Biso   1.000  N
  N36      1.0000 0.99700  0.52480  0.83550  Biso   1.000  N
  C217     1.0000 0.24900  0.63110  0.84660  Biso   1.000  C
  C218     1.0000 0.27240  0.59180  0.80540  Biso   1.000  C
  C219     1.0000 0.23580  0.67160  0.86780  Biso   1.000  C
  C220     1.0000 0.21450  0.66600  0.90150  Biso   1.000  C
  H90      1.0000 0.21370  0.63470  0.91160  Biso   1.000  H
  C221     1.0000 0.19450  0.70820  0.91970  Biso   1.000  C
  C222     1.0000 0.20030  0.75460  0.90580  Biso   1.000  C
  H91      1.0000 0.18880  0.78170  0.91810  Biso   1.000  H
  C223     1.0000 0.22180  0.76300  0.87540  Biso   1.000  C
  C224     1.0000 0.24070  0.72010  0.85610  Biso   1.000  C
  H92      1.0000 0.25660  0.72560  0.83540  Biso   1.000  H
  C225     1.0000 0.16420  0.69800  0.95310  Biso   1.000  C
  C226     1.0000 0.22280  0.81450  0.86060  Biso   1.000  C
  C227     1.0000 0.28920  0.57510  0.77190  Biso   1.000  C
  C228     1.0000 0.28230  0.52810  0.75600  Biso   1.000  C
  H93      1.0000 0.26460  0.50310  0.76690  Biso   1.000  H
  C229     1.0000 0.30170  0.52040  0.72470  Biso   1.000  C
  C230     1.0000 0.32740  0.55950  0.70720  Biso   1.000  C
  H94      1.0000 0.34080  0.55400  0.68560  Biso   1.000  H
  C231     1.0000 0.33220  0.60510  0.72250  Biso   1.000  C
  C232     1.0000 0.31200  0.61090  0.75440  Biso   1.000  C
  H95      1.0000 0.31430  0.64200  0.76460  Biso   1.000  H
  C233     1.0000 0.29350  0.46890  0.70510  Biso   1.000  C
  C234     1.0000 0.35680  0.64600  0.70130  Biso   1.000  C
  C235     1.0000 0.99620  0.53900  0.86760  Biso   1.000  C
  C236     1.0000 0.99360  0.58840  0.88000  Biso   1.000  C
  C237     1.0000 0.01570  0.59930  0.90850  Biso   1.000  C
  H96      1.0000 0.03170  0.57390  0.92030  Biso   1.000  H
  C238     1.0000 0.01700  0.64720  0.92280  Biso   1.000  C
  C239     1.0000 0.98860  0.68340  0.90720  Biso   1.000  C
  H97      1.0000 0.98690  0.71460  0.91720  Biso   1.000  H
  C240     1.0000 0.96190  0.67490  0.87630  Biso   1.000  C
  C241     1.0000 0.96570  0.62370  0.86320  Biso   1.000  C
  H98      1.0000 0.94900  0.61510  0.84330  Biso   1.000  H
  C242     1.0000 0.04880  0.66090  0.95330  Biso   1.000  C
  C243     1.0000 0.93390  0.71680  0.85940  Biso   1.000  C
  H99      1.0000 0.99440  0.54360  0.81790  Biso   1.000  H
  Cu19     1.0000 0.75177  0.12243  0.80411  Biso   1.000  Cu
  Cu20     1.0000 0.81488  0.09169  0.85233  Biso   1.000  Cu
  O109     1.0000 0.83170  0.34640  0.96435  Biso   1.000  O
  O110     1.0000 0.85800  0.26710  0.96446  Biso   1.000  O
  O111     1.0000 0.75110  0.18248  0.83311  Biso   1.000  O
  O112     1.0000 0.80030  0.15430  0.87517  Biso   1.000  O
  O113     1.0000 0.73620  0.56080  0.71865  Biso   1.000  O
  O114     1.0000 0.68030  0.53560  0.67854  Biso   1.000  O
  O115     1.0000 0.64590  0.31290  0.71593  Biso   1.000  O
  O116     1.0000 0.62460  0.36480  0.67423  Biso   1.000  O
  O117     1.0000 0.92610  0.37680  0.96439  Biso   1.000  O
  O118     1.0000 0.95190  0.29540  0.96383  Biso   1.000  O
  O119     1.0000 0.09030  0.29720  0.83332  Biso   1.000  O
  O120     1.0000 0.06240  0.24220  0.87172  Biso   1.000  O
  N37      1.0000 0.76010  0.41620  0.85660  Biso   1.000  N
  N38      1.0000 0.74280  0.44290  0.82750  Biso   1.000  N
  H100     1.0000 0.74220  0.47450  0.82470  Biso   1.000  H
  N39      1.0000 0.73460  0.36490  0.81690  Biso   1.000  N
  N40      1.0000 0.00300  0.47520  0.83550  Biso   1.000  N
  C244     1.0000 0.75100  0.36890  0.84660  Biso   1.000  C
  C245     1.0000 0.72760  0.40820  0.80540  Biso   1.000  C
  C246     1.0000 0.76420  0.32840  0.86780  Biso   1.000  C
  C247     1.0000 0.78550  0.33400  0.90150  Biso   1.000  C
  H101     1.0000 0.78630  0.36530  0.91160  Biso   1.000  H
  C248     1.0000 0.80550  0.29180  0.91970  Biso   1.000  C
  C249     1.0000 0.79970  0.24540  0.90580  Biso   1.000  C
  H102     1.0000 0.81120  0.21830  0.91810  Biso   1.000  H
  C250     1.0000 0.77820  0.23700  0.87540  Biso   1.000  C
  C251     1.0000 0.75930  0.27990  0.85610  Biso   1.000  C
  H103     1.0000 0.74340  0.27440  0.83540  Biso   1.000  H
  C252     1.0000 0.83580  0.30200  0.95310  Biso   1.000  C
  C253     1.0000 0.77720  0.18550  0.86060  Biso   1.000  C
  C254     1.0000 0.71080  0.42490  0.77190  Biso   1.000  C
  C255     1.0000 0.71770  0.47190  0.75600  Biso   1.000  C
  H104     1.0000 0.73540  0.49690  0.76690  Biso   1.000  H
  C256     1.0000 0.69830  0.47960  0.72470  Biso   1.000  C
  C257     1.0000 0.67260  0.44050  0.70720  Biso   1.000  C
  H105     1.0000 0.65920  0.44600  0.68560  Biso   1.000  H
  C258     1.0000 0.66780  0.39490  0.72250  Biso   1.000  C
  C259     1.0000 0.68800  0.38910  0.75440  Biso   1.000  C
  H106     1.0000 0.68570  0.35800  0.76460  Biso   1.000  H
  C260     1.0000 0.70650  0.53110  0.70510  Biso   1.000  C
  C261     1.0000 0.64320  0.35400  0.70130  Biso   1.000  C
  C262     1.0000 0.00380  0.46100  0.86760  Biso   1.000  C
  C263     1.0000 0.00640  0.41160  0.88000  Biso   1.000  C
  C264     1.0000 0.98430  0.40070  0.90850  Biso   1.000  C
  H107     1.0000 0.96830  0.42610  0.92030  Biso   1.000  H
  C265     1.0000 0.98300  0.35280  0.92280  Biso   1.000  C
  C266     1.0000 0.01140  0.31660  0.90720  Biso   1.000  C
  H108     1.0000 0.01310  0.28540  0.91720  Biso   1.000  H
  C267     1.0000 0.03810  0.32510  0.87630  Biso   1.000  C
  C268     1.0000 0.03430  0.37630  0.86320  Biso   1.000  C
  H109     1.0000 0.05100  0.38490  0.84330  Biso   1.000  H
  C269     1.0000 0.95120  0.33910  0.95330  Biso   1.000  C
  C270     1.0000 0.06610  0.28320  0.85940  Biso   1.000  C
  H110     1.0000 0.00560  0.45640  0.81790  Biso   1.000  H
  Cu21     1.0000 0.12243  0.24823  0.80411  Biso   1.000  Cu
  Cu22     1.0000 0.09169  0.18512  0.85233  Biso   1.000  Cu
  O121     1.0000 0.34640  0.16830  0.96435  Biso   1.000  O
  O122     1.0000 0.26710  0.14200  0.96446  Biso   1.000  O
  O123     1.0000 0.18248  0.24890  0.83311  Biso   1.000  O
  O124     1.0000 0.15430  0.19970  0.87517  Biso   1.000  O
  O125     1.0000 0.56080  0.26380  0.71865  Biso   1.000  O
  O126     1.0000 0.53560  0.31970  0.67854  Biso   1.000  O
  O127     1.0000 0.31290  0.35410  0.71593  Biso   1.000  O
  O128     1.0000 0.36480  0.37540  0.67423  Biso   1.000  O
  O129     1.0000 0.37680  0.07390  0.96439  Biso   1.000  O
  O130     1.0000 0.29540  0.04810  0.96383  Biso   1.000  O
  O131     1.0000 0.29720  0.90970  0.83332  Biso   1.000  O
  O132     1.0000 0.24220  0.93760  0.87172  Biso   1.000  O
  N41      1.0000 0.41620  0.23990  0.85660  Biso   1.000  N
  N42      1.0000 0.44290  0.25720  0.82750  Biso   1.000  N
  H111     1.0000 0.47450  0.25780  0.82470  Biso   1.000  H
  N43      1.0000 0.36490  0.26540  0.81690  Biso   1.000  N
  N44      1.0000 0.47520  0.99700  0.83550  Biso   1.000  N
  C271     1.0000 0.36890  0.24900  0.84660  Biso   1.000  C
  C272     1.0000 0.40820  0.27240  0.80540  Biso   1.000  C
  C273     1.0000 0.32840  0.23580  0.86780  Biso   1.000  C
  C274     1.0000 0.33400  0.21450  0.90150  Biso   1.000  C
  H112     1.0000 0.36530  0.21370  0.91160  Biso   1.000  H
  C275     1.0000 0.29180  0.19450  0.91970  Biso   1.000  C
  C276     1.0000 0.24540  0.20030  0.90580  Biso   1.000  C
  H113     1.0000 0.21830  0.18880  0.91810  Biso   1.000  H
  C277     1.0000 0.23700  0.22180  0.87540  Biso   1.000  C
  C278     1.0000 0.27990  0.24070  0.85610  Biso   1.000  C
  H114     1.0000 0.27440  0.25660  0.83540  Biso   1.000  H
  C279     1.0000 0.30200  0.16420  0.95310  Biso   1.000  C
  C280     1.0000 0.18550  0.22280  0.86060  Biso   1.000  C
  C281     1.0000 0.42490  0.28920  0.77190  Biso   1.000  C
  C282     1.0000 0.47190  0.28230  0.75600  Biso   1.000  C
  H115     1.0000 0.49690  0.26460  0.76690  Biso   1.000  H
  C283     1.0000 0.47960  0.30170  0.72470  Biso   1.000  C
  C284     1.0000 0.44050  0.32740  0.70720  Biso   1.000  C
  H116     1.0000 0.44600  0.34080  0.68560  Biso   1.000  H
  C285     1.0000 0.39490  0.33220  0.72250  Biso   1.000  C
  C286     1.0000 0.38910  0.31200  0.75440  Biso   1.000  C
  H117     1.0000 0.35800  0.31430  0.76460  Biso   1.000  H
  C287     1.0000 0.53110  0.29350  0.70510  Biso   1.000  C
  C288     1.0000 0.35400  0.35680  0.70130  Biso   1.000  C
  C289     1.0000 0.46100  0.99620  0.86760  Biso   1.000  C
  C290     1.0000 0.41160  0.99360  0.88000  Biso   1.000  C
  C291     1.0000 0.40070  0.01570  0.90850  Biso   1.000  C
  H118     1.0000 0.42610  0.03170  0.92030  Biso   1.000  H
  C292     1.0000 0.35280  0.01700  0.92280  Biso   1.000  C
  C293     1.0000 0.31660  0.98860  0.90720  Biso   1.000  C
  H119     1.0000 0.28540  0.98690  0.91720  Biso   1.000  H
  C294     1.0000 0.32510  0.96190  0.87630  Biso   1.000  C
  C295     1.0000 0.37630  0.96570  0.86320  Biso   1.000  C
  H120     1.0000 0.38490  0.94900  0.84330  Biso   1.000  H
  C296     1.0000 0.33910  0.04880  0.95330  Biso   1.000  C
  C297     1.0000 0.28320  0.93390  0.85940  Biso   1.000  C
  H121     1.0000 0.45640  0.99440  0.81790  Biso   1.000  H
  Cu23     1.0000 0.87757  0.75177  0.80411  Biso   1.000  Cu
  Cu24     1.0000 0.90831  0.81488  0.85233  Biso   1.000  Cu
  O133     1.0000 0.65360  0.83170  0.96435  Biso   1.000  O
  O134     1.0000 0.73290  0.85800  0.96446  Biso   1.000  O
  O135     1.0000 0.81752  0.75110  0.83311  Biso   1.000  O
  O136     1.0000 0.84570  0.80030  0.87517  Biso   1.000  O
  O137     1.0000 0.43920  0.73620  0.71865  Biso   1.000  O
  O138     1.0000 0.46440  0.68030  0.67854  Biso   1.000  O
  O139     1.0000 0.68710  0.64590  0.71593  Biso   1.000  O
  O140     1.0000 0.63520  0.62460  0.67423  Biso   1.000  O
  O141     1.0000 0.62320  0.92610  0.96439  Biso   1.000  O
  O142     1.0000 0.70460  0.95190  0.96383  Biso   1.000  O
  O143     1.0000 0.70280  0.09030  0.83332  Biso   1.000  O
  O144     1.0000 0.75780  0.06240  0.87172  Biso   1.000  O
  N45      1.0000 0.58380  0.76010  0.85660  Biso   1.000  N
  N46      1.0000 0.55710  0.74280  0.82750  Biso   1.000  N
  H122     1.0000 0.52550  0.74220  0.82470  Biso   1.000  H
  N47      1.0000 0.63510  0.73460  0.81690  Biso   1.000  N
  N48      1.0000 0.52480  0.00300  0.83550  Biso   1.000  N
  C298     1.0000 0.63110  0.75100  0.84660  Biso   1.000  C
  C299     1.0000 0.59180  0.72760  0.80540  Biso   1.000  C
  C300     1.0000 0.67160  0.76420  0.86780  Biso   1.000  C
  C301     1.0000 0.66600  0.78550  0.90150  Biso   1.000  C
  H123     1.0000 0.63470  0.78630  0.91160  Biso   1.000  H
  C302     1.0000 0.70820  0.80550  0.91970  Biso   1.000  C
  C303     1.0000 0.75460  0.79970  0.90580  Biso   1.000  C
  H124     1.0000 0.78170  0.81120  0.91810  Biso   1.000  H
  C304     1.0000 0.76300  0.77820  0.87540  Biso   1.000  C
  C305     1.0000 0.72010  0.75930  0.85610  Biso   1.000  C
  H125     1.0000 0.72560  0.74340  0.83540  Biso   1.000  H
  C306     1.0000 0.69800  0.83580  0.95310  Biso   1.000  C
  C307     1.0000 0.81450  0.77720  0.86060  Biso   1.000  C
  C308     1.0000 0.57510  0.71080  0.77190  Biso   1.000  C
  C309     1.0000 0.52810  0.71770  0.75600  Biso   1.000  C
  H126     1.0000 0.50310  0.73540  0.76690  Biso   1.000  H
  C310     1.0000 0.52040  0.69830  0.72470  Biso   1.000  C
  C311     1.0000 0.55950  0.67260  0.70720  Biso   1.000  C
  H127     1.0000 0.55400  0.65920  0.68560  Biso   1.000  H
  C312     1.0000 0.60510  0.66780  0.72250  Biso   1.000  C
  C313     1.0000 0.61090  0.68800  0.75440  Biso   1.000  C
  H128     1.0000 0.64200  0.68570  0.76460  Biso   1.000  H
  C314     1.0000 0.46890  0.70650  0.70510  Biso   1.000  C
  C315     1.0000 0.64600  0.64320  0.70130  Biso   1.000  C
  C316     1.0000 0.53900  0.00380  0.86760  Biso   1.000  C
  C317     1.0000 0.58840  0.00640  0.88000  Biso   1.000  C
  C318     1.0000 0.59930  0.98430  0.90850  Biso   1.000  C
  H129     1.0000 0.57390  0.96830  0.92030  Biso   1.000  H
  C319     1.0000 0.64720  0.98300  0.92280  Biso   1.000  C
  C320     1.0000 0.68340  0.01140  0.90720  Biso   1.000  C
  H130     1.0000 0.71460  0.01310  0.91720  Biso   1.000  H
  C321     1.0000 0.67490  0.03810  0.87630  Biso   1.000  C
  C322     1.0000 0.62370  0.03430  0.86320  Biso   1.000  C
  H131     1.0000 0.61510  0.05100  0.84330  Biso   1.000  H
  C323     1.0000 0.66090  0.95120  0.95330  Biso   1.000  C
  C324     1.0000 0.71680  0.06610  0.85940  Biso   1.000  C
  H132     1.0000 0.54360  0.00560  0.81790  Biso   1.000  H
  Cu25     1.0000 0.25177  0.37757  0.69589  Biso   1.000  Cu
  Cu26     1.0000 0.31488  0.40831  0.64767  Biso   1.000  Cu
  O145     1.0000 0.33170  0.15360  0.53565  Biso   1.000  O
  O146     1.0000 0.35800  0.23290  0.53554  Biso   1.000  O
  O147     1.0000 0.25110  0.31752  0.66689  Biso   1.000  O
  O148     1.0000 0.30030  0.34570  0.62483  Biso   1.000  O
  O149     1.0000 0.23620  0.93920  0.78135  Biso   1.000  O
  O150     1.0000 0.18030  0.96440  0.82146  Biso   1.000  O
  O151     1.0000 0.14590  0.18710  0.78407  Biso   1.000  O
  O152     1.0000 0.12460  0.13520  0.82577  Biso   1.000  O
  O153     1.0000 0.42610  0.12320  0.53561  Biso   1.000  O
  O154     1.0000 0.45190  0.20460  0.53617  Biso   1.000  O
  O155     1.0000 0.59030  0.20280  0.66668  Biso   1.000  O
  O156     1.0000 0.56240  0.25780  0.62828  Biso   1.000  O
  N49      1.0000 0.26010  0.08380  0.64340  Biso   1.000  N
  N50      1.0000 0.24280  0.05710  0.67250  Biso   1.000  N
  H133     1.0000 0.24220  0.02550  0.67530  Biso   1.000  H
  N51      1.0000 0.23460  0.13510  0.68310  Biso   1.000  N
  N52      1.0000 0.50300  0.02480  0.66450  Biso   1.000  N
  C325     1.0000 0.25100  0.13110  0.65340  Biso   1.000  C
  C326     1.0000 0.22760  0.09180  0.69460  Biso   1.000  C
  C327     1.0000 0.26420  0.17160  0.63220  Biso   1.000  C
  C328     1.0000 0.28550  0.16600  0.59850  Biso   1.000  C
  H134     1.0000 0.28630  0.13470  0.58840  Biso   1.000  H
  C329     1.0000 0.30550  0.20820  0.58030  Biso   1.000  C
  C330     1.0000 0.29970  0.25460  0.59420  Biso   1.000  C
  H135     1.0000 0.31120  0.28170  0.58190  Biso   1.000  H
  C331     1.0000 0.27820  0.26300  0.62460  Biso   1.000  C
  C332     1.0000 0.25930  0.22010  0.64390  Biso   1.000  C
  H136     1.0000 0.24340  0.22560  0.66460  Biso   1.000  H
  C333     1.0000 0.33580  0.19800  0.54690  Biso   1.000  C
  C334     1.0000 0.27720  0.31450  0.63940  Biso   1.000  C
  C335     1.0000 0.21080  0.07510  0.72810  Biso   1.000  C
  C336     1.0000 0.21770  0.02810  0.74400  Biso   1.000  C
  H137     1.0000 0.23540  0.00310  0.73310  Biso   1.000  H
  C337     1.0000 0.19830  0.02040  0.77530  Biso   1.000  C
  C338     1.0000 0.17260  0.05950  0.79280  Biso   1.000  C
  H138     1.0000 0.15920  0.05400  0.81440  Biso   1.000  H
  C339     1.0000 0.16780  0.10510  0.77750  Biso   1.000  C
  C340     1.0000 0.18800  0.11090  0.74560  Biso   1.000  C
  H139     1.0000 0.18570  0.14200  0.73540  Biso   1.000  H
  C341     1.0000 0.20650  0.96890  0.79490  Biso   1.000  C
  C342     1.0000 0.14320  0.14600  0.79870  Biso   1.000  C
  C343     1.0000 0.50380  0.03900  0.63240  Biso   1.000  C
  C344     1.0000 0.50640  0.08840  0.62000  Biso   1.000  C
  C345     1.0000 0.48430  0.09930  0.59150  Biso   1.000  C
  H140     1.0000 0.46830  0.07390  0.57970  Biso   1.000  H
  C346     1.0000 0.48300  0.14720  0.57720  Biso   1.000  C
  C347     1.0000 0.51140  0.18340  0.59280  Biso   1.000  C
  H141     1.0000 0.51310  0.21460  0.58280  Biso   1.000  H
  C348     1.0000 0.53810  0.17490  0.62370  Biso   1.000  C
  C349     1.0000 0.53430  0.12370  0.63680  Biso   1.000  C
  H142     1.0000 0.55100  0.11510  0.65670  Biso   1.000  H
  C350     1.0000 0.45120  0.16090  0.54670  Biso   1.000  C
  C351     1.0000 0.56610  0.21680  0.64060  Biso   1.000  C
  H143     1.0000 0.50560  0.04360  0.68210  Biso   1.000  H
  Cu27     1.0000 0.74823  0.62243  0.69589  Biso   1.000  Cu
  Cu28     1.0000 0.68512  0.59169  0.64767  Biso   1.000  Cu
  O157     1.0000 0.66830  0.84640  0.53565  Biso   1.000  O
  O158     1.0000 0.64200  0.76710  0.53554  Biso   1.000  O
  O159     1.0000 0.74890  0.68248  0.66689  Biso   1.000  O
  O160     1.0000 0.69970  0.65430  0.62483  Biso   1.000  O
  O161     1.0000 0.76380  0.06080  0.78135  Biso   1.000  O
  O162     1.0000 0.81970  0.03560  0.82146  Biso   1.000  O
  O163     1.0000 0.85410  0.81290  0.78407  Biso   1.000  O
  O164     1.0000 0.87540  0.86480  0.82577  Biso   1.000  O
  O165     1.0000 0.57390  0.87680  0.53561  Biso   1.000  O
  O166     1.0000 0.54810  0.79540  0.53617  Biso   1.000  O
  O167     1.0000 0.40970  0.79720  0.66668  Biso   1.000  O
  O168     1.0000 0.43760  0.74220  0.62828  Biso   1.000  O
  N53      1.0000 0.73990  0.91620  0.64340  Biso   1.000  N
  N54      1.0000 0.75720  0.94290  0.67250  Biso   1.000  N
  H144     1.0000 0.75780  0.97450  0.67530  Biso   1.000  H
  N55      1.0000 0.76540  0.86490  0.68310  Biso   1.000  N
  N56      1.0000 0.49700  0.97520  0.66450  Biso   1.000  N
  C352     1.0000 0.74900  0.86890  0.65340  Biso   1.000  C
  C353     1.0000 0.77240  0.90820  0.69460  Biso   1.000  C
  C354     1.0000 0.73580  0.82840  0.63220  Biso   1.000  C
  C355     1.0000 0.71450  0.83400  0.59850  Biso   1.000  C
  H145     1.0000 0.71370  0.86530  0.58840  Biso   1.000  H
  C356     1.0000 0.69450  0.79180  0.58030  Biso   1.000  C
  C357     1.0000 0.70030  0.74540  0.59420  Biso   1.000  C
  H146     1.0000 0.68880  0.71830  0.58190  Biso   1.000  H
  C358     1.0000 0.72180  0.73700  0.62460  Biso   1.000  C
  C359     1.0000 0.74070  0.77990  0.64390  Biso   1.000  C
  H147     1.0000 0.75660  0.77440  0.66460  Biso   1.000  H
  C360     1.0000 0.66420  0.80200  0.54690  Biso   1.000  C
  C361     1.0000 0.72280  0.68550  0.63940  Biso   1.000  C
  C362     1.0000 0.78920  0.92490  0.72810  Biso   1.000  C
  C363     1.0000 0.78230  0.97190  0.74400  Biso   1.000  C
  H148     1.0000 0.76460  0.99690  0.73310  Biso   1.000  H
  C364     1.0000 0.80170  0.97960  0.77530  Biso   1.000  C
  C365     1.0000 0.82740  0.94050  0.79280  Biso   1.000  C
  H149     1.0000 0.84080  0.94600  0.81440  Biso   1.000  H
  C366     1.0000 0.83220  0.89490  0.77750  Biso   1.000  C
  C367     1.0000 0.81200  0.88910  0.74560  Biso   1.000  C
  H150     1.0000 0.81430  0.85800  0.73540  Biso   1.000  H
  C368     1.0000 0.79350  0.03110  0.79490  Biso   1.000  C
  C369     1.0000 0.85680  0.85400  0.79870  Biso   1.000  C
  C370     1.0000 0.49620  0.96100  0.63240  Biso   1.000  C
  C371     1.0000 0.49360  0.91160  0.62000  Biso   1.000  C
  C372     1.0000 0.51570  0.90070  0.59150  Biso   1.000  C
  H151     1.0000 0.53170  0.92610  0.57970  Biso   1.000  H
  C373     1.0000 0.51700  0.85280  0.57720  Biso   1.000  C
  C374     1.0000 0.48860  0.81660  0.59280  Biso   1.000  C
  H152     1.0000 0.48690  0.78540  0.58280  Biso   1.000  H
  C375     1.0000 0.46190  0.82510  0.62370  Biso   1.000  C
  C376     1.0000 0.46570  0.87630  0.63680  Biso   1.000  C
  H153     1.0000 0.44900  0.88490  0.65670  Biso   1.000  H
  C377     1.0000 0.54880  0.83910  0.54670  Biso   1.000  C
  C378     1.0000 0.43390  0.78320  0.64060  Biso   1.000  C
  H154     1.0000 0.49440  0.95640  0.68210  Biso   1.000  H
  Cu29     1.0000 0.37757  0.74823  0.69589  Biso   1.000  Cu
  Cu30     1.0000 0.40831  0.68512  0.64767  Biso   1.000  Cu
  O169     1.0000 0.15360  0.66830  0.53565  Biso   1.000  O
  O170     1.0000 0.23290  0.64200  0.53554  Biso   1.000  O
  O171     1.0000 0.31752  0.74890  0.66689  Biso   1.000  O
  O172     1.0000 0.34570  0.69970  0.62483  Biso   1.000  O
  O173     1.0000 0.93920  0.76380  0.78135  Biso   1.000  O
  O174     1.0000 0.96440  0.81970  0.82146  Biso   1.000  O
  O175     1.0000 0.18710  0.85410  0.78407  Biso   1.000  O
  O176     1.0000 0.13520  0.87540  0.82577  Biso   1.000  O
  O177     1.0000 0.12320  0.57390  0.53561  Biso   1.000  O
  O178     1.0000 0.20460  0.54810  0.53617  Biso   1.000  O
  O179     1.0000 0.20280  0.40970  0.66668  Biso   1.000  O
  O180     1.0000 0.25780  0.43760  0.62828  Biso   1.000  O
  N57      1.0000 0.08380  0.73990  0.64340  Biso   1.000  N
  N58      1.0000 0.05710  0.75720  0.67250  Biso   1.000  N
  H155     1.0000 0.02550  0.75780  0.67530  Biso   1.000  H
  N59      1.0000 0.13510  0.76540  0.68310  Biso   1.000  N
  N60      1.0000 0.02480  0.49700  0.66450  Biso   1.000  N
  C379     1.0000 0.13110  0.74900  0.65340  Biso   1.000  C
  C380     1.0000 0.09180  0.77240  0.69460  Biso   1.000  C
  C381     1.0000 0.17160  0.73580  0.63220  Biso   1.000  C
  C382     1.0000 0.16600  0.71450  0.59850  Biso   1.000  C
  H156     1.0000 0.13470  0.71370  0.58840  Biso   1.000  H
  C383     1.0000 0.20820  0.69450  0.58030  Biso   1.000  C
  C384     1.0000 0.25460  0.70030  0.59420  Biso   1.000  C
  H157     1.0000 0.28170  0.68880  0.58190  Biso   1.000  H
  C385     1.0000 0.26300  0.72180  0.62460  Biso   1.000  C
  C386     1.0000 0.22010  0.74070  0.64390  Biso   1.000  C
  H158     1.0000 0.22560  0.75660  0.66460  Biso   1.000  H
  C387     1.0000 0.19800  0.66420  0.54690  Biso   1.000  C
  C388     1.0000 0.31450  0.72280  0.63940  Biso   1.000  C
  C389     1.0000 0.07510  0.78920  0.72810  Biso   1.000  C
  C390     1.0000 0.02810  0.78230  0.74400  Biso   1.000  C
  H159     1.0000 0.00310  0.76460  0.73310  Biso   1.000  H
  C391     1.0000 0.02040  0.80170  0.77530  Biso   1.000  C
  C392     1.0000 0.05950  0.82740  0.79280  Biso   1.000  C
  H160     1.0000 0.05400  0.84080  0.81440  Biso   1.000  H
  C393     1.0000 0.10510  0.83220  0.77750  Biso   1.000  C
  C394     1.0000 0.11090  0.81200  0.74560  Biso   1.000  C
  H161     1.0000 0.14200  0.81430  0.73540  Biso   1.000  H
  C395     1.0000 0.96890  0.79350  0.79490  Biso   1.000  C
  C396     1.0000 0.14600  0.85680  0.79870  Biso   1.000  C
  C397     1.0000 0.03900  0.49620  0.63240  Biso   1.000  C
  C398     1.0000 0.08840  0.49360  0.62000  Biso   1.000  C
  C399     1.0000 0.09930  0.51570  0.59150  Biso   1.000  C
  H162     1.0000 0.07390  0.53170  0.57970  Biso   1.000  H
  C400     1.0000 0.14720  0.51700  0.57720  Biso   1.000  C
  C401     1.0000 0.18340  0.48860  0.59280  Biso   1.000  C
  H163     1.0000 0.21460  0.48690  0.58280  Biso   1.000  H
  C402     1.0000 0.17490  0.46190  0.62370  Biso   1.000  C
  C403     1.0000 0.12370  0.46570  0.63680  Biso   1.000  C
  H164     1.0000 0.11510  0.44900  0.65670  Biso   1.000  H
  C404     1.0000 0.16090  0.54880  0.54670  Biso   1.000  C
  C405     1.0000 0.21680  0.43390  0.64060  Biso   1.000  C
  H165     1.0000 0.04360  0.49440  0.68210  Biso   1.000  H
  Cu31     1.0000 0.62243  0.25177  0.69589  Biso   1.000  Cu
  Cu32     1.0000 0.59169  0.31488  0.64767  Biso   1.000  Cu
  O181     1.0000 0.84640  0.33170  0.53565  Biso   1.000  O
  O182     1.0000 0.76710  0.35800  0.53554  Biso   1.000  O
  O183     1.0000 0.68248  0.25110  0.66689  Biso   1.000  O
  O184     1.0000 0.65430  0.30030  0.62483  Biso   1.000  O
  O185     1.0000 0.06080  0.23620  0.78135  Biso   1.000  O
  O186     1.0000 0.03560  0.18030  0.82146  Biso   1.000  O
  O187     1.0000 0.81290  0.14590  0.78407  Biso   1.000  O
  O188     1.0000 0.86480  0.12460  0.82577  Biso   1.000  O
  O189     1.0000 0.87680  0.42610  0.53561  Biso   1.000  O
  O190     1.0000 0.79540  0.45190  0.53617  Biso   1.000  O
  O191     1.0000 0.79720  0.59030  0.66668  Biso   1.000  O
  O192     1.0000 0.74220  0.56240  0.62828  Biso   1.000  O
  N61      1.0000 0.91620  0.26010  0.64340  Biso   1.000  N
  N62      1.0000 0.94290  0.24280  0.67250  Biso   1.000  N
  H166     1.0000 0.97450  0.24220  0.67530  Biso   1.000  H
  N63      1.0000 0.86490  0.23460  0.68310  Biso   1.000  N
  N64      1.0000 0.97520  0.50300  0.66450  Biso   1.000  N
  C406     1.0000 0.86890  0.25100  0.65340  Biso   1.000  C
  C407     1.0000 0.90820  0.22760  0.69460  Biso   1.000  C
  C408     1.0000 0.82840  0.26420  0.63220  Biso   1.000  C
  C409     1.0000 0.83400  0.28550  0.59850  Biso   1.000  C
  H167     1.0000 0.86530  0.28630  0.58840  Biso   1.000  H
  C410     1.0000 0.79180  0.30550  0.58030  Biso   1.000  C
  C411     1.0000 0.74540  0.29970  0.59420  Biso   1.000  C
  H168     1.0000 0.71830  0.31120  0.58190  Biso   1.000  H
  C412     1.0000 0.73700  0.27820  0.62460  Biso   1.000  C
  C413     1.0000 0.77990  0.25930  0.64390  Biso   1.000  C
  H169     1.0000 0.77440  0.24340  0.66460  Biso   1.000  H
  C414     1.0000 0.80200  0.33580  0.54690  Biso   1.000  C
  C415     1.0000 0.68550  0.27720  0.63940  Biso   1.000  C
  C416     1.0000 0.92490  0.21080  0.72810  Biso   1.000  C
  C417     1.0000 0.97190  0.21770  0.74400  Biso   1.000  C
  H170     1.0000 0.99690  0.23540  0.73310  Biso   1.000  H
  C418     1.0000 0.97960  0.19830  0.77530  Biso   1.000  C
  C419     1.0000 0.94050  0.17260  0.79280  Biso   1.000  C
  H171     1.0000 0.94600  0.15920  0.81440  Biso   1.000  H
  C420     1.0000 0.89490  0.16780  0.77750  Biso   1.000  C
  C421     1.0000 0.88910  0.18800  0.74560  Biso   1.000  C
  H172     1.0000 0.85800  0.18570  0.73540  Biso   1.000  H
  C422     1.0000 0.03110  0.20650  0.79490  Biso   1.000  C
  C423     1.0000 0.85400  0.14320  0.79870  Biso   1.000  C
  C424     1.0000 0.96100  0.50380  0.63240  Biso   1.000  C
  C425     1.0000 0.91160  0.50640  0.62000  Biso   1.000  C
  C426     1.0000 0.90070  0.48430  0.59150  Biso   1.000  C
  H173     1.0000 0.92610  0.46830  0.57970  Biso   1.000  H
  C427     1.0000 0.85280  0.48300  0.57720  Biso   1.000  C
  C428     1.0000 0.81660  0.51140  0.59280  Biso   1.000  C
  H174     1.0000 0.78540  0.51310  0.58280  Biso   1.000  H
  C429     1.0000 0.82510  0.53810  0.62370  Biso   1.000  C
  C430     1.0000 0.87630  0.53430  0.63680  Biso   1.000  C
  H175     1.0000 0.88490  0.55100  0.65670  Biso   1.000  H
  C431     1.0000 0.83910  0.45120  0.54670  Biso   1.000  C
  C432     1.0000 0.78320  0.56610  0.64060  Biso   1.000  C
  H176     1.0000 0.95640  0.50560  0.68210  Biso   1.000  H
  Cu33     1.0000 0.87604  0.36836  0.00000  Biso   1.000  Cu
  Cu34     1.0000 0.90669  0.27444  0.00000  Biso   1.000  Cu
  Cu35     1.0000 0.12396  0.63164  0.00000  Biso   1.000  Cu
  Cu36     1.0000 0.09331  0.72556  0.00000  Biso   1.000  Cu
  Cu37     1.0000 0.63164  0.87604  0.00000  Biso   1.000  Cu
  Cu38     1.0000 0.72556  0.90669  0.00000  Biso   1.000  Cu
  Cu39     1.0000 0.36836  0.12396  0.00000  Biso   1.000  Cu
  Cu40     1.0000 0.27444  0.09331  0.00000  Biso   1.000  Cu
  Cu41     1.0000 0.62396  0.86836  0.50000  Biso   1.000  Cu
  Cu42     1.0000 0.59331  0.77444  0.50000  Biso   1.000  Cu
  Cu43     1.0000 0.37604  0.13164  0.50000  Biso   1.000  Cu
  Cu44     1.0000 0.40669  0.22556  0.50000  Biso   1.000  Cu
  Cu45     1.0000 0.86836  0.37604  0.50000  Biso   1.000  Cu
  Cu46     1.0000 0.77444  0.40669  0.50000  Biso   1.000  Cu
  Cu47     1.0000 0.13164  0.62396  0.50000  Biso   1.000  Cu
  Cu48     1.0000 0.22556  0.59331  0.50000  Biso   1.000  Cu
  N65      1.0000 0.00000  0.50000  0.11170  Biso   1.000  N
  N66      1.0000 0.50000  0.00000  0.11170  Biso   1.000  N
  N67      1.0000 0.50000  0.00000  0.38830  Biso   1.000  N
  N68      1.0000 0.00000  0.50000  0.38830  Biso   1.000  N
  N69      1.0000 0.00000  0.50000  0.88830  Biso   1.000  N
  N70      1.0000 0.50000  0.00000  0.88830  Biso   1.000  N
  N71      1.0000 0.50000  0.00000  0.61170  Biso   1.000  N
  N72      1.0000 0.00000  0.50000  0.61170  Biso   1.000  N
