data_image0
_cell_length_a       36.635
_cell_length_b       36.635
_cell_length_c       12.1278
_cell_angle_alpha    90
_cell_angle_beta     90
_cell_angle_gamma    120

_symmetry_space_group_name_H-M    "P 1"
_symmetry_int_tables_number       1

loop_
  _symmetry_equiv_pos_as_xyz
  'x, y, z'

loop_
  _atom_site_label
  _atom_site_occupancy
  _atom_site_fract_x
  _atom_site_fract_y
  _atom_site_fract_z
  _atom_site_thermal_displace_type
  _atom_site_B_iso_or_equiv
  _atom_site_type_symbol
  Zn1      1.0000 0.13530  0.64883  0.44334  Biso   1.000  Zn
  O1       1.0000 0.02813  0.78912  0.88858  Biso   1.000  O
  O2       1.0000 0.96874  0.75506  0.98846  Biso   1.000  O
  O3       1.0000 0.45711  0.85566  0.44246  Biso   1.000  O
  O4       1.0000 0.44375  0.85205  0.26110  Biso   1.000  O
  N1       1.0000 0.11048  0.65662  0.30567  Biso   1.000  N
  N2       1.0000 0.11055  0.63838  0.20819  Biso   1.000  N
  H1       1.0000 0.12110  0.62170  0.19890  Biso   1.000  H
  N3       1.0000 0.19361  0.73058  0.54656  Biso   1.000  N
  H2       1.0000 0.17280  0.72820  0.58790  Biso   1.000  H
  N4       1.0000 0.19031  0.70045  0.47568  Biso   1.000  N
  C1       1.0000 0.05985  0.69701  0.12000  Biso   1.000  C
  C2       1.0000 0.00453  0.76274  0.96230  Biso   1.000  C
  C3       1.0000 0.02390  0.73993  0.01850  Biso   1.000  C
  C4       1.0000 0.06258  0.74588  0.98250  Biso   1.000  C
  H3       1.0000 0.07700  0.76480  0.92370  Biso   1.000  H
  C5       1.0000 0.08004  0.72418  0.03220  Biso   1.000  C
  H4       1.0000 0.10610  0.72790  0.00620  Biso   1.000  H
  C6       1.0000 0.02137  0.69162  0.15690  Biso   1.000  C
  H5       1.0000 0.00740  0.67340  0.21730  Biso   1.000  H
  C7       1.0000 0.00332  0.71267  0.10560  Biso   1.000  C
  H6       1.0000 0.97690  0.70840  0.13020  Biso   1.000  H
  C8       1.0000 0.07982  0.67546  0.17510  Biso   1.000  C
  C9       1.0000 0.09161  0.67915  0.28630  Biso   1.000  C
  C10      1.0000 0.09242  0.64910  0.12760  Biso   1.000  C
  C11      1.0000 0.08589  0.70450  0.37440  Biso   1.000  C
  H7       1.0000 0.07140  0.71860  0.34350  Biso   1.000  H
  H8       1.0000 0.06900  0.68580  0.43450  Biso   1.000  H
  H9       1.0000 0.11350  0.72570  0.40290  Biso   1.000  H
  C12      1.0000 0.08819  0.63318  0.01230  Biso   1.000  C
  H10      1.0000 0.07420  0.64470  0.96690  Biso   1.000  H
  H11      1.0000 0.11620  0.64210  0.98210  Biso   1.000  H
  H12      1.0000 0.07140  0.60230  0.01230  Biso   1.000  H
  C13      1.0000 0.43265  0.84710  0.35920  Biso   1.000  C
  C14      1.0000 0.38667  0.82756  0.38710  Biso   1.000  C
  C15      1.0000 0.37363  0.82370  0.49630  Biso   1.000  C
  H13      1.0000 0.39390  0.83600  0.55340  Biso   1.000  H
  C16      1.0000 0.33130  0.80205  0.52210  Biso   1.000  C
  H14      1.0000 0.32290  0.80010  0.59700  Biso   1.000  H
  C17      1.0000 0.30065  0.78301  0.44080  Biso   1.000  C
  C18      1.0000 0.31400  0.78876  0.33120  Biso   1.000  C
  H15      1.0000 0.29370  0.77730  0.27370  Biso   1.000  H
  C19      1.0000 0.35661  0.81099  0.30520  Biso   1.000  C
  H16      1.0000 0.36510  0.81480  0.23010  Biso   1.000  H
  C20      1.0000 0.25574  0.75639  0.46960  Biso   1.000  C
  C21      1.0000 0.23253  0.76456  0.54600  Biso   1.000  C
  C22      1.0000 0.22817  0.71597  0.42810  Biso   1.000  C
  C23      1.0000 0.24384  0.80185  0.61670  Biso   1.000  C
  H17      1.0000 0.27340  0.82310  0.60440  Biso   1.000  H
  H18      1.0000 0.22590  0.81370  0.59780  Biso   1.000  H
  H19      1.0000 0.23970  0.79330  0.69430  Biso   1.000  H
  C24      1.0000 0.23599  0.68923  0.34770  Biso   1.000  C
  H20      1.0000 0.23570  0.66580  0.38710  Biso   1.000  H
  H21      1.0000 0.26350  0.70640  0.31230  Biso   1.000  H
  H22      1.0000 0.21380  0.67810  0.29140  Biso   1.000  H
  Zn2      1.0000 0.80197  0.98216  0.77667  Biso   1.000  Zn
  O5       1.0000 0.69480  0.12245  0.22191  Biso   1.000  O
  O6       1.0000 0.63541  0.08839  0.32179  Biso   1.000  O
  O7       1.0000 0.12378  0.18899  0.77579  Biso   1.000  O
  O8       1.0000 0.11042  0.18538  0.59443  Biso   1.000  O
  N5       1.0000 0.77715  0.98995  0.63900  Biso   1.000  N
  N6       1.0000 0.77722  0.97171  0.54152  Biso   1.000  N
  H23      1.0000 0.78777  0.95503  0.53223  Biso   1.000  H
  N7       1.0000 0.86028  0.06391  0.87989  Biso   1.000  N
  H24      1.0000 0.83947  0.06153  0.92123  Biso   1.000  H
  N8       1.0000 0.85698  0.03378  0.80901  Biso   1.000  N
  C25      1.0000 0.72652  0.03034  0.45333  Biso   1.000  C
  C26      1.0000 0.67120  0.09607  0.29563  Biso   1.000  C
  C27      1.0000 0.69057  0.07326  0.35183  Biso   1.000  C
  C28      1.0000 0.72925  0.07921  0.31583  Biso   1.000  C
  H25      1.0000 0.74367  0.09813  0.25703  Biso   1.000  H
  C29      1.0000 0.74671  0.05751  0.36553  Biso   1.000  C
  H26      1.0000 0.77277  0.06123  0.33953  Biso   1.000  H
  C30      1.0000 0.68804  0.02495  0.49023  Biso   1.000  C
  H27      1.0000 0.67407  0.00673  0.55063  Biso   1.000  H
  C31      1.0000 0.66999  0.04600  0.43893  Biso   1.000  C
  H28      1.0000 0.64357  0.04173  0.46353  Biso   1.000  H
  C32      1.0000 0.74649  0.00879  0.50843  Biso   1.000  C
  C33      1.0000 0.75828  0.01248  0.61963  Biso   1.000  C
  C34      1.0000 0.75909  0.98243  0.46093  Biso   1.000  C
  C35      1.0000 0.75256  0.03783  0.70773  Biso   1.000  C
  H29      1.0000 0.73807  0.05193  0.67683  Biso   1.000  H
  H30      1.0000 0.73567  0.01913  0.76783  Biso   1.000  H
  H31      1.0000 0.78017  0.05903  0.73623  Biso   1.000  H
  C36      1.0000 0.75486  0.96651  0.34563  Biso   1.000  C
  H32      1.0000 0.74087  0.97803  0.30023  Biso   1.000  H
  H33      1.0000 0.78287  0.97543  0.31543  Biso   1.000  H
  H34      1.0000 0.73807  0.93563  0.34563  Biso   1.000  H
  C37      1.0000 0.09932  0.18043  0.69253  Biso   1.000  C
  C38      1.0000 0.05334  0.16089  0.72043  Biso   1.000  C
  C39      1.0000 0.04030  0.15703  0.82963  Biso   1.000  C
  H35      1.0000 0.06057  0.16933  0.88673  Biso   1.000  H
  C40      1.0000 0.99797  0.13538  0.85543  Biso   1.000  C
  H36      1.0000 0.98957  0.13343  0.93033  Biso   1.000  H
  C41      1.0000 0.96732  0.11634  0.77413  Biso   1.000  C
  C42      1.0000 0.98067  0.12209  0.66453  Biso   1.000  C
  H37      1.0000 0.96037  0.11063  0.60703  Biso   1.000  H
  C43      1.0000 0.02328  0.14432  0.63853  Biso   1.000  C
  H38      1.0000 0.03177  0.14813  0.56343  Biso   1.000  H
  C44      1.0000 0.92241  0.08972  0.80293  Biso   1.000  C
  C45      1.0000 0.89920  0.09789  0.87933  Biso   1.000  C
  C46      1.0000 0.89484  0.04930  0.76143  Biso   1.000  C
  C47      1.0000 0.91051  0.13518  0.95003  Biso   1.000  C
  H39      1.0000 0.94007  0.15643  0.93773  Biso   1.000  H
  H40      1.0000 0.89257  0.14703  0.93113  Biso   1.000  H
  H41      1.0000 0.90637  0.12663  0.02763  Biso   1.000  H
  C48      1.0000 0.90266  0.02256  0.68103  Biso   1.000  C
  H42      1.0000 0.90237  0.99913  0.72043  Biso   1.000  H
  H43      1.0000 0.93017  0.03973  0.64563  Biso   1.000  H
  H44      1.0000 0.88047  0.01143  0.62473  Biso   1.000  H
  Zn3      1.0000 0.46863  0.31550  0.11001  Biso   1.000  Zn
  O9       1.0000 0.36146  0.45579  0.55525  Biso   1.000  O
  O10      1.0000 0.30207  0.42173  0.65513  Biso   1.000  O
  O11      1.0000 0.79044  0.52233  0.10913  Biso   1.000  O
  O12      1.0000 0.77708  0.51872  0.92777  Biso   1.000  O
  N9       1.0000 0.44381  0.32329  0.97234  Biso   1.000  N
  N10      1.0000 0.44388  0.30505  0.87486  Biso   1.000  N
  H45      1.0000 0.45443  0.28837  0.86557  Biso   1.000  H
  N11      1.0000 0.52694  0.39725  0.21323  Biso   1.000  N
  H46      1.0000 0.50613  0.39487  0.25457  Biso   1.000  H
  N12      1.0000 0.52364  0.36712  0.14235  Biso   1.000  N
  C49      1.0000 0.39318  0.36368  0.78667  Biso   1.000  C
  C50      1.0000 0.33786  0.42941  0.62897  Biso   1.000  C
  C51      1.0000 0.35723  0.40660  0.68517  Biso   1.000  C
  C52      1.0000 0.39591  0.41255  0.64917  Biso   1.000  C
  H47      1.0000 0.41033  0.43147  0.59037  Biso   1.000  H
  C53      1.0000 0.41337  0.39085  0.69887  Biso   1.000  C
  H48      1.0000 0.43943  0.39457  0.67287  Biso   1.000  H
  C54      1.0000 0.35470  0.35829  0.82357  Biso   1.000  C
  H49      1.0000 0.34073  0.34007  0.88397  Biso   1.000  H
  C55      1.0000 0.33665  0.37934  0.77227  Biso   1.000  C
  H50      1.0000 0.31023  0.37507  0.79687  Biso   1.000  H
  C56      1.0000 0.41315  0.34213  0.84177  Biso   1.000  C
  C57      1.0000 0.42494  0.34582  0.95297  Biso   1.000  C
  C58      1.0000 0.42575  0.31577  0.79427  Biso   1.000  C
  C59      1.0000 0.41922  0.37117  0.04107  Biso   1.000  C
  H51      1.0000 0.40473  0.38527  0.01017  Biso   1.000  H
  H52      1.0000 0.40233  0.35247  0.10117  Biso   1.000  H
  H53      1.0000 0.44683  0.39237  0.06957  Biso   1.000  H
  C60      1.0000 0.42152  0.29985  0.67897  Biso   1.000  C
  H54      1.0000 0.40753  0.31137  0.63357  Biso   1.000  H
  H55      1.0000 0.44953  0.30877  0.64877  Biso   1.000  H
  H56      1.0000 0.40473  0.26897  0.67897  Biso   1.000  H
  C61      1.0000 0.76598  0.51377  0.02587  Biso   1.000  C
  C62      1.0000 0.72000  0.49423  0.05377  Biso   1.000  C
  C63      1.0000 0.70696  0.49037  0.16297  Biso   1.000  C
  H57      1.0000 0.72723  0.50267  0.22007  Biso   1.000  H
  C64      1.0000 0.66463  0.46872  0.18877  Biso   1.000  C
  H58      1.0000 0.65623  0.46677  0.26367  Biso   1.000  H
  C65      1.0000 0.63398  0.44968  0.10747  Biso   1.000  C
  C66      1.0000 0.64733  0.45543  0.99787  Biso   1.000  C
  H59      1.0000 0.62703  0.44397  0.94037  Biso   1.000  H
  C67      1.0000 0.68994  0.47766  0.97187  Biso   1.000  C
  H60      1.0000 0.69843  0.48147  0.89677  Biso   1.000  H
  C68      1.0000 0.58907  0.42306  0.13627  Biso   1.000  C
  C69      1.0000 0.56586  0.43123  0.21267  Biso   1.000  C
  C70      1.0000 0.56150  0.38264  0.09477  Biso   1.000  C
  C71      1.0000 0.57717  0.46852  0.28337  Biso   1.000  C
  H61      1.0000 0.60673  0.48977  0.27107  Biso   1.000  H
  H62      1.0000 0.55923  0.48037  0.26447  Biso   1.000  H
  H63      1.0000 0.57303  0.45997  0.36097  Biso   1.000  H
  C72      1.0000 0.56932  0.35590  0.01437  Biso   1.000  C
  H64      1.0000 0.56903  0.33247  0.05377  Biso   1.000  H
  H65      1.0000 0.59683  0.37307  0.97897  Biso   1.000  H
  H66      1.0000 0.54713  0.34477  0.95807  Biso   1.000  H
  Zn4      1.0000 0.35117  0.48647  0.44334  Biso   1.000  Zn
  O13      1.0000 0.21088  0.23901  0.88858  Biso   1.000  O
  O14      1.0000 0.24494  0.21368  0.98846  Biso   1.000  O
  O15      1.0000 0.14434  0.60145  0.44246  Biso   1.000  O
  O16      1.0000 0.14795  0.59170  0.26110  Biso   1.000  O
  N13      1.0000 0.34338  0.45386  0.30567  Biso   1.000  N
  N14      1.0000 0.36162  0.47217  0.20819  Biso   1.000  N
  H67      1.0000 0.37830  0.49940  0.19890  Biso   1.000  H
  N15      1.0000 0.26942  0.46303  0.54656  Biso   1.000  N
  H68      1.0000 0.27180  0.44460  0.58790  Biso   1.000  H
  N16      1.0000 0.29955  0.48986  0.47568  Biso   1.000  N
  C73      1.0000 0.30299  0.36284  0.12000  Biso   1.000  C
  C74      1.0000 0.23726  0.24179  0.96230  Biso   1.000  C
  C75      1.0000 0.26007  0.28397  0.01850  Biso   1.000  C
  C76      1.0000 0.25412  0.31670  0.98250  Biso   1.000  C
  H69      1.0000 0.23520  0.31220  0.92370  Biso   1.000  H
  C77      1.0000 0.27582  0.35586  0.03220  Biso   1.000  C
  H70      1.0000 0.27210  0.37820  0.00620  Biso   1.000  H
  C78      1.0000 0.30838  0.32975  0.15690  Biso   1.000  C
  H71      1.0000 0.32660  0.33400  0.21730  Biso   1.000  H
  C79      1.0000 0.28733  0.29065  0.10560  Biso   1.000  C
  H72      1.0000 0.29160  0.26850  0.13020  Biso   1.000  H
  C80      1.0000 0.32454  0.40436  0.17510  Biso   1.000  C
  C81      1.0000 0.32085  0.41246  0.28630  Biso   1.000  C
  C82      1.0000 0.35090  0.44332  0.12760  Biso   1.000  C
  C83      1.0000 0.29550  0.38139  0.37440  Biso   1.000  C
  H73      1.0000 0.28140  0.35280  0.34350  Biso   1.000  H
  H74      1.0000 0.31420  0.38320  0.43450  Biso   1.000  H
  H75      1.0000 0.27430  0.38780  0.40290  Biso   1.000  H
  C84      1.0000 0.36682  0.45501  0.01230  Biso   1.000  C
  H76      1.0000 0.35530  0.42950  0.96690  Biso   1.000  H
  H77      1.0000 0.35790  0.47410  0.98210  Biso   1.000  H
  H78      1.0000 0.39770  0.46910  0.01230  Biso   1.000  H
  C85      1.0000 0.15290  0.58555  0.35920  Biso   1.000  C
  C86      1.0000 0.17244  0.55911  0.38710  Biso   1.000  C
  C87      1.0000 0.17630  0.54993  0.49630  Biso   1.000  C
  H79      1.0000 0.16400  0.55790  0.55340  Biso   1.000  H
  C88      1.0000 0.19795  0.52925  0.52210  Biso   1.000  C
  H80      1.0000 0.19990  0.52280  0.59700  Biso   1.000  H
  C89      1.0000 0.21699  0.51764  0.44080  Biso   1.000  C
  C90      1.0000 0.21124  0.52524  0.33120  Biso   1.000  C
  H81      1.0000 0.22270  0.51640  0.27370  Biso   1.000  H
  C91      1.0000 0.18901  0.54562  0.30520  Biso   1.000  C
  H82      1.0000 0.18520  0.55030  0.23010  Biso   1.000  H
  C92      1.0000 0.24361  0.49935  0.46960  Biso   1.000  C
  C93      1.0000 0.23544  0.46797  0.54600  Biso   1.000  C
  C94      1.0000 0.28403  0.51220  0.42810  Biso   1.000  C
  C95      1.0000 0.19815  0.44199  0.61670  Biso   1.000  C
  H83      1.0000 0.17690  0.45030  0.60440  Biso   1.000  H
  H84      1.0000 0.18630  0.41220  0.59780  Biso   1.000  H
  H85      1.0000 0.20670  0.44640  0.69430  Biso   1.000  H
  C96      1.0000 0.31077  0.54676  0.34770  Biso   1.000  C
  H86      1.0000 0.33420  0.56990  0.38710  Biso   1.000  H
  H87      1.0000 0.29360  0.55710  0.31230  Biso   1.000  H
  H88      1.0000 0.32190  0.53570  0.29140  Biso   1.000  H
  Zn5      1.0000 0.01784  0.81980  0.77667  Biso   1.000  Zn
  O17      1.0000 0.87755  0.57234  0.22191  Biso   1.000  O
  O18      1.0000 0.91161  0.54701  0.32179  Biso   1.000  O
  O19      1.0000 0.81101  0.93478  0.77579  Biso   1.000  O
  O20      1.0000 0.81462  0.92503  0.59443  Biso   1.000  O
  N17      1.0000 0.01005  0.78719  0.63900  Biso   1.000  N
  N18      1.0000 0.02829  0.80550  0.54152  Biso   1.000  N
  H89      1.0000 0.04497  0.83273  0.53223  Biso   1.000  H
  N19      1.0000 0.93609  0.79636  0.87989  Biso   1.000  N
  H90      1.0000 0.93847  0.77793  0.92123  Biso   1.000  H
  N20      1.0000 0.96622  0.82319  0.80901  Biso   1.000  N
  C97      1.0000 0.96966  0.69617  0.45333  Biso   1.000  C
  C98      1.0000 0.90393  0.57512  0.29563  Biso   1.000  C
  C99      1.0000 0.92674  0.61730  0.35183  Biso   1.000  C
  C100     1.0000 0.92079  0.65003  0.31583  Biso   1.000  C
  H91      1.0000 0.90187  0.64553  0.25703  Biso   1.000  H
  C101     1.0000 0.94249  0.68919  0.36553  Biso   1.000  C
  H92      1.0000 0.93877  0.71153  0.33953  Biso   1.000  H
  C102     1.0000 0.97505  0.66308  0.49023  Biso   1.000  C
  H93      1.0000 0.99327  0.66733  0.55063  Biso   1.000  H
  C103     1.0000 0.95400  0.62398  0.43893  Biso   1.000  C
  H94      1.0000 0.95827  0.60183  0.46353  Biso   1.000  H
  C104     1.0000 0.99121  0.73769  0.50843  Biso   1.000  C
  C105     1.0000 0.98752  0.74579  0.61963  Biso   1.000  C
  C106     1.0000 0.01757  0.77665  0.46093  Biso   1.000  C
  C107     1.0000 0.96217  0.71472  0.70773  Biso   1.000  C
  H95      1.0000 0.94807  0.68613  0.67683  Biso   1.000  H
  H96      1.0000 0.98087  0.71653  0.76783  Biso   1.000  H
  H97      1.0000 0.94097  0.72113  0.73623  Biso   1.000  H
  C108     1.0000 0.03349  0.78834  0.34563  Biso   1.000  C
  H98      1.0000 0.02197  0.76283  0.30023  Biso   1.000  H
  H99      1.0000 0.02457  0.80743  0.31543  Biso   1.000  H
  H100     1.0000 0.06437  0.80243  0.34563  Biso   1.000  H
  C109     1.0000 0.81957  0.91888  0.69253  Biso   1.000  C
  C110     1.0000 0.83911  0.89244  0.72043  Biso   1.000  C
  C111     1.0000 0.84297  0.88326  0.82963  Biso   1.000  C
  H101     1.0000 0.83067  0.89123  0.88673  Biso   1.000  H
  C112     1.0000 0.86462  0.86258  0.85543  Biso   1.000  C
  H102     1.0000 0.86657  0.85613  0.93033  Biso   1.000  H
  C113     1.0000 0.88366  0.85097  0.77413  Biso   1.000  C
  C114     1.0000 0.87791  0.85857  0.66453  Biso   1.000  C
  H103     1.0000 0.88937  0.84973  0.60703  Biso   1.000  H
  C115     1.0000 0.85568  0.87895  0.63853  Biso   1.000  C
  H104     1.0000 0.85187  0.88363  0.56343  Biso   1.000  H
  C116     1.0000 0.91028  0.83268  0.80293  Biso   1.000  C
  C117     1.0000 0.90211  0.80130  0.87933  Biso   1.000  C
  C118     1.0000 0.95070  0.84553  0.76143  Biso   1.000  C
  C119     1.0000 0.86482  0.77532  0.95003  Biso   1.000  C
  H105     1.0000 0.84357  0.78363  0.93773  Biso   1.000  H
  H106     1.0000 0.85297  0.74553  0.93113  Biso   1.000  H
  H107     1.0000 0.87337  0.77973  0.02763  Biso   1.000  H
  C120     1.0000 0.97744  0.88009  0.68103  Biso   1.000  C
  H108     1.0000 0.00087  0.90323  0.72043  Biso   1.000  H
  H109     1.0000 0.96027  0.89043  0.64563  Biso   1.000  H
  H110     1.0000 0.98857  0.86903  0.62473  Biso   1.000  H
  Zn6      1.0000 0.68450  0.15314  0.11001  Biso   1.000  Zn
  O21      1.0000 0.54421  0.90568  0.55525  Biso   1.000  O
  O22      1.0000 0.57827  0.88035  0.65513  Biso   1.000  O
  O23      1.0000 0.47767  0.26812  0.10913  Biso   1.000  O
  O24      1.0000 0.48128  0.25837  0.92777  Biso   1.000  O
  N21      1.0000 0.67671  0.12053  0.97234  Biso   1.000  N
  N22      1.0000 0.69495  0.13884  0.87486  Biso   1.000  N
  H111     1.0000 0.71163  0.16607  0.86557  Biso   1.000  H
  N23      1.0000 0.60275  0.12970  0.21323  Biso   1.000  N
  H112     1.0000 0.60513  0.11127  0.25457  Biso   1.000  H
  N24      1.0000 0.63288  0.15653  0.14235  Biso   1.000  N
  C121     1.0000 0.63632  0.02951  0.78667  Biso   1.000  C
  C122     1.0000 0.57059  0.90846  0.62897  Biso   1.000  C
  C123     1.0000 0.59340  0.95064  0.68517  Biso   1.000  C
  C124     1.0000 0.58745  0.98337  0.64917  Biso   1.000  C
  H113     1.0000 0.56853  0.97887  0.59037  Biso   1.000  H
  C125     1.0000 0.60915  0.02253  0.69887  Biso   1.000  C
  H114     1.0000 0.60543  0.04487  0.67287  Biso   1.000  H
  C126     1.0000 0.64171  0.99642  0.82357  Biso   1.000  C
  H115     1.0000 0.65993  0.00067  0.88397  Biso   1.000  H
  C127     1.0000 0.62066  0.95732  0.77227  Biso   1.000  C
  H116     1.0000 0.62493  0.93517  0.79687  Biso   1.000  H
  C128     1.0000 0.65787  0.07103  0.84177  Biso   1.000  C
  C129     1.0000 0.65418  0.07913  0.95297  Biso   1.000  C
  C130     1.0000 0.68423  0.10999  0.79427  Biso   1.000  C
  C131     1.0000 0.62883  0.04806  0.04107  Biso   1.000  C
  H117     1.0000 0.61473  0.01947  0.01017  Biso   1.000  H
  H118     1.0000 0.64753  0.04987  0.10117  Biso   1.000  H
  H119     1.0000 0.60763  0.05447  0.06957  Biso   1.000  H
  C132     1.0000 0.70015  0.12168  0.67897  Biso   1.000  C
  H120     1.0000 0.68863  0.09617  0.63357  Biso   1.000  H
  H121     1.0000 0.69123  0.14077  0.64877  Biso   1.000  H
  H122     1.0000 0.73103  0.13577  0.67897  Biso   1.000  H
  C133     1.0000 0.48623  0.25222  0.02587  Biso   1.000  C
  C134     1.0000 0.50577  0.22578  0.05377  Biso   1.000  C
  C135     1.0000 0.50963  0.21660  0.16297  Biso   1.000  C
  H123     1.0000 0.49733  0.22457  0.22007  Biso   1.000  H
  C136     1.0000 0.53128  0.19592  0.18877  Biso   1.000  C
  H124     1.0000 0.53323  0.18947  0.26367  Biso   1.000  H
  C137     1.0000 0.55032  0.18431  0.10747  Biso   1.000  C
  C138     1.0000 0.54457  0.19191  0.99787  Biso   1.000  C
  H125     1.0000 0.55603  0.18307  0.94037  Biso   1.000  H
  C139     1.0000 0.52234  0.21229  0.97187  Biso   1.000  C
  H126     1.0000 0.51853  0.21697  0.89677  Biso   1.000  H
  C140     1.0000 0.57694  0.16602  0.13627  Biso   1.000  C
  C141     1.0000 0.56877  0.13464  0.21267  Biso   1.000  C
  C142     1.0000 0.61736  0.17887  0.09477  Biso   1.000  C
  C143     1.0000 0.53148  0.10866  0.28337  Biso   1.000  C
  H127     1.0000 0.51023  0.11697  0.27107  Biso   1.000  H
  H128     1.0000 0.51963  0.07887  0.26447  Biso   1.000  H
  H129     1.0000 0.54003  0.11307  0.36097  Biso   1.000  H
  C144     1.0000 0.64410  0.21343  0.01437  Biso   1.000  C
  H130     1.0000 0.66753  0.23657  0.05377  Biso   1.000  H
  H131     1.0000 0.62693  0.22377  0.97897  Biso   1.000  H
  H132     1.0000 0.65523  0.20237  0.95807  Biso   1.000  H
  Zn7      1.0000 0.51353  0.86470  0.44334  Biso   1.000  Zn
  O25      1.0000 0.76099  0.97187  0.88858  Biso   1.000  O
  O26      1.0000 0.78632  0.03126  0.98846  Biso   1.000  O
  O27      1.0000 0.39855  0.54289  0.44246  Biso   1.000  O
  O28      1.0000 0.40830  0.55625  0.26110  Biso   1.000  O
  N25      1.0000 0.54614  0.88952  0.30567  Biso   1.000  N
  N26      1.0000 0.52783  0.88945  0.20819  Biso   1.000  N
  H133     1.0000 0.50060  0.87890  0.19890  Biso   1.000  H
  N27      1.0000 0.53697  0.80639  0.54656  Biso   1.000  N
  H134     1.0000 0.55540  0.82720  0.58790  Biso   1.000  H
  N28      1.0000 0.51014  0.80969  0.47568  Biso   1.000  N
  C145     1.0000 0.63716  0.94015  0.12000  Biso   1.000  C
  C146     1.0000 0.75821  0.99547  0.96230  Biso   1.000  C
  C147     1.0000 0.71603  0.97610  0.01850  Biso   1.000  C
  C148     1.0000 0.68330  0.93742  0.98250  Biso   1.000  C
  H135     1.0000 0.68780  0.92300  0.92370  Biso   1.000  H
  C149     1.0000 0.64414  0.91996  0.03220  Biso   1.000  C
  H136     1.0000 0.62180  0.89390  0.00620  Biso   1.000  H
  C150     1.0000 0.67025  0.97863  0.15690  Biso   1.000  C
  H137     1.0000 0.66600  0.99260  0.21730  Biso   1.000  H
  C151     1.0000 0.70935  0.99668  0.10560  Biso   1.000  C
  H138     1.0000 0.73150  0.02310  0.13020  Biso   1.000  H
  C152     1.0000 0.59564  0.92018  0.17510  Biso   1.000  C
  C153     1.0000 0.58754  0.90839  0.28630  Biso   1.000  C
  C154     1.0000 0.55668  0.90758  0.12760  Biso   1.000  C
  C155     1.0000 0.61861  0.91411  0.37440  Biso   1.000  C
  H139     1.0000 0.64720  0.92860  0.34350  Biso   1.000  H
  H140     1.0000 0.61680  0.93100  0.43450  Biso   1.000  H
  H141     1.0000 0.61220  0.88650  0.40290  Biso   1.000  H
  C156     1.0000 0.54499  0.91181  0.01230  Biso   1.000  C
  H142     1.0000 0.57050  0.92580  0.96690  Biso   1.000  H
  H143     1.0000 0.52590  0.88380  0.98210  Biso   1.000  H
  H144     1.0000 0.53090  0.92860  0.01230  Biso   1.000  H
  C157     1.0000 0.41445  0.56735  0.35920  Biso   1.000  C
  C158     1.0000 0.44089  0.61333  0.38710  Biso   1.000  C
  C159     1.0000 0.45007  0.62637  0.49630  Biso   1.000  C
  H145     1.0000 0.44210  0.60610  0.55340  Biso   1.000  H
  C160     1.0000 0.47075  0.66870  0.52210  Biso   1.000  C
  H146     1.0000 0.47720  0.67710  0.59700  Biso   1.000  H
  C161     1.0000 0.48236  0.69935  0.44080  Biso   1.000  C
  C162     1.0000 0.47476  0.68600  0.33120  Biso   1.000  C
  H147     1.0000 0.48360  0.70630  0.27370  Biso   1.000  H
  C163     1.0000 0.45438  0.64339  0.30520  Biso   1.000  C
  H148     1.0000 0.44970  0.63490  0.23010  Biso   1.000  H
  C164     1.0000 0.50065  0.74426  0.46960  Biso   1.000  C
  C165     1.0000 0.53203  0.76747  0.54600  Biso   1.000  C
  C166     1.0000 0.48780  0.77183  0.42810  Biso   1.000  C
  C167     1.0000 0.55801  0.75616  0.61670  Biso   1.000  C
  H149     1.0000 0.54970  0.72660  0.60440  Biso   1.000  H
  H150     1.0000 0.58780  0.77410  0.59780  Biso   1.000  H
  H151     1.0000 0.55360  0.76030  0.69430  Biso   1.000  H
  C168     1.0000 0.45324  0.76401  0.34770  Biso   1.000  C
  H152     1.0000 0.43010  0.76430  0.38710  Biso   1.000  H
  H153     1.0000 0.44290  0.73650  0.31230  Biso   1.000  H
  H154     1.0000 0.46430  0.78620  0.29140  Biso   1.000  H
  Zn8      1.0000 0.18020  0.19803  0.77667  Biso   1.000  Zn
  O29      1.0000 0.42766  0.30520  0.22191  Biso   1.000  O
  O30      1.0000 0.45299  0.36459  0.32179  Biso   1.000  O
  O31      1.0000 0.06522  0.87622  0.77579  Biso   1.000  O
  O32      1.0000 0.07497  0.88958  0.59443  Biso   1.000  O
  N29      1.0000 0.21281  0.22285  0.63900  Biso   1.000  N
  N30      1.0000 0.19450  0.22278  0.54152  Biso   1.000  N
  H155     1.0000 0.16727  0.21223  0.53223  Biso   1.000  H
  N31      1.0000 0.20364  0.13972  0.87989  Biso   1.000  N
  H156     1.0000 0.22207  0.16053  0.92123  Biso   1.000  H
  N32      1.0000 0.17681  0.14302  0.80901  Biso   1.000  N
  C169     1.0000 0.30383  0.27348  0.45333  Biso   1.000  C
  C170     1.0000 0.42488  0.32880  0.29563  Biso   1.000  C
  C171     1.0000 0.38270  0.30943  0.35183  Biso   1.000  C
  C172     1.0000 0.34997  0.27075  0.31583  Biso   1.000  C
  H157     1.0000 0.35447  0.25633  0.25703  Biso   1.000  H
  C173     1.0000 0.31081  0.25329  0.36553  Biso   1.000  C
  H158     1.0000 0.28847  0.22723  0.33953  Biso   1.000  H
  C174     1.0000 0.33692  0.31196  0.49023  Biso   1.000  C
  H159     1.0000 0.33267  0.32593  0.55063  Biso   1.000  H
  C175     1.0000 0.37602  0.33001  0.43893  Biso   1.000  C
  H160     1.0000 0.39817  0.35643  0.46353  Biso   1.000  H
  C176     1.0000 0.26231  0.25351  0.50843  Biso   1.000  C
  C177     1.0000 0.25421  0.24172  0.61963  Biso   1.000  C
  C178     1.0000 0.22335  0.24091  0.46093  Biso   1.000  C
  C179     1.0000 0.28528  0.24744  0.70773  Biso   1.000  C
  H161     1.0000 0.31387  0.26193  0.67683  Biso   1.000  H
  H162     1.0000 0.28347  0.26433  0.76783  Biso   1.000  H
  H163     1.0000 0.27887  0.21983  0.73623  Biso   1.000  H
  C180     1.0000 0.21166  0.24514  0.34563  Biso   1.000  C
  H164     1.0000 0.23717  0.25913  0.30023  Biso   1.000  H
  H165     1.0000 0.19257  0.21713  0.31543  Biso   1.000  H
  H166     1.0000 0.19757  0.26193  0.34563  Biso   1.000  H
  C181     1.0000 0.08112  0.90068  0.69253  Biso   1.000  C
  C182     1.0000 0.10756  0.94666  0.72043  Biso   1.000  C
  C183     1.0000 0.11674  0.95970  0.82963  Biso   1.000  C
  H167     1.0000 0.10877  0.93943  0.88673  Biso   1.000  H
  C184     1.0000 0.13742  0.00203  0.85543  Biso   1.000  C
  H168     1.0000 0.14387  0.01043  0.93033  Biso   1.000  H
  C185     1.0000 0.14903  0.03268  0.77413  Biso   1.000  C
  C186     1.0000 0.14143  0.01933  0.66453  Biso   1.000  C
  H169     1.0000 0.15027  0.03963  0.60703  Biso   1.000  H
  C187     1.0000 0.12105  0.97672  0.63853  Biso   1.000  C
  H170     1.0000 0.11637  0.96823  0.56343  Biso   1.000  H
  C188     1.0000 0.16732  0.07759  0.80293  Biso   1.000  C
  C189     1.0000 0.19870  0.10080  0.87933  Biso   1.000  C
  C190     1.0000 0.15447  0.10516  0.76143  Biso   1.000  C
  C191     1.0000 0.22468  0.08949  0.95003  Biso   1.000  C
  H171     1.0000 0.21637  0.05993  0.93773  Biso   1.000  H
  H172     1.0000 0.25447  0.10743  0.93113  Biso   1.000  H
  H173     1.0000 0.22027  0.09363  0.02763  Biso   1.000  H
  C192     1.0000 0.11991  0.09734  0.68103  Biso   1.000  C
  H174     1.0000 0.09677  0.09763  0.72043  Biso   1.000  H
  H175     1.0000 0.10957  0.06983  0.64563  Biso   1.000  H
  H176     1.0000 0.13097  0.11953  0.62473  Biso   1.000  H
  Zn9      1.0000 0.84686  0.53137  0.11001  Biso   1.000  Zn
  O33      1.0000 0.09432  0.63854  0.55525  Biso   1.000  O
  O34      1.0000 0.11965  0.69793  0.65513  Biso   1.000  O
  O35      1.0000 0.73188  0.20956  0.10913  Biso   1.000  O
  O36      1.0000 0.74163  0.22292  0.92777  Biso   1.000  O
  N33      1.0000 0.87947  0.55619  0.97234  Biso   1.000  N
  N34      1.0000 0.86116  0.55612  0.87486  Biso   1.000  N
  H177     1.0000 0.83393  0.54557  0.86557  Biso   1.000  H
  N35      1.0000 0.87030  0.47306  0.21323  Biso   1.000  N
  H178     1.0000 0.88873  0.49387  0.25457  Biso   1.000  H
  N36      1.0000 0.84347  0.47636  0.14235  Biso   1.000  N
  C193     1.0000 0.97049  0.60682  0.78667  Biso   1.000  C
  C194     1.0000 0.09154  0.66214  0.62897  Biso   1.000  C
  C195     1.0000 0.04936  0.64277  0.68517  Biso   1.000  C
  C196     1.0000 0.01663  0.60409  0.64917  Biso   1.000  C
  H179     1.0000 0.02113  0.58967  0.59037  Biso   1.000  H
  C197     1.0000 0.97747  0.58663  0.69887  Biso   1.000  C
  H180     1.0000 0.95513  0.56057  0.67287  Biso   1.000  H
  C198     1.0000 0.00358  0.64530  0.82357  Biso   1.000  C
  H181     1.0000 0.99933  0.65927  0.88397  Biso   1.000  H
  C199     1.0000 0.04268  0.66335  0.77227  Biso   1.000  C
  H182     1.0000 0.06483  0.68977  0.79687  Biso   1.000  H
  C200     1.0000 0.92897  0.58685  0.84177  Biso   1.000  C
  C201     1.0000 0.92087  0.57506  0.95297  Biso   1.000  C
  C202     1.0000 0.89001  0.57425  0.79427  Biso   1.000  C
  C203     1.0000 0.95194  0.58078  0.04107  Biso   1.000  C
  H183     1.0000 0.98053  0.59527  0.01017  Biso   1.000  H
  H184     1.0000 0.95013  0.59767  0.10117  Biso   1.000  H
  H185     1.0000 0.94553  0.55317  0.06957  Biso   1.000  H
  C204     1.0000 0.87832  0.57848  0.67897  Biso   1.000  C
  H186     1.0000 0.90383  0.59247  0.63357  Biso   1.000  H
  H187     1.0000 0.85923  0.55047  0.64877  Biso   1.000  H
  H188     1.0000 0.86423  0.59527  0.67897  Biso   1.000  H
  C205     1.0000 0.74778  0.23402  0.02587  Biso   1.000  C
  C206     1.0000 0.77422  0.28000  0.05377  Biso   1.000  C
  C207     1.0000 0.78340  0.29304  0.16297  Biso   1.000  C
  H189     1.0000 0.77543  0.27277  0.22007  Biso   1.000  H
  C208     1.0000 0.80408  0.33537  0.18877  Biso   1.000  C
  H190     1.0000 0.81053  0.34377  0.26367  Biso   1.000  H
  C209     1.0000 0.81569  0.36602  0.10747  Biso   1.000  C
  C210     1.0000 0.80809  0.35267  0.99787  Biso   1.000  C
  H191     1.0000 0.81693  0.37297  0.94037  Biso   1.000  H
  C211     1.0000 0.78771  0.31006  0.97187  Biso   1.000  C
  H192     1.0000 0.78303  0.30157  0.89677  Biso   1.000  H
  C212     1.0000 0.83398  0.41093  0.13627  Biso   1.000  C
  C213     1.0000 0.86536  0.43414  0.21267  Biso   1.000  C
  C214     1.0000 0.82113  0.43850  0.09477  Biso   1.000  C
  C215     1.0000 0.89134  0.42283  0.28337  Biso   1.000  C
  H193     1.0000 0.88303  0.39327  0.27107  Biso   1.000  H
  H194     1.0000 0.92113  0.44077  0.26447  Biso   1.000  H
  H195     1.0000 0.88693  0.42697  0.36097  Biso   1.000  H
  C216     1.0000 0.78657  0.43068  0.01437  Biso   1.000  C
  H196     1.0000 0.76343  0.43097  0.05377  Biso   1.000  H
  H197     1.0000 0.77623  0.40317  0.97897  Biso   1.000  H
  H198     1.0000 0.79763  0.45287  0.95807  Biso   1.000  H
  Zn10     1.0000 0.86470  0.35117  0.55666  Biso   1.000  Zn
  O37      1.0000 0.97187  0.21088  0.11142  Biso   1.000  O
  O38      1.0000 0.03126  0.24494  0.01154  Biso   1.000  O
  O39      1.0000 0.54289  0.14434  0.55754  Biso   1.000  O
  O40      1.0000 0.55625  0.14795  0.73890  Biso   1.000  O
  N37      1.0000 0.88952  0.34338  0.69433  Biso   1.000  N
  N38      1.0000 0.88945  0.36162  0.79181  Biso   1.000  N
  H199     1.0000 0.87890  0.37830  0.80110  Biso   1.000  H
  N39      1.0000 0.80639  0.26942  0.45344  Biso   1.000  N
  H200     1.0000 0.82720  0.27180  0.41210  Biso   1.000  H
  N40      1.0000 0.80969  0.29955  0.52432  Biso   1.000  N
  C217     1.0000 0.94015  0.30299  0.88000  Biso   1.000  C
  C218     1.0000 0.99547  0.23726  0.03770  Biso   1.000  C
  C219     1.0000 0.97610  0.26007  0.98150  Biso   1.000  C
  C220     1.0000 0.93742  0.25412  0.01750  Biso   1.000  C
  H201     1.0000 0.92300  0.23520  0.07630  Biso   1.000  H
  C221     1.0000 0.91996  0.27582  0.96780  Biso   1.000  C
  H202     1.0000 0.89390  0.27210  0.99380  Biso   1.000  H
  C222     1.0000 0.97863  0.30838  0.84310  Biso   1.000  C
  H203     1.0000 0.99260  0.32660  0.78270  Biso   1.000  H
  C223     1.0000 0.99668  0.28733  0.89440  Biso   1.000  C
  H204     1.0000 0.02310  0.29160  0.86980  Biso   1.000  H
  C224     1.0000 0.92018  0.32454  0.82490  Biso   1.000  C
  C225     1.0000 0.90839  0.32085  0.71370  Biso   1.000  C
  C226     1.0000 0.90758  0.35090  0.87240  Biso   1.000  C
  C227     1.0000 0.91411  0.29550  0.62560  Biso   1.000  C
  H205     1.0000 0.92860  0.28140  0.65650  Biso   1.000  H
  H206     1.0000 0.93100  0.31420  0.56550  Biso   1.000  H
  H207     1.0000 0.88650  0.27430  0.59710  Biso   1.000  H
  C228     1.0000 0.91181  0.36682  0.98770  Biso   1.000  C
  H208     1.0000 0.92580  0.35530  0.03310  Biso   1.000  H
  H209     1.0000 0.88380  0.35790  0.01790  Biso   1.000  H
  H210     1.0000 0.92860  0.39770  0.98770  Biso   1.000  H
  C229     1.0000 0.56735  0.15290  0.64080  Biso   1.000  C
  C230     1.0000 0.61333  0.17244  0.61290  Biso   1.000  C
  C231     1.0000 0.62637  0.17630  0.50370  Biso   1.000  C
  H211     1.0000 0.60610  0.16400  0.44660  Biso   1.000  H
  C232     1.0000 0.66870  0.19795  0.47790  Biso   1.000  C
  H212     1.0000 0.67710  0.19990  0.40300  Biso   1.000  H
  C233     1.0000 0.69935  0.21699  0.55920  Biso   1.000  C
  C234     1.0000 0.68600  0.21124  0.66880  Biso   1.000  C
  H213     1.0000 0.70630  0.22270  0.72630  Biso   1.000  H
  C235     1.0000 0.64339  0.18901  0.69480  Biso   1.000  C
  H214     1.0000 0.63490  0.18520  0.76990  Biso   1.000  H
  C236     1.0000 0.74426  0.24361  0.53040  Biso   1.000  C
  C237     1.0000 0.76747  0.23544  0.45400  Biso   1.000  C
  C238     1.0000 0.77183  0.28403  0.57190  Biso   1.000  C
  C239     1.0000 0.75616  0.19815  0.38330  Biso   1.000  C
  H215     1.0000 0.72660  0.17690  0.39560  Biso   1.000  H
  H216     1.0000 0.77410  0.18630  0.40220  Biso   1.000  H
  H217     1.0000 0.76030  0.20670  0.30570  Biso   1.000  H
  C240     1.0000 0.76401  0.31077  0.65230  Biso   1.000  C
  H218     1.0000 0.76430  0.33420  0.61290  Biso   1.000  H
  H219     1.0000 0.73650  0.29360  0.68770  Biso   1.000  H
  H220     1.0000 0.78620  0.32190  0.70860  Biso   1.000  H
  Zn11     1.0000 0.53137  0.68450  0.88999  Biso   1.000  Zn
  O41      1.0000 0.63854  0.54421  0.44475  Biso   1.000  O
  O42      1.0000 0.69793  0.57827  0.34487  Biso   1.000  O
  O43      1.0000 0.20956  0.47767  0.89087  Biso   1.000  O
  O44      1.0000 0.22292  0.48128  0.07223  Biso   1.000  O
  N41      1.0000 0.55619  0.67671  0.02766  Biso   1.000  N
  N42      1.0000 0.55612  0.69495  0.12514  Biso   1.000  N
  H221     1.0000 0.54557  0.71163  0.13443  Biso   1.000  H
  N43      1.0000 0.47306  0.60275  0.78677  Biso   1.000  N
  H222     1.0000 0.49387  0.60513  0.74543  Biso   1.000  H
  N44      1.0000 0.47636  0.63288  0.85765  Biso   1.000  N
  C241     1.0000 0.60682  0.63632  0.21333  Biso   1.000  C
  C242     1.0000 0.66214  0.57059  0.37103  Biso   1.000  C
  C243     1.0000 0.64277  0.59340  0.31483  Biso   1.000  C
  C244     1.0000 0.60409  0.58745  0.35083  Biso   1.000  C
  H223     1.0000 0.58967  0.56853  0.40963  Biso   1.000  H
  C245     1.0000 0.58663  0.60915  0.30113  Biso   1.000  C
  H224     1.0000 0.56057  0.60543  0.32713  Biso   1.000  H
  C246     1.0000 0.64530  0.64171  0.17643  Biso   1.000  C
  H225     1.0000 0.65927  0.65993  0.11603  Biso   1.000  H
  C247     1.0000 0.66335  0.62066  0.22773  Biso   1.000  C
  H226     1.0000 0.68977  0.62493  0.20313  Biso   1.000  H
  C248     1.0000 0.58685  0.65787  0.15823  Biso   1.000  C
  C249     1.0000 0.57506  0.65418  0.04703  Biso   1.000  C
  C250     1.0000 0.57425  0.68423  0.20573  Biso   1.000  C
  C251     1.0000 0.58078  0.62883  0.95893  Biso   1.000  C
  H227     1.0000 0.59527  0.61473  0.98983  Biso   1.000  H
  H228     1.0000 0.59767  0.64753  0.89883  Biso   1.000  H
  H229     1.0000 0.55317  0.60763  0.93043  Biso   1.000  H
  C252     1.0000 0.57848  0.70015  0.32103  Biso   1.000  C
  H230     1.0000 0.59247  0.68863  0.36643  Biso   1.000  H
  H231     1.0000 0.55047  0.69123  0.35123  Biso   1.000  H
  H232     1.0000 0.59527  0.73103  0.32103  Biso   1.000  H
  C253     1.0000 0.23402  0.48623  0.97413  Biso   1.000  C
  C254     1.0000 0.28000  0.50577  0.94623  Biso   1.000  C
  C255     1.0000 0.29304  0.50963  0.83703  Biso   1.000  C
  H233     1.0000 0.27277  0.49733  0.77993  Biso   1.000  H
  C256     1.0000 0.33537  0.53128  0.81123  Biso   1.000  C
  H234     1.0000 0.34377  0.53323  0.73633  Biso   1.000  H
  C257     1.0000 0.36602  0.55032  0.89253  Biso   1.000  C
  C258     1.0000 0.35267  0.54457  0.00213  Biso   1.000  C
  H235     1.0000 0.37297  0.55603  0.05963  Biso   1.000  H
  C259     1.0000 0.31006  0.52234  0.02813  Biso   1.000  C
  H236     1.0000 0.30157  0.51853  0.10323  Biso   1.000  H
  C260     1.0000 0.41093  0.57694  0.86373  Biso   1.000  C
  C261     1.0000 0.43414  0.56877  0.78733  Biso   1.000  C
  C262     1.0000 0.43850  0.61736  0.90523  Biso   1.000  C
  C263     1.0000 0.42283  0.53148  0.71663  Biso   1.000  C
  H237     1.0000 0.39327  0.51023  0.72893  Biso   1.000  H
  H238     1.0000 0.44077  0.51963  0.73553  Biso   1.000  H
  H239     1.0000 0.42697  0.54003  0.63903  Biso   1.000  H
  C264     1.0000 0.43068  0.64410  0.98563  Biso   1.000  C
  H240     1.0000 0.43097  0.66753  0.94623  Biso   1.000  H
  H241     1.0000 0.40317  0.62693  0.02103  Biso   1.000  H
  H242     1.0000 0.45287  0.65523  0.04193  Biso   1.000  H
  Zn12     1.0000 0.19803  0.01784  0.22333  Biso   1.000  Zn
  O45      1.0000 0.30520  0.87755  0.77809  Biso   1.000  O
  O46      1.0000 0.36459  0.91161  0.67821  Biso   1.000  O
  O47      1.0000 0.87622  0.81101  0.22421  Biso   1.000  O
  O48      1.0000 0.88958  0.81462  0.40557  Biso   1.000  O
  N45      1.0000 0.22285  0.01005  0.36100  Biso   1.000  N
  N46      1.0000 0.22278  0.02829  0.45848  Biso   1.000  N
  H243     1.0000 0.21223  0.04497  0.46777  Biso   1.000  H
  N47      1.0000 0.13972  0.93609  0.12011  Biso   1.000  N
  H244     1.0000 0.16053  0.93847  0.07877  Biso   1.000  H
  N48      1.0000 0.14302  0.96622  0.19099  Biso   1.000  N
  C265     1.0000 0.27348  0.96966  0.54667  Biso   1.000  C
  C266     1.0000 0.32880  0.90393  0.70437  Biso   1.000  C
  C267     1.0000 0.30943  0.92674  0.64817  Biso   1.000  C
  C268     1.0000 0.27075  0.92079  0.68417  Biso   1.000  C
  H245     1.0000 0.25633  0.90187  0.74297  Biso   1.000  H
  C269     1.0000 0.25329  0.94249  0.63447  Biso   1.000  C
  H246     1.0000 0.22723  0.93877  0.66047  Biso   1.000  H
  C270     1.0000 0.31196  0.97505  0.50977  Biso   1.000  C
  H247     1.0000 0.32593  0.99327  0.44937  Biso   1.000  H
  C271     1.0000 0.33001  0.95400  0.56107  Biso   1.000  C
  H248     1.0000 0.35643  0.95827  0.53647  Biso   1.000  H
  C272     1.0000 0.25351  0.99121  0.49157  Biso   1.000  C
  C273     1.0000 0.24172  0.98752  0.38037  Biso   1.000  C
  C274     1.0000 0.24091  0.01757  0.53907  Biso   1.000  C
  C275     1.0000 0.24744  0.96217  0.29227  Biso   1.000  C
  H249     1.0000 0.26193  0.94807  0.32317  Biso   1.000  H
  H250     1.0000 0.26433  0.98087  0.23217  Biso   1.000  H
  H251     1.0000 0.21983  0.94097  0.26377  Biso   1.000  H
  C276     1.0000 0.24514  0.03349  0.65437  Biso   1.000  C
  H252     1.0000 0.25913  0.02197  0.69977  Biso   1.000  H
  H253     1.0000 0.21713  0.02457  0.68457  Biso   1.000  H
  H254     1.0000 0.26193  0.06437  0.65437  Biso   1.000  H
  C277     1.0000 0.90068  0.81957  0.30747  Biso   1.000  C
  C278     1.0000 0.94666  0.83911  0.27957  Biso   1.000  C
  C279     1.0000 0.95970  0.84297  0.17037  Biso   1.000  C
  H255     1.0000 0.93943  0.83067  0.11327  Biso   1.000  H
  C280     1.0000 0.00203  0.86462  0.14457  Biso   1.000  C
  H256     1.0000 0.01043  0.86657  0.06967  Biso   1.000  H
  C281     1.0000 0.03268  0.88366  0.22587  Biso   1.000  C
  C282     1.0000 0.01933  0.87791  0.33547  Biso   1.000  C
  H257     1.0000 0.03963  0.88937  0.39297  Biso   1.000  H
  C283     1.0000 0.97672  0.85568  0.36147  Biso   1.000  C
  H258     1.0000 0.96823  0.85187  0.43657  Biso   1.000  H
  C284     1.0000 0.07759  0.91028  0.19707  Biso   1.000  C
  C285     1.0000 0.10080  0.90211  0.12067  Biso   1.000  C
  C286     1.0000 0.10516  0.95070  0.23857  Biso   1.000  C
  C287     1.0000 0.08949  0.86482  0.04997  Biso   1.000  C
  H259     1.0000 0.05993  0.84357  0.06227  Biso   1.000  H
  H260     1.0000 0.10743  0.85297  0.06887  Biso   1.000  H
  H261     1.0000 0.09363  0.87337  0.97237  Biso   1.000  H
  C288     1.0000 0.09734  0.97744  0.31897  Biso   1.000  C
  H262     1.0000 0.09763  0.00087  0.27957  Biso   1.000  H
  H263     1.0000 0.06983  0.96027  0.35437  Biso   1.000  H
  H264     1.0000 0.11953  0.98857  0.37527  Biso   1.000  H
  Zn13     1.0000 0.64883  0.51353  0.55666  Biso   1.000  Zn
  O49      1.0000 0.78912  0.76099  0.11142  Biso   1.000  O
  O50      1.0000 0.75506  0.78632  0.01154  Biso   1.000  O
  O51      1.0000 0.85566  0.39855  0.55754  Biso   1.000  O
  O52      1.0000 0.85205  0.40830  0.73890  Biso   1.000  O
  N49      1.0000 0.65662  0.54614  0.69433  Biso   1.000  N
  N50      1.0000 0.63838  0.52783  0.79181  Biso   1.000  N
  H265     1.0000 0.62170  0.50060  0.80110  Biso   1.000  H
  N51      1.0000 0.73058  0.53697  0.45344  Biso   1.000  N
  H266     1.0000 0.72820  0.55540  0.41210  Biso   1.000  H
  N52      1.0000 0.70045  0.51014  0.52432  Biso   1.000  N
  C289     1.0000 0.69701  0.63716  0.88000  Biso   1.000  C
  C290     1.0000 0.76274  0.75821  0.03770  Biso   1.000  C
  C291     1.0000 0.73993  0.71603  0.98150  Biso   1.000  C
  C292     1.0000 0.74588  0.68330  0.01750  Biso   1.000  C
  H267     1.0000 0.76480  0.68780  0.07630  Biso   1.000  H
  C293     1.0000 0.72418  0.64414  0.96780  Biso   1.000  C
  H268     1.0000 0.72790  0.62180  0.99380  Biso   1.000  H
  C294     1.0000 0.69162  0.67025  0.84310  Biso   1.000  C
  H269     1.0000 0.67340  0.66600  0.78270  Biso   1.000  H
  C295     1.0000 0.71267  0.70935  0.89440  Biso   1.000  C
  H270     1.0000 0.70840  0.73150  0.86980  Biso   1.000  H
  C296     1.0000 0.67546  0.59564  0.82490  Biso   1.000  C
  C297     1.0000 0.67915  0.58754  0.71370  Biso   1.000  C
  C298     1.0000 0.64910  0.55668  0.87240  Biso   1.000  C
  C299     1.0000 0.70450  0.61861  0.62560  Biso   1.000  C
  H271     1.0000 0.71860  0.64720  0.65650  Biso   1.000  H
  H272     1.0000 0.68580  0.61680  0.56550  Biso   1.000  H
  H273     1.0000 0.72570  0.61220  0.59710  Biso   1.000  H
  C300     1.0000 0.63318  0.54499  0.98770  Biso   1.000  C
  H274     1.0000 0.64470  0.57050  0.03310  Biso   1.000  H
  H275     1.0000 0.64210  0.52590  0.01790  Biso   1.000  H
  H276     1.0000 0.60230  0.53090  0.98770  Biso   1.000  H
  C301     1.0000 0.84710  0.41445  0.64080  Biso   1.000  C
  C302     1.0000 0.82756  0.44089  0.61290  Biso   1.000  C
  C303     1.0000 0.82370  0.45007  0.50370  Biso   1.000  C
  H277     1.0000 0.83600  0.44210  0.44660  Biso   1.000  H
  C304     1.0000 0.80205  0.47075  0.47790  Biso   1.000  C
  H278     1.0000 0.80010  0.47720  0.40300  Biso   1.000  H
  C305     1.0000 0.78301  0.48236  0.55920  Biso   1.000  C
  C306     1.0000 0.78876  0.47476  0.66880  Biso   1.000  C
  H279     1.0000 0.77730  0.48360  0.72630  Biso   1.000  H
  C307     1.0000 0.81099  0.45438  0.69480  Biso   1.000  C
  H280     1.0000 0.81480  0.44970  0.76990  Biso   1.000  H
  C308     1.0000 0.75639  0.50065  0.53040  Biso   1.000  C
  C309     1.0000 0.76456  0.53203  0.45400  Biso   1.000  C
  C310     1.0000 0.71597  0.48780  0.57190  Biso   1.000  C
  C311     1.0000 0.80185  0.55801  0.38330  Biso   1.000  C
  H281     1.0000 0.82310  0.54970  0.39560  Biso   1.000  H
  H282     1.0000 0.81370  0.58780  0.40220  Biso   1.000  H
  H283     1.0000 0.79330  0.55360  0.30570  Biso   1.000  H
  C312     1.0000 0.68923  0.45324  0.65230  Biso   1.000  C
  H284     1.0000 0.66580  0.43010  0.61290  Biso   1.000  H
  H285     1.0000 0.70640  0.44290  0.68770  Biso   1.000  H
  H286     1.0000 0.67810  0.46430  0.70860  Biso   1.000  H
  Zn14     1.0000 0.31550  0.84686  0.88999  Biso   1.000  Zn
  O53      1.0000 0.45579  0.09432  0.44475  Biso   1.000  O
  O54      1.0000 0.42173  0.11965  0.34487  Biso   1.000  O
  O55      1.0000 0.52233  0.73188  0.89087  Biso   1.000  O
  O56      1.0000 0.51872  0.74163  0.07223  Biso   1.000  O
  N53      1.0000 0.32329  0.87947  0.02766  Biso   1.000  N
  N54      1.0000 0.30505  0.86116  0.12514  Biso   1.000  N
  H287     1.0000 0.28837  0.83393  0.13443  Biso   1.000  H
  N55      1.0000 0.39725  0.87030  0.78677  Biso   1.000  N
  H288     1.0000 0.39487  0.88873  0.74543  Biso   1.000  H
  N56      1.0000 0.36712  0.84347  0.85765  Biso   1.000  N
  C313     1.0000 0.36368  0.97049  0.21333  Biso   1.000  C
  C314     1.0000 0.42941  0.09154  0.37103  Biso   1.000  C
  C315     1.0000 0.40660  0.04936  0.31483  Biso   1.000  C
  C316     1.0000 0.41255  0.01663  0.35083  Biso   1.000  C
  H289     1.0000 0.43147  0.02113  0.40963  Biso   1.000  H
  C317     1.0000 0.39085  0.97747  0.30113  Biso   1.000  C
  H290     1.0000 0.39457  0.95513  0.32713  Biso   1.000  H
  C318     1.0000 0.35829  0.00358  0.17643  Biso   1.000  C
  H291     1.0000 0.34007  0.99933  0.11603  Biso   1.000  H
  C319     1.0000 0.37934  0.04268  0.22773  Biso   1.000  C
  H292     1.0000 0.37507  0.06483  0.20313  Biso   1.000  H
  C320     1.0000 0.34213  0.92897  0.15823  Biso   1.000  C
  C321     1.0000 0.34582  0.92087  0.04703  Biso   1.000  C
  C322     1.0000 0.31577  0.89001  0.20573  Biso   1.000  C
  C323     1.0000 0.37117  0.95194  0.95893  Biso   1.000  C
  H293     1.0000 0.38527  0.98053  0.98983  Biso   1.000  H
  H294     1.0000 0.35247  0.95013  0.89883  Biso   1.000  H
  H295     1.0000 0.39237  0.94553  0.93043  Biso   1.000  H
  C324     1.0000 0.29985  0.87832  0.32103  Biso   1.000  C
  H296     1.0000 0.31137  0.90383  0.36643  Biso   1.000  H
  H297     1.0000 0.30877  0.85923  0.35123  Biso   1.000  H
  H298     1.0000 0.26897  0.86423  0.32103  Biso   1.000  H
  C325     1.0000 0.51377  0.74778  0.97413  Biso   1.000  C
  C326     1.0000 0.49423  0.77422  0.94623  Biso   1.000  C
  C327     1.0000 0.49037  0.78340  0.83703  Biso   1.000  C
  H299     1.0000 0.50267  0.77543  0.77993  Biso   1.000  H
  C328     1.0000 0.46872  0.80408  0.81123  Biso   1.000  C
  H300     1.0000 0.46677  0.81053  0.73633  Biso   1.000  H
  C329     1.0000 0.44968  0.81569  0.89253  Biso   1.000  C
  C330     1.0000 0.45543  0.80809  0.00213  Biso   1.000  C
  H301     1.0000 0.44397  0.81693  0.05963  Biso   1.000  H
  C331     1.0000 0.47766  0.78771  0.02813  Biso   1.000  C
  H302     1.0000 0.48147  0.78303  0.10323  Biso   1.000  H
  C332     1.0000 0.42306  0.83398  0.86373  Biso   1.000  C
  C333     1.0000 0.43123  0.86536  0.78733  Biso   1.000  C
  C334     1.0000 0.38264  0.82113  0.90523  Biso   1.000  C
  C335     1.0000 0.46852  0.89134  0.71663  Biso   1.000  C
  H303     1.0000 0.48977  0.88303  0.72893  Biso   1.000  H
  H304     1.0000 0.48037  0.92113  0.73553  Biso   1.000  H
  H305     1.0000 0.45997  0.88693  0.63903  Biso   1.000  H
  C336     1.0000 0.35590  0.78657  0.98563  Biso   1.000  C
  H306     1.0000 0.33247  0.76343  0.94623  Biso   1.000  H
  H307     1.0000 0.37307  0.77623  0.02103  Biso   1.000  H
  H308     1.0000 0.34477  0.79763  0.04193  Biso   1.000  H
  Zn15     1.0000 0.98216  0.18020  0.22333  Biso   1.000  Zn
  O57      1.0000 0.12245  0.42766  0.77809  Biso   1.000  O
  O58      1.0000 0.08839  0.45299  0.67821  Biso   1.000  O
  O59      1.0000 0.18899  0.06522  0.22421  Biso   1.000  O
  O60      1.0000 0.18538  0.07497  0.40557  Biso   1.000  O
  N57      1.0000 0.98995  0.21281  0.36100  Biso   1.000  N
  N58      1.0000 0.97171  0.19450  0.45848  Biso   1.000  N
  H309     1.0000 0.95503  0.16727  0.46777  Biso   1.000  H
  N59      1.0000 0.06391  0.20364  0.12011  Biso   1.000  N
  H310     1.0000 0.06153  0.22207  0.07877  Biso   1.000  H
  N60      1.0000 0.03378  0.17681  0.19099  Biso   1.000  N
  C337     1.0000 0.03034  0.30383  0.54667  Biso   1.000  C
  C338     1.0000 0.09607  0.42488  0.70437  Biso   1.000  C
  C339     1.0000 0.07326  0.38270  0.64817  Biso   1.000  C
  C340     1.0000 0.07921  0.34997  0.68417  Biso   1.000  C
  H311     1.0000 0.09813  0.35447  0.74297  Biso   1.000  H
  C341     1.0000 0.05751  0.31081  0.63447  Biso   1.000  C
  H312     1.0000 0.06123  0.28847  0.66047  Biso   1.000  H
  C342     1.0000 0.02495  0.33692  0.50977  Biso   1.000  C
  H313     1.0000 0.00673  0.33267  0.44937  Biso   1.000  H
  C343     1.0000 0.04600  0.37602  0.56107  Biso   1.000  C
  H314     1.0000 0.04173  0.39817  0.53647  Biso   1.000  H
  C344     1.0000 0.00879  0.26231  0.49157  Biso   1.000  C
  C345     1.0000 0.01248  0.25421  0.38037  Biso   1.000  C
  C346     1.0000 0.98243  0.22335  0.53907  Biso   1.000  C
  C347     1.0000 0.03783  0.28528  0.29227  Biso   1.000  C
  H315     1.0000 0.05193  0.31387  0.32317  Biso   1.000  H
  H316     1.0000 0.01913  0.28347  0.23217  Biso   1.000  H
  H317     1.0000 0.05903  0.27887  0.26377  Biso   1.000  H
  C348     1.0000 0.96651  0.21166  0.65437  Biso   1.000  C
  H318     1.0000 0.97803  0.23717  0.69977  Biso   1.000  H
  H319     1.0000 0.97543  0.19257  0.68457  Biso   1.000  H
  H320     1.0000 0.93563  0.19757  0.65437  Biso   1.000  H
  C349     1.0000 0.18043  0.08112  0.30747  Biso   1.000  C
  C350     1.0000 0.16089  0.10756  0.27957  Biso   1.000  C
  C351     1.0000 0.15703  0.11674  0.17037  Biso   1.000  C
  H321     1.0000 0.16933  0.10877  0.11327  Biso   1.000  H
  C352     1.0000 0.13538  0.13742  0.14457  Biso   1.000  C
  H322     1.0000 0.13343  0.14387  0.06967  Biso   1.000  H
  C353     1.0000 0.11634  0.14903  0.22587  Biso   1.000  C
  C354     1.0000 0.12209  0.14143  0.33547  Biso   1.000  C
  H323     1.0000 0.11063  0.15027  0.39297  Biso   1.000  H
  C355     1.0000 0.14432  0.12105  0.36147  Biso   1.000  C
  H324     1.0000 0.14813  0.11637  0.43657  Biso   1.000  H
  C356     1.0000 0.08972  0.16732  0.19707  Biso   1.000  C
  C357     1.0000 0.09789  0.19870  0.12067  Biso   1.000  C
  C358     1.0000 0.04930  0.15447  0.23857  Biso   1.000  C
  C359     1.0000 0.13518  0.22468  0.04997  Biso   1.000  C
  H325     1.0000 0.15643  0.21637  0.06227  Biso   1.000  H
  H326     1.0000 0.14703  0.25447  0.06887  Biso   1.000  H
  H327     1.0000 0.12663  0.22027  0.97237  Biso   1.000  H
  C360     1.0000 0.02256  0.11991  0.31897  Biso   1.000  C
  H328     1.0000 0.99913  0.09677  0.27957  Biso   1.000  H
  H329     1.0000 0.03973  0.10957  0.35437  Biso   1.000  H
  H330     1.0000 0.01143  0.13097  0.37527  Biso   1.000  H
  Zn16     1.0000 0.48647  0.13530  0.55666  Biso   1.000  Zn
  O61      1.0000 0.23901  0.02813  0.11142  Biso   1.000  O
  O62      1.0000 0.21368  0.96874  0.01154  Biso   1.000  O
  O63      1.0000 0.60145  0.45711  0.55754  Biso   1.000  O
  O64      1.0000 0.59170  0.44375  0.73890  Biso   1.000  O
  N61      1.0000 0.45386  0.11048  0.69433  Biso   1.000  N
  N62      1.0000 0.47217  0.11055  0.79181  Biso   1.000  N
  H331     1.0000 0.49940  0.12110  0.80110  Biso   1.000  H
  N63      1.0000 0.46303  0.19361  0.45344  Biso   1.000  N
  H332     1.0000 0.44460  0.17280  0.41210  Biso   1.000  H
  N64      1.0000 0.48986  0.19031  0.52432  Biso   1.000  N
  C361     1.0000 0.36284  0.05985  0.88000  Biso   1.000  C
  C362     1.0000 0.24179  0.00453  0.03770  Biso   1.000  C
  C363     1.0000 0.28397  0.02390  0.98150  Biso   1.000  C
  C364     1.0000 0.31670  0.06258  0.01750  Biso   1.000  C
  H333     1.0000 0.31220  0.07700  0.07630  Biso   1.000  H
  C365     1.0000 0.35586  0.08004  0.96780  Biso   1.000  C
  H334     1.0000 0.37820  0.10610  0.99380  Biso   1.000  H
  C366     1.0000 0.32975  0.02137  0.84310  Biso   1.000  C
  H335     1.0000 0.33400  0.00740  0.78270  Biso   1.000  H
  C367     1.0000 0.29065  0.00332  0.89440  Biso   1.000  C
  H336     1.0000 0.26850  0.97690  0.86980  Biso   1.000  H
  C368     1.0000 0.40436  0.07982  0.82490  Biso   1.000  C
  C369     1.0000 0.41246  0.09161  0.71370  Biso   1.000  C
  C370     1.0000 0.44332  0.09242  0.87240  Biso   1.000  C
  C371     1.0000 0.38139  0.08589  0.62560  Biso   1.000  C
  H337     1.0000 0.35280  0.07140  0.65650  Biso   1.000  H
  H338     1.0000 0.38320  0.06900  0.56550  Biso   1.000  H
  H339     1.0000 0.38780  0.11350  0.59710  Biso   1.000  H
  C372     1.0000 0.45501  0.08819  0.98770  Biso   1.000  C
  H340     1.0000 0.42950  0.07420  0.03310  Biso   1.000  H
  H341     1.0000 0.47410  0.11620  0.01790  Biso   1.000  H
  H342     1.0000 0.46910  0.07140  0.98770  Biso   1.000  H
  C373     1.0000 0.58555  0.43265  0.64080  Biso   1.000  C
  C374     1.0000 0.55911  0.38667  0.61290  Biso   1.000  C
  C375     1.0000 0.54993  0.37363  0.50370  Biso   1.000  C
  H343     1.0000 0.55790  0.39390  0.44660  Biso   1.000  H
  C376     1.0000 0.52925  0.33130  0.47790  Biso   1.000  C
  H344     1.0000 0.52280  0.32290  0.40300  Biso   1.000  H
  C377     1.0000 0.51764  0.30065  0.55920  Biso   1.000  C
  C378     1.0000 0.52524  0.31400  0.66880  Biso   1.000  C
  H345     1.0000 0.51640  0.29370  0.72630  Biso   1.000  H
  C379     1.0000 0.54562  0.35661  0.69480  Biso   1.000  C
  H346     1.0000 0.55030  0.36510  0.76990  Biso   1.000  H
  C380     1.0000 0.49935  0.25574  0.53040  Biso   1.000  C
  C381     1.0000 0.46797  0.23253  0.45400  Biso   1.000  C
  C382     1.0000 0.51220  0.22817  0.57190  Biso   1.000  C
  C383     1.0000 0.44199  0.24384  0.38330  Biso   1.000  C
  H347     1.0000 0.45030  0.27340  0.39560  Biso   1.000  H
  H348     1.0000 0.41220  0.22590  0.40220  Biso   1.000  H
  H349     1.0000 0.44640  0.23970  0.30570  Biso   1.000  H
  C384     1.0000 0.54676  0.23599  0.65230  Biso   1.000  C
  H350     1.0000 0.56990  0.23570  0.61290  Biso   1.000  H
  H351     1.0000 0.55710  0.26350  0.68770  Biso   1.000  H
  H352     1.0000 0.53570  0.21380  0.70860  Biso   1.000  H
  Zn17     1.0000 0.15314  0.46863  0.88999  Biso   1.000  Zn
  O65      1.0000 0.90568  0.36146  0.44475  Biso   1.000  O
  O66      1.0000 0.88035  0.30207  0.34487  Biso   1.000  O
  O67      1.0000 0.26812  0.79044  0.89087  Biso   1.000  O
  O68      1.0000 0.25837  0.77708  0.07223  Biso   1.000  O
  N65      1.0000 0.12053  0.44381  0.02766  Biso   1.000  N
  N66      1.0000 0.13884  0.44388  0.12514  Biso   1.000  N
  H353     1.0000 0.16607  0.45443  0.13443  Biso   1.000  H
  N67      1.0000 0.12970  0.52694  0.78677  Biso   1.000  N
  H354     1.0000 0.11127  0.50613  0.74543  Biso   1.000  H
  N68      1.0000 0.15653  0.52364  0.85765  Biso   1.000  N
  C385     1.0000 0.02951  0.39318  0.21333  Biso   1.000  C
  C386     1.0000 0.90846  0.33786  0.37103  Biso   1.000  C
  C387     1.0000 0.95064  0.35723  0.31483  Biso   1.000  C
  C388     1.0000 0.98337  0.39591  0.35083  Biso   1.000  C
  H355     1.0000 0.97887  0.41033  0.40963  Biso   1.000  H
  C389     1.0000 0.02253  0.41337  0.30113  Biso   1.000  C
  H356     1.0000 0.04487  0.43943  0.32713  Biso   1.000  H
  C390     1.0000 0.99642  0.35470  0.17643  Biso   1.000  C
  H357     1.0000 0.00067  0.34073  0.11603  Biso   1.000  H
  C391     1.0000 0.95732  0.33665  0.22773  Biso   1.000  C
  H358     1.0000 0.93517  0.31023  0.20313  Biso   1.000  H
  C392     1.0000 0.07103  0.41315  0.15823  Biso   1.000  C
  C393     1.0000 0.07913  0.42494  0.04703  Biso   1.000  C
  C394     1.0000 0.10999  0.42575  0.20573  Biso   1.000  C
  C395     1.0000 0.04806  0.41922  0.95893  Biso   1.000  C
  H359     1.0000 0.01947  0.40473  0.98983  Biso   1.000  H
  H360     1.0000 0.04987  0.40233  0.89883  Biso   1.000  H
  H361     1.0000 0.05447  0.44683  0.93043  Biso   1.000  H
  C396     1.0000 0.12168  0.42152  0.32103  Biso   1.000  C
  H362     1.0000 0.09617  0.40753  0.36643  Biso   1.000  H
  H363     1.0000 0.14077  0.44953  0.35123  Biso   1.000  H
  H364     1.0000 0.13577  0.40473  0.32103  Biso   1.000  H
  C397     1.0000 0.25222  0.76598  0.97413  Biso   1.000  C
  C398     1.0000 0.22578  0.72000  0.94623  Biso   1.000  C
  C399     1.0000 0.21660  0.70696  0.83703  Biso   1.000  C
  H365     1.0000 0.22457  0.72723  0.77993  Biso   1.000  H
  C400     1.0000 0.19592  0.66463  0.81123  Biso   1.000  C
  H366     1.0000 0.18947  0.65623  0.73633  Biso   1.000  H
  C401     1.0000 0.18431  0.63398  0.89253  Biso   1.000  C
  C402     1.0000 0.19191  0.64733  0.00213  Biso   1.000  C
  H367     1.0000 0.18307  0.62703  0.05963  Biso   1.000  H
  C403     1.0000 0.21229  0.68994  0.02813  Biso   1.000  C
  H368     1.0000 0.21697  0.69843  0.10323  Biso   1.000  H
  C404     1.0000 0.16602  0.58907  0.86373  Biso   1.000  C
  C405     1.0000 0.13464  0.56586  0.78733  Biso   1.000  C
  C406     1.0000 0.17887  0.56150  0.90523  Biso   1.000  C
  C407     1.0000 0.10866  0.57717  0.71663  Biso   1.000  C
  H369     1.0000 0.11697  0.60673  0.72893  Biso   1.000  H
  H370     1.0000 0.07887  0.55923  0.73553  Biso   1.000  H
  H371     1.0000 0.11307  0.57303  0.63903  Biso   1.000  H
  C408     1.0000 0.21343  0.56932  0.98563  Biso   1.000  C
  H372     1.0000 0.23657  0.56903  0.94623  Biso   1.000  H
  H373     1.0000 0.22377  0.59683  0.02103  Biso   1.000  H
  H374     1.0000 0.20237  0.54713  0.04193  Biso   1.000  H
  Zn18     1.0000 0.81980  0.80197  0.22333  Biso   1.000  Zn
  O69      1.0000 0.57234  0.69480  0.77809  Biso   1.000  O
  O70      1.0000 0.54701  0.63541  0.67821  Biso   1.000  O
  O71      1.0000 0.93478  0.12378  0.22421  Biso   1.000  O
  O72      1.0000 0.92503  0.11042  0.40557  Biso   1.000  O
  N69      1.0000 0.78719  0.77715  0.36100  Biso   1.000  N
  N70      1.0000 0.80550  0.77722  0.45848  Biso   1.000  N
  H375     1.0000 0.83273  0.78777  0.46777  Biso   1.000  H
  N71      1.0000 0.79636  0.86028  0.12011  Biso   1.000  N
  H376     1.0000 0.77793  0.83947  0.07877  Biso   1.000  H
  N72      1.0000 0.82319  0.85698  0.19099  Biso   1.000  N
  C409     1.0000 0.69617  0.72652  0.54667  Biso   1.000  C
  C410     1.0000 0.57512  0.67120  0.70437  Biso   1.000  C
  C411     1.0000 0.61730  0.69057  0.64817  Biso   1.000  C
  C412     1.0000 0.65003  0.72925  0.68417  Biso   1.000  C
  H377     1.0000 0.64553  0.74367  0.74297  Biso   1.000  H
  C413     1.0000 0.68919  0.74671  0.63447  Biso   1.000  C
  H378     1.0000 0.71153  0.77277  0.66047  Biso   1.000  H
  C414     1.0000 0.66308  0.68804  0.50977  Biso   1.000  C
  H379     1.0000 0.66733  0.67407  0.44937  Biso   1.000  H
  C415     1.0000 0.62398  0.66999  0.56107  Biso   1.000  C
  H380     1.0000 0.60183  0.64357  0.53647  Biso   1.000  H
  C416     1.0000 0.73769  0.74649  0.49157  Biso   1.000  C
  C417     1.0000 0.74579  0.75828  0.38037  Biso   1.000  C
  C418     1.0000 0.77665  0.75909  0.53907  Biso   1.000  C
  C419     1.0000 0.71472  0.75256  0.29227  Biso   1.000  C
  H381     1.0000 0.68613  0.73807  0.32317  Biso   1.000  H
  H382     1.0000 0.71653  0.73567  0.23217  Biso   1.000  H
  H383     1.0000 0.72113  0.78017  0.26377  Biso   1.000  H
  C420     1.0000 0.78834  0.75486  0.65437  Biso   1.000  C
  H384     1.0000 0.76283  0.74087  0.69977  Biso   1.000  H
  H385     1.0000 0.80743  0.78287  0.68457  Biso   1.000  H
  H386     1.0000 0.80243  0.73807  0.65437  Biso   1.000  H
  C421     1.0000 0.91888  0.09932  0.30747  Biso   1.000  C
  C422     1.0000 0.89244  0.05334  0.27957  Biso   1.000  C
  C423     1.0000 0.88326  0.04030  0.17037  Biso   1.000  C
  H387     1.0000 0.89123  0.06057  0.11327  Biso   1.000  H
  C424     1.0000 0.86258  0.99797  0.14457  Biso   1.000  C
  H388     1.0000 0.85613  0.98957  0.06967  Biso   1.000  H
  C425     1.0000 0.85097  0.96732  0.22587  Biso   1.000  C
  C426     1.0000 0.85857  0.98067  0.33547  Biso   1.000  C
  H389     1.0000 0.84973  0.96037  0.39297  Biso   1.000  H
  C427     1.0000 0.87895  0.02328  0.36147  Biso   1.000  C
  H390     1.0000 0.88363  0.03177  0.43657  Biso   1.000  H
  C428     1.0000 0.83268  0.92241  0.19707  Biso   1.000  C
  C429     1.0000 0.80130  0.89920  0.12067  Biso   1.000  C
  C430     1.0000 0.84553  0.89484  0.23857  Biso   1.000  C
  C431     1.0000 0.77532  0.91051  0.04997  Biso   1.000  C
  H391     1.0000 0.78363  0.94007  0.06227  Biso   1.000  H
  H392     1.0000 0.74553  0.89257  0.06887  Biso   1.000  H
  H393     1.0000 0.77973  0.90637  0.97237  Biso   1.000  H
  C432     1.0000 0.88009  0.90266  0.31897  Biso   1.000  C
  H394     1.0000 0.90323  0.90237  0.27957  Biso   1.000  H
  H395     1.0000 0.89043  0.93017  0.35437  Biso   1.000  H
  H396     1.0000 0.86903  0.88047  0.37527  Biso   1.000  H
