data_image0
_cell_length_a       9.973
_cell_length_b       48.485
_cell_length_c       54.892
_cell_angle_alpha    90
_cell_angle_beta     90
_cell_angle_gamma    90

_symmetry_space_group_name_H-M    "P 1"
_symmetry_int_tables_number       1

loop_
  _symmetry_equiv_pos_as_xyz
  'x, y, z'

loop_
  _atom_site_label
  _atom_site_occupancy
  _atom_site_fract_x
  _atom_site_fract_y
  _atom_site_fract_z
  _atom_site_thermal_displace_type
  _atom_site_B_iso_or_equiv
  _atom_site_type_symbol
  Ga1      1.0000 0.87680  0.27688  0.02277  Biso   1.000  Ga
  Zn1      1.0000 0.66822  0.43248  0.22027  Biso   1.000  Zn
  Zn2      1.0000 0.70450  0.36244  0.13334  Biso   1.000  Zn
  Zn3      1.0000 0.54780  0.34979  0.06815  Biso   1.000  Zn
  Zn4      1.0000 0.04570  0.39679  0.10715  Biso   1.000  Zn
  Zn5      1.0000 0.99064  0.46610  0.19435  Biso   1.000  Zn
  Zn6      1.0000 0.20235  0.32449  0.08812  Biso   1.000  Zn
  Zn7      1.0000 0.35163  0.41471  0.16529  Biso   1.000  Zn
  P1       1.0000 0.16070  0.28135  0.04628  Biso   1.000  P
  P2       1.0000 0.71320  0.49257  0.20537  Biso   1.000  P
  P3       1.0000 0.06530  0.44212  0.14576  Biso   1.000  P
  P4       1.0000 0.93990  0.44463  0.24480  Biso   1.000  P
  P5       1.0000 0.76480  0.39191  0.08367  Biso   1.000  P
  P6       1.0000 0.64140  0.38678  0.18372  Biso   1.000  P
  P7       1.0000 0.27700  0.38398  0.07192  Biso   1.000  P
  P8       1.0000 0.59440  0.30480  0.02833  Biso   1.000  P
  P9       1.0000 0.98540  0.33646  0.12633  Biso   1.000  P
  P10      1.0000 0.47100  0.32494  0.11837  Biso   1.000  P
  O1       1.0000 0.17370  0.25020  0.04679  Biso   1.000  O
  O2       1.0000 0.01560  0.29121  0.04445  Biso   1.000  O
  O3       1.0000 0.23120  0.29278  0.06835  Biso   1.000  O
  O4       1.0000 0.65500  0.46466  0.19842  Biso   1.000  O
  O5       1.0000 0.66170  0.51596  0.18981  Biso   1.000  O
  O6       1.0000 0.86400  0.49309  0.20537  Biso   1.000  O
  O7       1.0000 0.00640  0.43137  0.12290  Biso   1.000  O
  O8       1.0000 0.95160  0.45022  0.16304  Biso   1.000  O
  O9       1.0000 0.16020  0.42240  0.15805  Biso   1.000  O
  O10      1.0000 0.99630  0.42638  0.26458  Biso   1.000  O
  O11      1.0000 0.79150  0.44367  0.24555  Biso   1.000  O
  O12      1.0000 0.99940  0.43819  0.21985  Biso   1.000  O
  O13      1.0000 0.70810  0.39231  0.10956  Biso   1.000  O
  O14      1.0000 0.91530  0.39450  0.08188  Biso   1.000  O
  O15      1.0000 0.72390  0.36690  0.06962  Biso   1.000  O
  O16      1.0000 0.71530  0.39800  0.20529  Biso   1.000  O
  O17      1.0000 0.74320  0.37760  0.16522  Biso   1.000  O
  O18      1.0000 0.54260  0.40679  0.17315  Biso   1.000  O
  O19      1.0000 0.42560  0.37997  0.07339  Biso   1.000  O
  O20      1.0000 0.22560  0.39942  0.09399  Biso   1.000  O
  O21      1.0000 0.19920  0.35759  0.06753  Biso   1.000  O
  O22      1.0000 0.74160  0.30171  0.03612  Biso   1.000  O
  O23      1.0000 0.57390  0.30371  0.00119  Biso   1.000  O
  O24      1.0000 0.53340  0.33120  0.03787  Biso   1.000  O
  O25      1.0000 0.83490  0.33440  0.12835  Biso   1.000  O
  O26      1.0000 0.04180  0.36557  0.12976  Biso   1.000  O
  O27      1.0000 0.02880  0.32222  0.10318  Biso   1.000  O
  O28      1.0000 0.52140  0.34750  0.13491  Biso   1.000  O
  O29      1.0000 0.54870  0.32300  0.09479  Biso   1.000  O
  O30      1.0000 0.32220  0.32715  0.11564  Biso   1.000  O
  H1       1.0000 0.23280  0.29090  0.02600  Biso   1.000  H
  H2       1.0000 0.66220  0.49690  0.22800  Biso   1.000  H
  H3       1.0000 0.12660  0.46380  0.14250  Biso   1.000  H
  H4       1.0000 0.97610  0.46700  0.24840  Biso   1.000  H
  H5       1.0000 0.71100  0.41790  0.07290  Biso   1.000  H
  H6       1.0000 0.59960  0.35830  0.18660  Biso   1.000  H
  H7       1.0000 0.22190  0.39670  0.05290  Biso   1.000  H
  H8       1.0000 0.59860  0.28460  0.03320  Biso   1.000  H
  H9       1.0000 0.98460  0.32760  0.14280  Biso   1.000  H
  H10      1.0000 0.48630  0.30670  0.13370  Biso   1.000  H
  Ga2      1.0000 0.37680  0.77688  0.52277  Biso   1.000  Ga
  Zn8      1.0000 0.16822  0.93248  0.72027  Biso   1.000  Zn
  Zn9      1.0000 0.20450  0.86244  0.63334  Biso   1.000  Zn
  Zn10     1.0000 0.04780  0.84979  0.56815  Biso   1.000  Zn
  Zn11     1.0000 0.54570  0.89679  0.60715  Biso   1.000  Zn
  Zn12     1.0000 0.49064  0.96610  0.69435  Biso   1.000  Zn
  Zn13     1.0000 0.70235  0.82449  0.58812  Biso   1.000  Zn
  Zn14     1.0000 0.85163  0.91471  0.66529  Biso   1.000  Zn
  P11      1.0000 0.66070  0.78135  0.54628  Biso   1.000  P
  P12      1.0000 0.21320  0.99257  0.70537  Biso   1.000  P
  P13      1.0000 0.56530  0.94212  0.64576  Biso   1.000  P
  P14      1.0000 0.43990  0.94463  0.74480  Biso   1.000  P
  P15      1.0000 0.26480  0.89191  0.58367  Biso   1.000  P
  P16      1.0000 0.14140  0.88678  0.68372  Biso   1.000  P
  P17      1.0000 0.77700  0.88398  0.57192  Biso   1.000  P
  P18      1.0000 0.09440  0.80480  0.52833  Biso   1.000  P
  P19      1.0000 0.48540  0.83646  0.62633  Biso   1.000  P
  P20      1.0000 0.97100  0.82494  0.61837  Biso   1.000  P
  O31      1.0000 0.67370  0.75020  0.54679  Biso   1.000  O
  O32      1.0000 0.51560  0.79121  0.54445  Biso   1.000  O
  O33      1.0000 0.73120  0.79278  0.56835  Biso   1.000  O
  O34      1.0000 0.15500  0.96466  0.69842  Biso   1.000  O
  O35      1.0000 0.16170  0.01596  0.68981  Biso   1.000  O
  O36      1.0000 0.36400  0.99309  0.70537  Biso   1.000  O
  O37      1.0000 0.50640  0.93137  0.62290  Biso   1.000  O
  O38      1.0000 0.45160  0.95022  0.66304  Biso   1.000  O
  O39      1.0000 0.66020  0.92240  0.65805  Biso   1.000  O
  O40      1.0000 0.49630  0.92638  0.76458  Biso   1.000  O
  O41      1.0000 0.29150  0.94367  0.74555  Biso   1.000  O
  O42      1.0000 0.49940  0.93819  0.71985  Biso   1.000  O
  O43      1.0000 0.20810  0.89231  0.60956  Biso   1.000  O
  O44      1.0000 0.41530  0.89450  0.58188  Biso   1.000  O
  O45      1.0000 0.22390  0.86690  0.56962  Biso   1.000  O
  O46      1.0000 0.21530  0.89800  0.70529  Biso   1.000  O
  O47      1.0000 0.24320  0.87760  0.66522  Biso   1.000  O
  O48      1.0000 0.04260  0.90679  0.67315  Biso   1.000  O
  O49      1.0000 0.92560  0.87997  0.57339  Biso   1.000  O
  O50      1.0000 0.72560  0.89942  0.59399  Biso   1.000  O
  O51      1.0000 0.69920  0.85759  0.56753  Biso   1.000  O
  O52      1.0000 0.24160  0.80171  0.53612  Biso   1.000  O
  O53      1.0000 0.07390  0.80371  0.50119  Biso   1.000  O
  O54      1.0000 0.03340  0.83120  0.53787  Biso   1.000  O
  O55      1.0000 0.33490  0.83440  0.62835  Biso   1.000  O
  O56      1.0000 0.54180  0.86557  0.62976  Biso   1.000  O
  O57      1.0000 0.52880  0.82222  0.60318  Biso   1.000  O
  O58      1.0000 0.02140  0.84750  0.63491  Biso   1.000  O
  O59      1.0000 0.04870  0.82300  0.59479  Biso   1.000  O
  O60      1.0000 0.82220  0.82715  0.61564  Biso   1.000  O
  H11      1.0000 0.73280  0.79090  0.52600  Biso   1.000  H
  H12      1.0000 0.16220  0.99690  0.72800  Biso   1.000  H
  H13      1.0000 0.62660  0.96380  0.64250  Biso   1.000  H
  H14      1.0000 0.47610  0.96700  0.74840  Biso   1.000  H
  H15      1.0000 0.21100  0.91790  0.57290  Biso   1.000  H
  H16      1.0000 0.09960  0.85830  0.68660  Biso   1.000  H
  H17      1.0000 0.72190  0.89670  0.55290  Biso   1.000  H
  H18      1.0000 0.09860  0.78460  0.53320  Biso   1.000  H
  H19      1.0000 0.48460  0.82760  0.64280  Biso   1.000  H
  H20      1.0000 0.98630  0.80670  0.63370  Biso   1.000  H
  Ga3      1.0000 0.62320  0.72312  0.52277  Biso   1.000  Ga
  Zn15     1.0000 0.83178  0.56752  0.72027  Biso   1.000  Zn
  Zn16     1.0000 0.79550  0.63756  0.63334  Biso   1.000  Zn
  Zn17     1.0000 0.95220  0.65021  0.56815  Biso   1.000  Zn
  Zn18     1.0000 0.45430  0.60321  0.60715  Biso   1.000  Zn
  Zn19     1.0000 0.50936  0.53390  0.69435  Biso   1.000  Zn
  Zn20     1.0000 0.29765  0.67551  0.58812  Biso   1.000  Zn
  Zn21     1.0000 0.14837  0.58529  0.66529  Biso   1.000  Zn
  P21      1.0000 0.33930  0.71865  0.54628  Biso   1.000  P
  P22      1.0000 0.78680  0.50743  0.70537  Biso   1.000  P
  P23      1.0000 0.43470  0.55788  0.64576  Biso   1.000  P
  P24      1.0000 0.56010  0.55537  0.74480  Biso   1.000  P
  P25      1.0000 0.73520  0.60809  0.58367  Biso   1.000  P
  P26      1.0000 0.85860  0.61322  0.68372  Biso   1.000  P
  P27      1.0000 0.22300  0.61602  0.57192  Biso   1.000  P
  P28      1.0000 0.90560  0.69520  0.52833  Biso   1.000  P
  P29      1.0000 0.51460  0.66354  0.62633  Biso   1.000  P
  P30      1.0000 0.02900  0.67506  0.61837  Biso   1.000  P
  O61      1.0000 0.32630  0.74980  0.54679  Biso   1.000  O
  O62      1.0000 0.48440  0.70879  0.54445  Biso   1.000  O
  O63      1.0000 0.26880  0.70722  0.56835  Biso   1.000  O
  O64      1.0000 0.84500  0.53534  0.69842  Biso   1.000  O
  O65      1.0000 0.83830  0.48404  0.68981  Biso   1.000  O
  O66      1.0000 0.63600  0.50691  0.70537  Biso   1.000  O
  O67      1.0000 0.49360  0.56863  0.62290  Biso   1.000  O
  O68      1.0000 0.54840  0.54978  0.66304  Biso   1.000  O
  O69      1.0000 0.33980  0.57760  0.65805  Biso   1.000  O
  O70      1.0000 0.50370  0.57362  0.76458  Biso   1.000  O
  O71      1.0000 0.70850  0.55633  0.74555  Biso   1.000  O
  O72      1.0000 0.50060  0.56181  0.71985  Biso   1.000  O
  O73      1.0000 0.79190  0.60769  0.60956  Biso   1.000  O
  O74      1.0000 0.58470  0.60550  0.58188  Biso   1.000  O
  O75      1.0000 0.77610  0.63310  0.56962  Biso   1.000  O
  O76      1.0000 0.78470  0.60200  0.70529  Biso   1.000  O
  O77      1.0000 0.75680  0.62240  0.66522  Biso   1.000  O
  O78      1.0000 0.95740  0.59321  0.67315  Biso   1.000  O
  O79      1.0000 0.07440  0.62003  0.57339  Biso   1.000  O
  O80      1.0000 0.27440  0.60058  0.59399  Biso   1.000  O
  O81      1.0000 0.30080  0.64241  0.56753  Biso   1.000  O
  O82      1.0000 0.75840  0.69829  0.53612  Biso   1.000  O
  O83      1.0000 0.92610  0.69629  0.50119  Biso   1.000  O
  O84      1.0000 0.96660  0.66880  0.53787  Biso   1.000  O
  O85      1.0000 0.66510  0.66560  0.62835  Biso   1.000  O
  O86      1.0000 0.45820  0.63443  0.62976  Biso   1.000  O
  O87      1.0000 0.47120  0.67778  0.60318  Biso   1.000  O
  O88      1.0000 0.97860  0.65250  0.63491  Biso   1.000  O
  O89      1.0000 0.95130  0.67700  0.59479  Biso   1.000  O
  O90      1.0000 0.17780  0.67285  0.61564  Biso   1.000  O
  H21      1.0000 0.26720  0.70910  0.52600  Biso   1.000  H
  H22      1.0000 0.83780  0.50310  0.72800  Biso   1.000  H
  H23      1.0000 0.37340  0.53620  0.64250  Biso   1.000  H
  H24      1.0000 0.52390  0.53300  0.74840  Biso   1.000  H
  H25      1.0000 0.78900  0.58210  0.57290  Biso   1.000  H
  H26      1.0000 0.90040  0.64170  0.68660  Biso   1.000  H
  H27      1.0000 0.27810  0.60330  0.55290  Biso   1.000  H
  H28      1.0000 0.90140  0.71540  0.53320  Biso   1.000  H
  H29      1.0000 0.51540  0.67240  0.64280  Biso   1.000  H
  H30      1.0000 0.01370  0.69330  0.63370  Biso   1.000  H
  Ga4      1.0000 0.12320  0.22312  0.02277  Biso   1.000  Ga
  Zn22     1.0000 0.33178  0.06752  0.22027  Biso   1.000  Zn
  Zn23     1.0000 0.29550  0.13756  0.13334  Biso   1.000  Zn
  Zn24     1.0000 0.45220  0.15021  0.06815  Biso   1.000  Zn
  Zn25     1.0000 0.95430  0.10321  0.10715  Biso   1.000  Zn
  Zn26     1.0000 0.00936  0.03390  0.19435  Biso   1.000  Zn
  Zn27     1.0000 0.79765  0.17551  0.08812  Biso   1.000  Zn
  Zn28     1.0000 0.64837  0.08529  0.16529  Biso   1.000  Zn
  P31      1.0000 0.83930  0.21865  0.04628  Biso   1.000  P
  P32      1.0000 0.28680  0.00743  0.20537  Biso   1.000  P
  P33      1.0000 0.93470  0.05788  0.14576  Biso   1.000  P
  P34      1.0000 0.06010  0.05537  0.24480  Biso   1.000  P
  P35      1.0000 0.23520  0.10809  0.08367  Biso   1.000  P
  P36      1.0000 0.35860  0.11322  0.18372  Biso   1.000  P
  P37      1.0000 0.72300  0.11602  0.07192  Biso   1.000  P
  P38      1.0000 0.40560  0.19520  0.02833  Biso   1.000  P
  P39      1.0000 0.01460  0.16354  0.12633  Biso   1.000  P
  P40      1.0000 0.52900  0.17506  0.11837  Biso   1.000  P
  O91      1.0000 0.82630  0.24980  0.04679  Biso   1.000  O
  O92      1.0000 0.98440  0.20879  0.04445  Biso   1.000  O
  O93      1.0000 0.76880  0.20722  0.06835  Biso   1.000  O
  O94      1.0000 0.34500  0.03534  0.19842  Biso   1.000  O
  O95      1.0000 0.33830  0.98404  0.18981  Biso   1.000  O
  O96      1.0000 0.13600  0.00691  0.20537  Biso   1.000  O
  O97      1.0000 0.99360  0.06863  0.12290  Biso   1.000  O
  O98      1.0000 0.04840  0.04978  0.16304  Biso   1.000  O
  O99      1.0000 0.83980  0.07760  0.15805  Biso   1.000  O
  O100     1.0000 0.00370  0.07362  0.26458  Biso   1.000  O
  O101     1.0000 0.20850  0.05633  0.24555  Biso   1.000  O
  O102     1.0000 0.00060  0.06181  0.21985  Biso   1.000  O
  O103     1.0000 0.29190  0.10769  0.10956  Biso   1.000  O
  O104     1.0000 0.08470  0.10550  0.08188  Biso   1.000  O
  O105     1.0000 0.27610  0.13310  0.06962  Biso   1.000  O
  O106     1.0000 0.28470  0.10200  0.20529  Biso   1.000  O
  O107     1.0000 0.25680  0.12240  0.16522  Biso   1.000  O
  O108     1.0000 0.45740  0.09321  0.17315  Biso   1.000  O
  O109     1.0000 0.57440  0.12003  0.07339  Biso   1.000  O
  O110     1.0000 0.77440  0.10058  0.09399  Biso   1.000  O
  O111     1.0000 0.80080  0.14241  0.06753  Biso   1.000  O
  O112     1.0000 0.25840  0.19829  0.03612  Biso   1.000  O
  O113     1.0000 0.42610  0.19629  0.00119  Biso   1.000  O
  O114     1.0000 0.46660  0.16880  0.03787  Biso   1.000  O
  O115     1.0000 0.16510  0.16560  0.12835  Biso   1.000  O
  O116     1.0000 0.95820  0.13443  0.12976  Biso   1.000  O
  O117     1.0000 0.97120  0.17778  0.10318  Biso   1.000  O
  O118     1.0000 0.47860  0.15250  0.13491  Biso   1.000  O
  O119     1.0000 0.45130  0.17700  0.09479  Biso   1.000  O
  O120     1.0000 0.67780  0.17285  0.11564  Biso   1.000  O
  H31      1.0000 0.76720  0.20910  0.02600  Biso   1.000  H
  H32      1.0000 0.33780  0.00310  0.22800  Biso   1.000  H
  H33      1.0000 0.87340  0.03620  0.14250  Biso   1.000  H
  H34      1.0000 0.02390  0.03300  0.24840  Biso   1.000  H
  H35      1.0000 0.28900  0.08210  0.07290  Biso   1.000  H
  H36      1.0000 0.40040  0.14170  0.18660  Biso   1.000  H
  H37      1.0000 0.77810  0.10330  0.05290  Biso   1.000  H
  H38      1.0000 0.40140  0.21540  0.03320  Biso   1.000  H
  H39      1.0000 0.01540  0.17240  0.14280  Biso   1.000  H
  H40      1.0000 0.51370  0.19330  0.13370  Biso   1.000  H
  Ga5      1.0000 0.12320  0.77688  0.47723  Biso   1.000  Ga
  Zn29     1.0000 0.33178  0.93248  0.27973  Biso   1.000  Zn
  Zn30     1.0000 0.29550  0.86244  0.36666  Biso   1.000  Zn
  Zn31     1.0000 0.45220  0.84979  0.43185  Biso   1.000  Zn
  Zn32     1.0000 0.95430  0.89679  0.39285  Biso   1.000  Zn
  Zn33     1.0000 0.00936  0.96610  0.30565  Biso   1.000  Zn
  Zn34     1.0000 0.79765  0.82449  0.41188  Biso   1.000  Zn
  Zn35     1.0000 0.64837  0.91471  0.33471  Biso   1.000  Zn
  P41      1.0000 0.83930  0.78135  0.45372  Biso   1.000  P
  P42      1.0000 0.28680  0.99257  0.29463  Biso   1.000  P
  P43      1.0000 0.93470  0.94212  0.35424  Biso   1.000  P
  P44      1.0000 0.06010  0.94463  0.25520  Biso   1.000  P
  P45      1.0000 0.23520  0.89191  0.41633  Biso   1.000  P
  P46      1.0000 0.35860  0.88678  0.31628  Biso   1.000  P
  P47      1.0000 0.72300  0.88398  0.42808  Biso   1.000  P
  P48      1.0000 0.40560  0.80480  0.47167  Biso   1.000  P
  P49      1.0000 0.01460  0.83646  0.37367  Biso   1.000  P
  P50      1.0000 0.52900  0.82494  0.38163  Biso   1.000  P
  O121     1.0000 0.82630  0.75020  0.45321  Biso   1.000  O
  O122     1.0000 0.98440  0.79121  0.45555  Biso   1.000  O
  O123     1.0000 0.76880  0.79278  0.43165  Biso   1.000  O
  O124     1.0000 0.34500  0.96466  0.30158  Biso   1.000  O
  O125     1.0000 0.33830  0.01596  0.31019  Biso   1.000  O
  O126     1.0000 0.13600  0.99309  0.29463  Biso   1.000  O
  O127     1.0000 0.99360  0.93137  0.37710  Biso   1.000  O
  O128     1.0000 0.04840  0.95022  0.33696  Biso   1.000  O
  O129     1.0000 0.83980  0.92240  0.34195  Biso   1.000  O
  O130     1.0000 0.00370  0.92638  0.23542  Biso   1.000  O
  O131     1.0000 0.20850  0.94367  0.25445  Biso   1.000  O
  O132     1.0000 0.00060  0.93819  0.28015  Biso   1.000  O
  O133     1.0000 0.29190  0.89231  0.39044  Biso   1.000  O
  O134     1.0000 0.08470  0.89450  0.41812  Biso   1.000  O
  O135     1.0000 0.27610  0.86690  0.43038  Biso   1.000  O
  O136     1.0000 0.28470  0.89800  0.29471  Biso   1.000  O
  O137     1.0000 0.25680  0.87760  0.33478  Biso   1.000  O
  O138     1.0000 0.45740  0.90679  0.32685  Biso   1.000  O
  O139     1.0000 0.57440  0.87997  0.42661  Biso   1.000  O
  O140     1.0000 0.77440  0.89942  0.40601  Biso   1.000  O
  O141     1.0000 0.80080  0.85759  0.43247  Biso   1.000  O
  O142     1.0000 0.25840  0.80171  0.46388  Biso   1.000  O
  O143     1.0000 0.42610  0.80371  0.49881  Biso   1.000  O
  O144     1.0000 0.46660  0.83120  0.46213  Biso   1.000  O
  O145     1.0000 0.16510  0.83440  0.37165  Biso   1.000  O
  O146     1.0000 0.95820  0.86557  0.37024  Biso   1.000  O
  O147     1.0000 0.97120  0.82222  0.39682  Biso   1.000  O
  O148     1.0000 0.47860  0.84750  0.36509  Biso   1.000  O
  O149     1.0000 0.45130  0.82300  0.40521  Biso   1.000  O
  O150     1.0000 0.67780  0.82715  0.38436  Biso   1.000  O
  H41      1.0000 0.76720  0.79090  0.47400  Biso   1.000  H
  H42      1.0000 0.33780  0.99690  0.27200  Biso   1.000  H
  H43      1.0000 0.87340  0.96380  0.35750  Biso   1.000  H
  H44      1.0000 0.02390  0.96700  0.25160  Biso   1.000  H
  H45      1.0000 0.28900  0.91790  0.42710  Biso   1.000  H
  H46      1.0000 0.40040  0.85830  0.31340  Biso   1.000  H
  H47      1.0000 0.77810  0.89670  0.44710  Biso   1.000  H
  H48      1.0000 0.40140  0.78460  0.46680  Biso   1.000  H
  H49      1.0000 0.01540  0.82760  0.35720  Biso   1.000  H
  H50      1.0000 0.51370  0.80670  0.36630  Biso   1.000  H
  Ga6      1.0000 0.62320  0.27688  0.97723  Biso   1.000  Ga
  Zn36     1.0000 0.83178  0.43248  0.77973  Biso   1.000  Zn
  Zn37     1.0000 0.79550  0.36244  0.86666  Biso   1.000  Zn
  Zn38     1.0000 0.95220  0.34979  0.93185  Biso   1.000  Zn
  Zn39     1.0000 0.45430  0.39679  0.89285  Biso   1.000  Zn
  Zn40     1.0000 0.50936  0.46610  0.80565  Biso   1.000  Zn
  Zn41     1.0000 0.29765  0.32449  0.91188  Biso   1.000  Zn
  Zn42     1.0000 0.14837  0.41471  0.83471  Biso   1.000  Zn
  P51      1.0000 0.33930  0.28135  0.95372  Biso   1.000  P
  P52      1.0000 0.78680  0.49257  0.79463  Biso   1.000  P
  P53      1.0000 0.43470  0.44212  0.85424  Biso   1.000  P
  P54      1.0000 0.56010  0.44463  0.75520  Biso   1.000  P
  P55      1.0000 0.73520  0.39191  0.91633  Biso   1.000  P
  P56      1.0000 0.85860  0.38678  0.81628  Biso   1.000  P
  P57      1.0000 0.22300  0.38398  0.92808  Biso   1.000  P
  P58      1.0000 0.90560  0.30480  0.97167  Biso   1.000  P
  P59      1.0000 0.51460  0.33646  0.87367  Biso   1.000  P
  P60      1.0000 0.02900  0.32494  0.88163  Biso   1.000  P
  O151     1.0000 0.32630  0.25020  0.95321  Biso   1.000  O
  O152     1.0000 0.48440  0.29121  0.95555  Biso   1.000  O
  O153     1.0000 0.26880  0.29278  0.93165  Biso   1.000  O
  O154     1.0000 0.84500  0.46466  0.80158  Biso   1.000  O
  O155     1.0000 0.83830  0.51596  0.81019  Biso   1.000  O
  O156     1.0000 0.63600  0.49309  0.79463  Biso   1.000  O
  O157     1.0000 0.49360  0.43137  0.87710  Biso   1.000  O
  O158     1.0000 0.54840  0.45022  0.83696  Biso   1.000  O
  O159     1.0000 0.33980  0.42240  0.84195  Biso   1.000  O
  O160     1.0000 0.50370  0.42638  0.73542  Biso   1.000  O
  O161     1.0000 0.70850  0.44367  0.75445  Biso   1.000  O
  O162     1.0000 0.50060  0.43819  0.78015  Biso   1.000  O
  O163     1.0000 0.79190  0.39231  0.89044  Biso   1.000  O
  O164     1.0000 0.58470  0.39450  0.91812  Biso   1.000  O
  O165     1.0000 0.77610  0.36690  0.93038  Biso   1.000  O
  O166     1.0000 0.78470  0.39800  0.79471  Biso   1.000  O
  O167     1.0000 0.75680  0.37760  0.83478  Biso   1.000  O
  O168     1.0000 0.95740  0.40679  0.82685  Biso   1.000  O
  O169     1.0000 0.07440  0.37997  0.92661  Biso   1.000  O
  O170     1.0000 0.27440  0.39942  0.90601  Biso   1.000  O
  O171     1.0000 0.30080  0.35759  0.93247  Biso   1.000  O
  O172     1.0000 0.75840  0.30171  0.96388  Biso   1.000  O
  O173     1.0000 0.92610  0.30371  0.99881  Biso   1.000  O
  O174     1.0000 0.96660  0.33120  0.96213  Biso   1.000  O
  O175     1.0000 0.66510  0.33440  0.87165  Biso   1.000  O
  O176     1.0000 0.45820  0.36557  0.87024  Biso   1.000  O
  O177     1.0000 0.47120  0.32222  0.89682  Biso   1.000  O
  O178     1.0000 0.97860  0.34750  0.86509  Biso   1.000  O
  O179     1.0000 0.95130  0.32300  0.90521  Biso   1.000  O
  O180     1.0000 0.17780  0.32715  0.88436  Biso   1.000  O
  H51      1.0000 0.26720  0.29090  0.97400  Biso   1.000  H
  H52      1.0000 0.83780  0.49690  0.77200  Biso   1.000  H
  H53      1.0000 0.37340  0.46380  0.85750  Biso   1.000  H
  H54      1.0000 0.52390  0.46700  0.75160  Biso   1.000  H
  H55      1.0000 0.78900  0.41790  0.92710  Biso   1.000  H
  H56      1.0000 0.90040  0.35830  0.81340  Biso   1.000  H
  H57      1.0000 0.27810  0.39670  0.94710  Biso   1.000  H
  H58      1.0000 0.90140  0.28460  0.96680  Biso   1.000  H
  H59      1.0000 0.51540  0.32760  0.85720  Biso   1.000  H
  H60      1.0000 0.01370  0.30670  0.86630  Biso   1.000  H
  Ga7      1.0000 0.37680  0.22312  0.97723  Biso   1.000  Ga
  Zn43     1.0000 0.16822  0.06752  0.77973  Biso   1.000  Zn
  Zn44     1.0000 0.20450  0.13756  0.86666  Biso   1.000  Zn
  Zn45     1.0000 0.04780  0.15021  0.93185  Biso   1.000  Zn
  Zn46     1.0000 0.54570  0.10321  0.89285  Biso   1.000  Zn
  Zn47     1.0000 0.49064  0.03390  0.80565  Biso   1.000  Zn
  Zn48     1.0000 0.70235  0.17551  0.91188  Biso   1.000  Zn
  Zn49     1.0000 0.85163  0.08529  0.83471  Biso   1.000  Zn
  P61      1.0000 0.66070  0.21865  0.95372  Biso   1.000  P
  P62      1.0000 0.21320  0.00743  0.79463  Biso   1.000  P
  P63      1.0000 0.56530  0.05788  0.85424  Biso   1.000  P
  P64      1.0000 0.43990  0.05537  0.75520  Biso   1.000  P
  P65      1.0000 0.26480  0.10809  0.91633  Biso   1.000  P
  P66      1.0000 0.14140  0.11322  0.81628  Biso   1.000  P
  P67      1.0000 0.77700  0.11602  0.92808  Biso   1.000  P
  P68      1.0000 0.09440  0.19520  0.97167  Biso   1.000  P
  P69      1.0000 0.48540  0.16354  0.87367  Biso   1.000  P
  P70      1.0000 0.97100  0.17506  0.88163  Biso   1.000  P
  O181     1.0000 0.67370  0.24980  0.95321  Biso   1.000  O
  O182     1.0000 0.51560  0.20879  0.95555  Biso   1.000  O
  O183     1.0000 0.73120  0.20722  0.93165  Biso   1.000  O
  O184     1.0000 0.15500  0.03534  0.80158  Biso   1.000  O
  O185     1.0000 0.16170  0.98404  0.81019  Biso   1.000  O
  O186     1.0000 0.36400  0.00691  0.79463  Biso   1.000  O
  O187     1.0000 0.50640  0.06863  0.87710  Biso   1.000  O
  O188     1.0000 0.45160  0.04978  0.83696  Biso   1.000  O
  O189     1.0000 0.66020  0.07760  0.84195  Biso   1.000  O
  O190     1.0000 0.49630  0.07362  0.73542  Biso   1.000  O
  O191     1.0000 0.29150  0.05633  0.75445  Biso   1.000  O
  O192     1.0000 0.49940  0.06181  0.78015  Biso   1.000  O
  O193     1.0000 0.20810  0.10769  0.89044  Biso   1.000  O
  O194     1.0000 0.41530  0.10550  0.91812  Biso   1.000  O
  O195     1.0000 0.22390  0.13310  0.93038  Biso   1.000  O
  O196     1.0000 0.21530  0.10200  0.79471  Biso   1.000  O
  O197     1.0000 0.24320  0.12240  0.83478  Biso   1.000  O
  O198     1.0000 0.04260  0.09321  0.82685  Biso   1.000  O
  O199     1.0000 0.92560  0.12003  0.92661  Biso   1.000  O
  O200     1.0000 0.72560  0.10058  0.90601  Biso   1.000  O
  O201     1.0000 0.69920  0.14241  0.93247  Biso   1.000  O
  O202     1.0000 0.24160  0.19829  0.96388  Biso   1.000  O
  O203     1.0000 0.07390  0.19629  0.99881  Biso   1.000  O
  O204     1.0000 0.03340  0.16880  0.96213  Biso   1.000  O
  O205     1.0000 0.33490  0.16560  0.87165  Biso   1.000  O
  O206     1.0000 0.54180  0.13443  0.87024  Biso   1.000  O
  O207     1.0000 0.52880  0.17778  0.89682  Biso   1.000  O
  O208     1.0000 0.02140  0.15250  0.86509  Biso   1.000  O
  O209     1.0000 0.04870  0.17700  0.90521  Biso   1.000  O
  O210     1.0000 0.82220  0.17285  0.88436  Biso   1.000  O
  H61      1.0000 0.73280  0.20910  0.97400  Biso   1.000  H
  H62      1.0000 0.16220  0.00310  0.77200  Biso   1.000  H
  H63      1.0000 0.62660  0.03620  0.85750  Biso   1.000  H
  H64      1.0000 0.47610  0.03300  0.75160  Biso   1.000  H
  H65      1.0000 0.21100  0.08210  0.92710  Biso   1.000  H
  H66      1.0000 0.09960  0.14170  0.81340  Biso   1.000  H
  H67      1.0000 0.72190  0.10330  0.94710  Biso   1.000  H
  H68      1.0000 0.09860  0.21540  0.96680  Biso   1.000  H
  H69      1.0000 0.48460  0.17240  0.85720  Biso   1.000  H
  H70      1.0000 0.98630  0.19330  0.86630  Biso   1.000  H
  Ga8      1.0000 0.87680  0.72312  0.47723  Biso   1.000  Ga
  Zn50     1.0000 0.66822  0.56752  0.27973  Biso   1.000  Zn
  Zn51     1.0000 0.70450  0.63756  0.36666  Biso   1.000  Zn
  Zn52     1.0000 0.54780  0.65021  0.43185  Biso   1.000  Zn
  Zn53     1.0000 0.04570  0.60321  0.39285  Biso   1.000  Zn
  Zn54     1.0000 0.99064  0.53390  0.30565  Biso   1.000  Zn
  Zn55     1.0000 0.20235  0.67551  0.41188  Biso   1.000  Zn
  Zn56     1.0000 0.35163  0.58529  0.33471  Biso   1.000  Zn
  P71      1.0000 0.16070  0.71865  0.45372  Biso   1.000  P
  P72      1.0000 0.71320  0.50743  0.29463  Biso   1.000  P
  P73      1.0000 0.06530  0.55788  0.35424  Biso   1.000  P
  P74      1.0000 0.93990  0.55537  0.25520  Biso   1.000  P
  P75      1.0000 0.76480  0.60809  0.41633  Biso   1.000  P
  P76      1.0000 0.64140  0.61322  0.31628  Biso   1.000  P
  P77      1.0000 0.27700  0.61602  0.42808  Biso   1.000  P
  P78      1.0000 0.59440  0.69520  0.47167  Biso   1.000  P
  P79      1.0000 0.98540  0.66354  0.37367  Biso   1.000  P
  P80      1.0000 0.47100  0.67506  0.38163  Biso   1.000  P
  O211     1.0000 0.17370  0.74980  0.45321  Biso   1.000  O
  O212     1.0000 0.01560  0.70879  0.45555  Biso   1.000  O
  O213     1.0000 0.23120  0.70722  0.43165  Biso   1.000  O
  O214     1.0000 0.65500  0.53534  0.30158  Biso   1.000  O
  O215     1.0000 0.66170  0.48404  0.31019  Biso   1.000  O
  O216     1.0000 0.86400  0.50691  0.29463  Biso   1.000  O
  O217     1.0000 0.00640  0.56863  0.37710  Biso   1.000  O
  O218     1.0000 0.95160  0.54978  0.33696  Biso   1.000  O
  O219     1.0000 0.16020  0.57760  0.34195  Biso   1.000  O
  O220     1.0000 0.99630  0.57362  0.23542  Biso   1.000  O
  O221     1.0000 0.79150  0.55633  0.25445  Biso   1.000  O
  O222     1.0000 0.99940  0.56181  0.28015  Biso   1.000  O
  O223     1.0000 0.70810  0.60769  0.39044  Biso   1.000  O
  O224     1.0000 0.91530  0.60550  0.41812  Biso   1.000  O
  O225     1.0000 0.72390  0.63310  0.43038  Biso   1.000  O
  O226     1.0000 0.71530  0.60200  0.29471  Biso   1.000  O
  O227     1.0000 0.74320  0.62240  0.33478  Biso   1.000  O
  O228     1.0000 0.54260  0.59321  0.32685  Biso   1.000  O
  O229     1.0000 0.42560  0.62003  0.42661  Biso   1.000  O
  O230     1.0000 0.22560  0.60058  0.40601  Biso   1.000  O
  O231     1.0000 0.19920  0.64241  0.43247  Biso   1.000  O
  O232     1.0000 0.74160  0.69829  0.46388  Biso   1.000  O
  O233     1.0000 0.57390  0.69629  0.49881  Biso   1.000  O
  O234     1.0000 0.53340  0.66880  0.46213  Biso   1.000  O
  O235     1.0000 0.83490  0.66560  0.37165  Biso   1.000  O
  O236     1.0000 0.04180  0.63443  0.37024  Biso   1.000  O
  O237     1.0000 0.02880  0.67778  0.39682  Biso   1.000  O
  O238     1.0000 0.52140  0.65250  0.36509  Biso   1.000  O
  O239     1.0000 0.54870  0.67700  0.40521  Biso   1.000  O
  O240     1.0000 0.32220  0.67285  0.38436  Biso   1.000  O
  H71      1.0000 0.23280  0.70910  0.47400  Biso   1.000  H
  H72      1.0000 0.66220  0.50310  0.27200  Biso   1.000  H
  H73      1.0000 0.12660  0.53620  0.35750  Biso   1.000  H
  H74      1.0000 0.97610  0.53300  0.25160  Biso   1.000  H
  H75      1.0000 0.71100  0.58210  0.42710  Biso   1.000  H
  H76      1.0000 0.59960  0.64170  0.31340  Biso   1.000  H
  H77      1.0000 0.22190  0.60330  0.44710  Biso   1.000  H
  H78      1.0000 0.59860  0.71540  0.46680  Biso   1.000  H
  H79      1.0000 0.98460  0.67240  0.35720  Biso   1.000  H
  H80      1.0000 0.48630  0.69330  0.36630  Biso   1.000  H
  Ga9      1.0000 0.12320  0.72312  0.97723  Biso   1.000  Ga
  Zn57     1.0000 0.33178  0.56752  0.77973  Biso   1.000  Zn
  Zn58     1.0000 0.29550  0.63756  0.86666  Biso   1.000  Zn
  Zn59     1.0000 0.45220  0.65021  0.93185  Biso   1.000  Zn
  Zn60     1.0000 0.95430  0.60321  0.89285  Biso   1.000  Zn
  Zn61     1.0000 0.00936  0.53390  0.80565  Biso   1.000  Zn
  Zn62     1.0000 0.79765  0.67551  0.91188  Biso   1.000  Zn
  Zn63     1.0000 0.64837  0.58529  0.83471  Biso   1.000  Zn
  P81      1.0000 0.83930  0.71865  0.95372  Biso   1.000  P
  P82      1.0000 0.28680  0.50743  0.79463  Biso   1.000  P
  P83      1.0000 0.93470  0.55788  0.85424  Biso   1.000  P
  P84      1.0000 0.06010  0.55537  0.75520  Biso   1.000  P
  P85      1.0000 0.23520  0.60809  0.91633  Biso   1.000  P
  P86      1.0000 0.35860  0.61322  0.81628  Biso   1.000  P
  P87      1.0000 0.72300  0.61602  0.92808  Biso   1.000  P
  P88      1.0000 0.40560  0.69520  0.97167  Biso   1.000  P
  P89      1.0000 0.01460  0.66354  0.87367  Biso   1.000  P
  P90      1.0000 0.52900  0.67506  0.88163  Biso   1.000  P
  O241     1.0000 0.82630  0.74980  0.95321  Biso   1.000  O
  O242     1.0000 0.98440  0.70879  0.95555  Biso   1.000  O
  O243     1.0000 0.76880  0.70722  0.93165  Biso   1.000  O
  O244     1.0000 0.34500  0.53534  0.80158  Biso   1.000  O
  O245     1.0000 0.33830  0.48404  0.81019  Biso   1.000  O
  O246     1.0000 0.13600  0.50691  0.79463  Biso   1.000  O
  O247     1.0000 0.99360  0.56863  0.87710  Biso   1.000  O
  O248     1.0000 0.04840  0.54978  0.83696  Biso   1.000  O
  O249     1.0000 0.83980  0.57760  0.84195  Biso   1.000  O
  O250     1.0000 0.00370  0.57362  0.73542  Biso   1.000  O
  O251     1.0000 0.20850  0.55633  0.75445  Biso   1.000  O
  O252     1.0000 0.00060  0.56181  0.78015  Biso   1.000  O
  O253     1.0000 0.29190  0.60769  0.89044  Biso   1.000  O
  O254     1.0000 0.08470  0.60550  0.91812  Biso   1.000  O
  O255     1.0000 0.27610  0.63310  0.93038  Biso   1.000  O
  O256     1.0000 0.28470  0.60200  0.79471  Biso   1.000  O
  O257     1.0000 0.25680  0.62240  0.83478  Biso   1.000  O
  O258     1.0000 0.45740  0.59321  0.82685  Biso   1.000  O
  O259     1.0000 0.57440  0.62003  0.92661  Biso   1.000  O
  O260     1.0000 0.77440  0.60058  0.90601  Biso   1.000  O
  O261     1.0000 0.80080  0.64241  0.93247  Biso   1.000  O
  O262     1.0000 0.25840  0.69829  0.96388  Biso   1.000  O
  O263     1.0000 0.42610  0.69629  0.99881  Biso   1.000  O
  O264     1.0000 0.46660  0.66880  0.96213  Biso   1.000  O
  O265     1.0000 0.16510  0.66560  0.87165  Biso   1.000  O
  O266     1.0000 0.95820  0.63443  0.87024  Biso   1.000  O
  O267     1.0000 0.97120  0.67778  0.89682  Biso   1.000  O
  O268     1.0000 0.47860  0.65250  0.86509  Biso   1.000  O
  O269     1.0000 0.45130  0.67700  0.90521  Biso   1.000  O
  O270     1.0000 0.67780  0.67285  0.88436  Biso   1.000  O
  H81      1.0000 0.76720  0.70910  0.97400  Biso   1.000  H
  H82      1.0000 0.33780  0.50310  0.77200  Biso   1.000  H
  H83      1.0000 0.87340  0.53620  0.85750  Biso   1.000  H
  H84      1.0000 0.02390  0.53300  0.75160  Biso   1.000  H
  H85      1.0000 0.28900  0.58210  0.92710  Biso   1.000  H
  H86      1.0000 0.40040  0.64170  0.81340  Biso   1.000  H
  H87      1.0000 0.77810  0.60330  0.94710  Biso   1.000  H
  H88      1.0000 0.40140  0.71540  0.96680  Biso   1.000  H
  H89      1.0000 0.01540  0.67240  0.85720  Biso   1.000  H
  H90      1.0000 0.51370  0.69330  0.86630  Biso   1.000  H
  Ga10     1.0000 0.62320  0.22312  0.47723  Biso   1.000  Ga
  Zn64     1.0000 0.83178  0.06752  0.27973  Biso   1.000  Zn
  Zn65     1.0000 0.79550  0.13756  0.36666  Biso   1.000  Zn
  Zn66     1.0000 0.95220  0.15021  0.43185  Biso   1.000  Zn
  Zn67     1.0000 0.45430  0.10321  0.39285  Biso   1.000  Zn
  Zn68     1.0000 0.50936  0.03390  0.30565  Biso   1.000  Zn
  Zn69     1.0000 0.29765  0.17551  0.41188  Biso   1.000  Zn
  Zn70     1.0000 0.14837  0.08529  0.33471  Biso   1.000  Zn
  P91      1.0000 0.33930  0.21865  0.45372  Biso   1.000  P
  P92      1.0000 0.78680  0.00743  0.29463  Biso   1.000  P
  P93      1.0000 0.43470  0.05788  0.35424  Biso   1.000  P
  P94      1.0000 0.56010  0.05537  0.25520  Biso   1.000  P
  P95      1.0000 0.73520  0.10809  0.41633  Biso   1.000  P
  P96      1.0000 0.85860  0.11322  0.31628  Biso   1.000  P
  P97      1.0000 0.22300  0.11602  0.42808  Biso   1.000  P
  P98      1.0000 0.90560  0.19520  0.47167  Biso   1.000  P
  P99      1.0000 0.51460  0.16354  0.37367  Biso   1.000  P
  P100     1.0000 0.02900  0.17506  0.38163  Biso   1.000  P
  O271     1.0000 0.32630  0.24980  0.45321  Biso   1.000  O
  O272     1.0000 0.48440  0.20879  0.45555  Biso   1.000  O
  O273     1.0000 0.26880  0.20722  0.43165  Biso   1.000  O
  O274     1.0000 0.84500  0.03534  0.30158  Biso   1.000  O
  O275     1.0000 0.83830  0.98404  0.31019  Biso   1.000  O
  O276     1.0000 0.63600  0.00691  0.29463  Biso   1.000  O
  O277     1.0000 0.49360  0.06863  0.37710  Biso   1.000  O
  O278     1.0000 0.54840  0.04978  0.33696  Biso   1.000  O
  O279     1.0000 0.33980  0.07760  0.34195  Biso   1.000  O
  O280     1.0000 0.50370  0.07362  0.23542  Biso   1.000  O
  O281     1.0000 0.70850  0.05633  0.25445  Biso   1.000  O
  O282     1.0000 0.50060  0.06181  0.28015  Biso   1.000  O
  O283     1.0000 0.79190  0.10769  0.39044  Biso   1.000  O
  O284     1.0000 0.58470  0.10550  0.41812  Biso   1.000  O
  O285     1.0000 0.77610  0.13310  0.43038  Biso   1.000  O
  O286     1.0000 0.78470  0.10200  0.29471  Biso   1.000  O
  O287     1.0000 0.75680  0.12240  0.33478  Biso   1.000  O
  O288     1.0000 0.95740  0.09321  0.32685  Biso   1.000  O
  O289     1.0000 0.07440  0.12003  0.42661  Biso   1.000  O
  O290     1.0000 0.27440  0.10058  0.40601  Biso   1.000  O
  O291     1.0000 0.30080  0.14241  0.43247  Biso   1.000  O
  O292     1.0000 0.75840  0.19829  0.46388  Biso   1.000  O
  O293     1.0000 0.92610  0.19629  0.49881  Biso   1.000  O
  O294     1.0000 0.96660  0.16880  0.46213  Biso   1.000  O
  O295     1.0000 0.66510  0.16560  0.37165  Biso   1.000  O
  O296     1.0000 0.45820  0.13443  0.37024  Biso   1.000  O
  O297     1.0000 0.47120  0.17778  0.39682  Biso   1.000  O
  O298     1.0000 0.97860  0.15250  0.36509  Biso   1.000  O
  O299     1.0000 0.95130  0.17700  0.40521  Biso   1.000  O
  O300     1.0000 0.17780  0.17285  0.38436  Biso   1.000  O
  H91      1.0000 0.26720  0.20910  0.47400  Biso   1.000  H
  H92      1.0000 0.83780  0.00310  0.27200  Biso   1.000  H
  H93      1.0000 0.37340  0.03620  0.35750  Biso   1.000  H
  H94      1.0000 0.52390  0.03300  0.25160  Biso   1.000  H
  H95      1.0000 0.78900  0.08210  0.42710  Biso   1.000  H
  H96      1.0000 0.90040  0.14170  0.31340  Biso   1.000  H
  H97      1.0000 0.27810  0.10330  0.44710  Biso   1.000  H
  H98      1.0000 0.90140  0.21540  0.46680  Biso   1.000  H
  H99      1.0000 0.51540  0.17240  0.35720  Biso   1.000  H
  H100     1.0000 0.01370  0.19330  0.36630  Biso   1.000  H
  Ga11     1.0000 0.37680  0.27688  0.47723  Biso   1.000  Ga
  Zn71     1.0000 0.16822  0.43248  0.27973  Biso   1.000  Zn
  Zn72     1.0000 0.20450  0.36244  0.36666  Biso   1.000  Zn
  Zn73     1.0000 0.04780  0.34979  0.43185  Biso   1.000  Zn
  Zn74     1.0000 0.54570  0.39679  0.39285  Biso   1.000  Zn
  Zn75     1.0000 0.49064  0.46610  0.30565  Biso   1.000  Zn
  Zn76     1.0000 0.70235  0.32449  0.41188  Biso   1.000  Zn
  Zn77     1.0000 0.85163  0.41471  0.33471  Biso   1.000  Zn
  P101     1.0000 0.66070  0.28135  0.45372  Biso   1.000  P
  P102     1.0000 0.21320  0.49257  0.29463  Biso   1.000  P
  P103     1.0000 0.56530  0.44212  0.35424  Biso   1.000  P
  P104     1.0000 0.43990  0.44463  0.25520  Biso   1.000  P
  P105     1.0000 0.26480  0.39191  0.41633  Biso   1.000  P
  P106     1.0000 0.14140  0.38678  0.31628  Biso   1.000  P
  P107     1.0000 0.77700  0.38398  0.42808  Biso   1.000  P
  P108     1.0000 0.09440  0.30480  0.47167  Biso   1.000  P
  P109     1.0000 0.48540  0.33646  0.37367  Biso   1.000  P
  P110     1.0000 0.97100  0.32494  0.38163  Biso   1.000  P
  O301     1.0000 0.67370  0.25020  0.45321  Biso   1.000  O
  O302     1.0000 0.51560  0.29121  0.45555  Biso   1.000  O
  O303     1.0000 0.73120  0.29278  0.43165  Biso   1.000  O
  O304     1.0000 0.15500  0.46466  0.30158  Biso   1.000  O
  O305     1.0000 0.16170  0.51596  0.31019  Biso   1.000  O
  O306     1.0000 0.36400  0.49309  0.29463  Biso   1.000  O
  O307     1.0000 0.50640  0.43137  0.37710  Biso   1.000  O
  O308     1.0000 0.45160  0.45022  0.33696  Biso   1.000  O
  O309     1.0000 0.66020  0.42240  0.34195  Biso   1.000  O
  O310     1.0000 0.49630  0.42638  0.23542  Biso   1.000  O
  O311     1.0000 0.29150  0.44367  0.25445  Biso   1.000  O
  O312     1.0000 0.49940  0.43819  0.28015  Biso   1.000  O
  O313     1.0000 0.20810  0.39231  0.39044  Biso   1.000  O
  O314     1.0000 0.41530  0.39450  0.41812  Biso   1.000  O
  O315     1.0000 0.22390  0.36690  0.43038  Biso   1.000  O
  O316     1.0000 0.21530  0.39800  0.29471  Biso   1.000  O
  O317     1.0000 0.24320  0.37760  0.33478  Biso   1.000  O
  O318     1.0000 0.04260  0.40679  0.32685  Biso   1.000  O
  O319     1.0000 0.92560  0.37997  0.42661  Biso   1.000  O
  O320     1.0000 0.72560  0.39942  0.40601  Biso   1.000  O
  O321     1.0000 0.69920  0.35759  0.43247  Biso   1.000  O
  O322     1.0000 0.24160  0.30171  0.46388  Biso   1.000  O
  O323     1.0000 0.07390  0.30371  0.49881  Biso   1.000  O
  O324     1.0000 0.03340  0.33120  0.46213  Biso   1.000  O
  O325     1.0000 0.33490  0.33440  0.37165  Biso   1.000  O
  O326     1.0000 0.54180  0.36557  0.37024  Biso   1.000  O
  O327     1.0000 0.52880  0.32222  0.39682  Biso   1.000  O
  O328     1.0000 0.02140  0.34750  0.36509  Biso   1.000  O
  O329     1.0000 0.04870  0.32300  0.40521  Biso   1.000  O
  O330     1.0000 0.82220  0.32715  0.38436  Biso   1.000  O
  H101     1.0000 0.73280  0.29090  0.47400  Biso   1.000  H
  H102     1.0000 0.16220  0.49690  0.27200  Biso   1.000  H
  H103     1.0000 0.62660  0.46380  0.35750  Biso   1.000  H
  H104     1.0000 0.47610  0.46700  0.25160  Biso   1.000  H
  H105     1.0000 0.21100  0.41790  0.42710  Biso   1.000  H
  H106     1.0000 0.09960  0.35830  0.31340  Biso   1.000  H
  H107     1.0000 0.72190  0.39670  0.44710  Biso   1.000  H
  H108     1.0000 0.09860  0.28460  0.46680  Biso   1.000  H
  H109     1.0000 0.48460  0.32760  0.35720  Biso   1.000  H
  H110     1.0000 0.98630  0.30670  0.36630  Biso   1.000  H
  Ga12     1.0000 0.87680  0.77688  0.97723  Biso   1.000  Ga
  Zn78     1.0000 0.66822  0.93248  0.77973  Biso   1.000  Zn
  Zn79     1.0000 0.70450  0.86244  0.86666  Biso   1.000  Zn
  Zn80     1.0000 0.54780  0.84979  0.93185  Biso   1.000  Zn
  Zn81     1.0000 0.04570  0.89679  0.89285  Biso   1.000  Zn
  Zn82     1.0000 0.99064  0.96610  0.80565  Biso   1.000  Zn
  Zn83     1.0000 0.20235  0.82449  0.91188  Biso   1.000  Zn
  Zn84     1.0000 0.35163  0.91471  0.83471  Biso   1.000  Zn
  P111     1.0000 0.16070  0.78135  0.95372  Biso   1.000  P
  P112     1.0000 0.71320  0.99257  0.79463  Biso   1.000  P
  P113     1.0000 0.06530  0.94212  0.85424  Biso   1.000  P
  P114     1.0000 0.93990  0.94463  0.75520  Biso   1.000  P
  P115     1.0000 0.76480  0.89191  0.91633  Biso   1.000  P
  P116     1.0000 0.64140  0.88678  0.81628  Biso   1.000  P
  P117     1.0000 0.27700  0.88398  0.92808  Biso   1.000  P
  P118     1.0000 0.59440  0.80480  0.97167  Biso   1.000  P
  P119     1.0000 0.98540  0.83646  0.87367  Biso   1.000  P
  P120     1.0000 0.47100  0.82494  0.88163  Biso   1.000  P
  O331     1.0000 0.17370  0.75020  0.95321  Biso   1.000  O
  O332     1.0000 0.01560  0.79121  0.95555  Biso   1.000  O
  O333     1.0000 0.23120  0.79278  0.93165  Biso   1.000  O
  O334     1.0000 0.65500  0.96466  0.80158  Biso   1.000  O
  O335     1.0000 0.66170  0.01596  0.81019  Biso   1.000  O
  O336     1.0000 0.86400  0.99309  0.79463  Biso   1.000  O
  O337     1.0000 0.00640  0.93137  0.87710  Biso   1.000  O
  O338     1.0000 0.95160  0.95022  0.83696  Biso   1.000  O
  O339     1.0000 0.16020  0.92240  0.84195  Biso   1.000  O
  O340     1.0000 0.99630  0.92638  0.73542  Biso   1.000  O
  O341     1.0000 0.79150  0.94367  0.75445  Biso   1.000  O
  O342     1.0000 0.99940  0.93819  0.78015  Biso   1.000  O
  O343     1.0000 0.70810  0.89231  0.89044  Biso   1.000  O
  O344     1.0000 0.91530  0.89450  0.91812  Biso   1.000  O
  O345     1.0000 0.72390  0.86690  0.93038  Biso   1.000  O
  O346     1.0000 0.71530  0.89800  0.79471  Biso   1.000  O
  O347     1.0000 0.74320  0.87760  0.83478  Biso   1.000  O
  O348     1.0000 0.54260  0.90679  0.82685  Biso   1.000  O
  O349     1.0000 0.42560  0.87997  0.92661  Biso   1.000  O
  O350     1.0000 0.22560  0.89942  0.90601  Biso   1.000  O
  O351     1.0000 0.19920  0.85759  0.93247  Biso   1.000  O
  O352     1.0000 0.74160  0.80171  0.96388  Biso   1.000  O
  O353     1.0000 0.57390  0.80371  0.99881  Biso   1.000  O
  O354     1.0000 0.53340  0.83120  0.96213  Biso   1.000  O
  O355     1.0000 0.83490  0.83440  0.87165  Biso   1.000  O
  O356     1.0000 0.04180  0.86557  0.87024  Biso   1.000  O
  O357     1.0000 0.02880  0.82222  0.89682  Biso   1.000  O
  O358     1.0000 0.52140  0.84750  0.86509  Biso   1.000  O
  O359     1.0000 0.54870  0.82300  0.90521  Biso   1.000  O
  O360     1.0000 0.32220  0.82715  0.88436  Biso   1.000  O
  H111     1.0000 0.23280  0.79090  0.97400  Biso   1.000  H
  H112     1.0000 0.66220  0.99690  0.77200  Biso   1.000  H
  H113     1.0000 0.12660  0.96380  0.85750  Biso   1.000  H
  H114     1.0000 0.97610  0.96700  0.75160  Biso   1.000  H
  H115     1.0000 0.71100  0.91790  0.92710  Biso   1.000  H
  H116     1.0000 0.59960  0.85830  0.81340  Biso   1.000  H
  H117     1.0000 0.22190  0.89670  0.94710  Biso   1.000  H
  H118     1.0000 0.59860  0.78460  0.96680  Biso   1.000  H
  H119     1.0000 0.98460  0.82760  0.85720  Biso   1.000  H
  H120     1.0000 0.48630  0.80670  0.86630  Biso   1.000  H
  Ga13     1.0000 0.87680  0.22312  0.52277  Biso   1.000  Ga
  Zn85     1.0000 0.66822  0.06752  0.72027  Biso   1.000  Zn
  Zn86     1.0000 0.70450  0.13756  0.63334  Biso   1.000  Zn
  Zn87     1.0000 0.54780  0.15021  0.56815  Biso   1.000  Zn
  Zn88     1.0000 0.04570  0.10321  0.60715  Biso   1.000  Zn
  Zn89     1.0000 0.99064  0.03390  0.69435  Biso   1.000  Zn
  Zn90     1.0000 0.20235  0.17551  0.58812  Biso   1.000  Zn
  Zn91     1.0000 0.35163  0.08529  0.66529  Biso   1.000  Zn
  P121     1.0000 0.16070  0.21865  0.54628  Biso   1.000  P
  P122     1.0000 0.71320  0.00743  0.70537  Biso   1.000  P
  P123     1.0000 0.06530  0.05788  0.64576  Biso   1.000  P
  P124     1.0000 0.93990  0.05537  0.74480  Biso   1.000  P
  P125     1.0000 0.76480  0.10809  0.58367  Biso   1.000  P
  P126     1.0000 0.64140  0.11322  0.68372  Biso   1.000  P
  P127     1.0000 0.27700  0.11602  0.57192  Biso   1.000  P
  P128     1.0000 0.59440  0.19520  0.52833  Biso   1.000  P
  P129     1.0000 0.98540  0.16354  0.62633  Biso   1.000  P
  P130     1.0000 0.47100  0.17506  0.61837  Biso   1.000  P
  O361     1.0000 0.17370  0.24980  0.54679  Biso   1.000  O
  O362     1.0000 0.01560  0.20879  0.54445  Biso   1.000  O
  O363     1.0000 0.23120  0.20722  0.56835  Biso   1.000  O
  O364     1.0000 0.65500  0.03534  0.69842  Biso   1.000  O
  O365     1.0000 0.66170  0.98404  0.68981  Biso   1.000  O
  O366     1.0000 0.86400  0.00691  0.70537  Biso   1.000  O
  O367     1.0000 0.00640  0.06863  0.62290  Biso   1.000  O
  O368     1.0000 0.95160  0.04978  0.66304  Biso   1.000  O
  O369     1.0000 0.16020  0.07760  0.65805  Biso   1.000  O
  O370     1.0000 0.99630  0.07362  0.76458  Biso   1.000  O
  O371     1.0000 0.79150  0.05633  0.74555  Biso   1.000  O
  O372     1.0000 0.99940  0.06181  0.71985  Biso   1.000  O
  O373     1.0000 0.70810  0.10769  0.60956  Biso   1.000  O
  O374     1.0000 0.91530  0.10550  0.58188  Biso   1.000  O
  O375     1.0000 0.72390  0.13310  0.56962  Biso   1.000  O
  O376     1.0000 0.71530  0.10200  0.70529  Biso   1.000  O
  O377     1.0000 0.74320  0.12240  0.66522  Biso   1.000  O
  O378     1.0000 0.54260  0.09321  0.67315  Biso   1.000  O
  O379     1.0000 0.42560  0.12003  0.57339  Biso   1.000  O
  O380     1.0000 0.22560  0.10058  0.59399  Biso   1.000  O
  O381     1.0000 0.19920  0.14241  0.56753  Biso   1.000  O
  O382     1.0000 0.74160  0.19829  0.53612  Biso   1.000  O
  O383     1.0000 0.57390  0.19629  0.50119  Biso   1.000  O
  O384     1.0000 0.53340  0.16880  0.53787  Biso   1.000  O
  O385     1.0000 0.83490  0.16560  0.62835  Biso   1.000  O
  O386     1.0000 0.04180  0.13443  0.62976  Biso   1.000  O
  O387     1.0000 0.02880  0.17778  0.60318  Biso   1.000  O
  O388     1.0000 0.52140  0.15250  0.63491  Biso   1.000  O
  O389     1.0000 0.54870  0.17700  0.59479  Biso   1.000  O
  O390     1.0000 0.32220  0.17285  0.61564  Biso   1.000  O
  H121     1.0000 0.23280  0.20910  0.52600  Biso   1.000  H
  H122     1.0000 0.66220  0.00310  0.72800  Biso   1.000  H
  H123     1.0000 0.12660  0.03620  0.64250  Biso   1.000  H
  H124     1.0000 0.97610  0.03300  0.74840  Biso   1.000  H
  H125     1.0000 0.71100  0.08210  0.57290  Biso   1.000  H
  H126     1.0000 0.59960  0.14170  0.68660  Biso   1.000  H
  H127     1.0000 0.22190  0.10330  0.55290  Biso   1.000  H
  H128     1.0000 0.59860  0.21540  0.53320  Biso   1.000  H
  H129     1.0000 0.98460  0.17240  0.64280  Biso   1.000  H
  H130     1.0000 0.48630  0.19330  0.63370  Biso   1.000  H
  Ga14     1.0000 0.37680  0.72312  0.02277  Biso   1.000  Ga
  Zn92     1.0000 0.16822  0.56752  0.22027  Biso   1.000  Zn
  Zn93     1.0000 0.20450  0.63756  0.13334  Biso   1.000  Zn
  Zn94     1.0000 0.04780  0.65021  0.06815  Biso   1.000  Zn
  Zn95     1.0000 0.54570  0.60321  0.10715  Biso   1.000  Zn
  Zn96     1.0000 0.49064  0.53390  0.19435  Biso   1.000  Zn
  Zn97     1.0000 0.70235  0.67551  0.08812  Biso   1.000  Zn
  Zn98     1.0000 0.85163  0.58529  0.16529  Biso   1.000  Zn
  P131     1.0000 0.66070  0.71865  0.04628  Biso   1.000  P
  P132     1.0000 0.21320  0.50743  0.20537  Biso   1.000  P
  P133     1.0000 0.56530  0.55788  0.14576  Biso   1.000  P
  P134     1.0000 0.43990  0.55537  0.24480  Biso   1.000  P
  P135     1.0000 0.26480  0.60809  0.08367  Biso   1.000  P
  P136     1.0000 0.14140  0.61322  0.18372  Biso   1.000  P
  P137     1.0000 0.77700  0.61602  0.07192  Biso   1.000  P
  P138     1.0000 0.09440  0.69520  0.02833  Biso   1.000  P
  P139     1.0000 0.48540  0.66354  0.12633  Biso   1.000  P
  P140     1.0000 0.97100  0.67506  0.11837  Biso   1.000  P
  O391     1.0000 0.67370  0.74980  0.04679  Biso   1.000  O
  O392     1.0000 0.51560  0.70879  0.04445  Biso   1.000  O
  O393     1.0000 0.73120  0.70722  0.06835  Biso   1.000  O
  O394     1.0000 0.15500  0.53534  0.19842  Biso   1.000  O
  O395     1.0000 0.16170  0.48404  0.18981  Biso   1.000  O
  O396     1.0000 0.36400  0.50691  0.20537  Biso   1.000  O
  O397     1.0000 0.50640  0.56863  0.12290  Biso   1.000  O
  O398     1.0000 0.45160  0.54978  0.16304  Biso   1.000  O
  O399     1.0000 0.66020  0.57760  0.15805  Biso   1.000  O
  O400     1.0000 0.49630  0.57362  0.26458  Biso   1.000  O
  O401     1.0000 0.29150  0.55633  0.24555  Biso   1.000  O
  O402     1.0000 0.49940  0.56181  0.21985  Biso   1.000  O
  O403     1.0000 0.20810  0.60769  0.10956  Biso   1.000  O
  O404     1.0000 0.41530  0.60550  0.08188  Biso   1.000  O
  O405     1.0000 0.22390  0.63310  0.06962  Biso   1.000  O
  O406     1.0000 0.21530  0.60200  0.20529  Biso   1.000  O
  O407     1.0000 0.24320  0.62240  0.16522  Biso   1.000  O
  O408     1.0000 0.04260  0.59321  0.17315  Biso   1.000  O
  O409     1.0000 0.92560  0.62003  0.07339  Biso   1.000  O
  O410     1.0000 0.72560  0.60058  0.09399  Biso   1.000  O
  O411     1.0000 0.69920  0.64241  0.06753  Biso   1.000  O
  O412     1.0000 0.24160  0.69829  0.03612  Biso   1.000  O
  O413     1.0000 0.07390  0.69629  0.00119  Biso   1.000  O
  O414     1.0000 0.03340  0.66880  0.03787  Biso   1.000  O
  O415     1.0000 0.33490  0.66560  0.12835  Biso   1.000  O
  O416     1.0000 0.54180  0.63443  0.12976  Biso   1.000  O
  O417     1.0000 0.52880  0.67778  0.10318  Biso   1.000  O
  O418     1.0000 0.02140  0.65250  0.13491  Biso   1.000  O
  O419     1.0000 0.04870  0.67700  0.09479  Biso   1.000  O
  O420     1.0000 0.82220  0.67285  0.11564  Biso   1.000  O
  H131     1.0000 0.73280  0.70910  0.02600  Biso   1.000  H
  H132     1.0000 0.16220  0.50310  0.22800  Biso   1.000  H
  H133     1.0000 0.62660  0.53620  0.14250  Biso   1.000  H
  H134     1.0000 0.47610  0.53300  0.24840  Biso   1.000  H
  H135     1.0000 0.21100  0.58210  0.07290  Biso   1.000  H
  H136     1.0000 0.09960  0.64170  0.18660  Biso   1.000  H
  H137     1.0000 0.72190  0.60330  0.05290  Biso   1.000  H
  H138     1.0000 0.09860  0.71540  0.03320  Biso   1.000  H
  H139     1.0000 0.48460  0.67240  0.14280  Biso   1.000  H
  H140     1.0000 0.98630  0.69330  0.13370  Biso   1.000  H
  Ga15     1.0000 0.62320  0.77688  0.02277  Biso   1.000  Ga
  Zn99     1.0000 0.83178  0.93248  0.22027  Biso   1.000  Zn
  Zn100    1.0000 0.79550  0.86244  0.13334  Biso   1.000  Zn
  Zn101    1.0000 0.95220  0.84979  0.06815  Biso   1.000  Zn
  Zn102    1.0000 0.45430  0.89679  0.10715  Biso   1.000  Zn
  Zn103    1.0000 0.50936  0.96610  0.19435  Biso   1.000  Zn
  Zn104    1.0000 0.29765  0.82449  0.08812  Biso   1.000  Zn
  Zn105    1.0000 0.14837  0.91471  0.16529  Biso   1.000  Zn
  P141     1.0000 0.33930  0.78135  0.04628  Biso   1.000  P
  P142     1.0000 0.78680  0.99257  0.20537  Biso   1.000  P
  P143     1.0000 0.43470  0.94212  0.14576  Biso   1.000  P
  P144     1.0000 0.56010  0.94463  0.24480  Biso   1.000  P
  P145     1.0000 0.73520  0.89191  0.08367  Biso   1.000  P
  P146     1.0000 0.85860  0.88678  0.18372  Biso   1.000  P
  P147     1.0000 0.22300  0.88398  0.07192  Biso   1.000  P
  P148     1.0000 0.90560  0.80480  0.02833  Biso   1.000  P
  P149     1.0000 0.51460  0.83646  0.12633  Biso   1.000  P
  P150     1.0000 0.02900  0.82494  0.11837  Biso   1.000  P
  O421     1.0000 0.32630  0.75020  0.04679  Biso   1.000  O
  O422     1.0000 0.48440  0.79121  0.04445  Biso   1.000  O
  O423     1.0000 0.26880  0.79278  0.06835  Biso   1.000  O
  O424     1.0000 0.84500  0.96466  0.19842  Biso   1.000  O
  O425     1.0000 0.83830  0.01596  0.18981  Biso   1.000  O
  O426     1.0000 0.63600  0.99309  0.20537  Biso   1.000  O
  O427     1.0000 0.49360  0.93137  0.12290  Biso   1.000  O
  O428     1.0000 0.54840  0.95022  0.16304  Biso   1.000  O
  O429     1.0000 0.33980  0.92240  0.15805  Biso   1.000  O
  O430     1.0000 0.50370  0.92638  0.26458  Biso   1.000  O
  O431     1.0000 0.70850  0.94367  0.24555  Biso   1.000  O
  O432     1.0000 0.50060  0.93819  0.21985  Biso   1.000  O
  O433     1.0000 0.79190  0.89231  0.10956  Biso   1.000  O
  O434     1.0000 0.58470  0.89450  0.08188  Biso   1.000  O
  O435     1.0000 0.77610  0.86690  0.06962  Biso   1.000  O
  O436     1.0000 0.78470  0.89800  0.20529  Biso   1.000  O
  O437     1.0000 0.75680  0.87760  0.16522  Biso   1.000  O
  O438     1.0000 0.95740  0.90679  0.17315  Biso   1.000  O
  O439     1.0000 0.07440  0.87997  0.07339  Biso   1.000  O
  O440     1.0000 0.27440  0.89942  0.09399  Biso   1.000  O
  O441     1.0000 0.30080  0.85759  0.06753  Biso   1.000  O
  O442     1.0000 0.75840  0.80171  0.03612  Biso   1.000  O
  O443     1.0000 0.92610  0.80371  0.00119  Biso   1.000  O
  O444     1.0000 0.96660  0.83120  0.03787  Biso   1.000  O
  O445     1.0000 0.66510  0.83440  0.12835  Biso   1.000  O
  O446     1.0000 0.45820  0.86557  0.12976  Biso   1.000  O
  O447     1.0000 0.47120  0.82222  0.10318  Biso   1.000  O
  O448     1.0000 0.97860  0.84750  0.13491  Biso   1.000  O
  O449     1.0000 0.95130  0.82300  0.09479  Biso   1.000  O
  O450     1.0000 0.17780  0.82715  0.11564  Biso   1.000  O
  H141     1.0000 0.26720  0.79090  0.02600  Biso   1.000  H
  H142     1.0000 0.83780  0.99690  0.22800  Biso   1.000  H
  H143     1.0000 0.37340  0.96380  0.14250  Biso   1.000  H
  H144     1.0000 0.52390  0.96700  0.24840  Biso   1.000  H
  H145     1.0000 0.78900  0.91790  0.07290  Biso   1.000  H
  H146     1.0000 0.90040  0.85830  0.18660  Biso   1.000  H
  H147     1.0000 0.27810  0.89670  0.05290  Biso   1.000  H
  H148     1.0000 0.90140  0.78460  0.03320  Biso   1.000  H
  H149     1.0000 0.51540  0.82760  0.14280  Biso   1.000  H
  H150     1.0000 0.01370  0.80670  0.13370  Biso   1.000  H
  Ga16     1.0000 0.12320  0.27688  0.52277  Biso   1.000  Ga
  Zn106    1.0000 0.33178  0.43248  0.72027  Biso   1.000  Zn
  Zn107    1.0000 0.29550  0.36244  0.63334  Biso   1.000  Zn
  Zn108    1.0000 0.45220  0.34979  0.56815  Biso   1.000  Zn
  Zn109    1.0000 0.95430  0.39679  0.60715  Biso   1.000  Zn
  Zn110    1.0000 0.00936  0.46610  0.69435  Biso   1.000  Zn
  Zn111    1.0000 0.79765  0.32449  0.58812  Biso   1.000  Zn
  Zn112    1.0000 0.64837  0.41471  0.66529  Biso   1.000  Zn
  P151     1.0000 0.83930  0.28135  0.54628  Biso   1.000  P
  P152     1.0000 0.28680  0.49257  0.70537  Biso   1.000  P
  P153     1.0000 0.93470  0.44212  0.64576  Biso   1.000  P
  P154     1.0000 0.06010  0.44463  0.74480  Biso   1.000  P
  P155     1.0000 0.23520  0.39191  0.58367  Biso   1.000  P
  P156     1.0000 0.35860  0.38678  0.68372  Biso   1.000  P
  P157     1.0000 0.72300  0.38398  0.57192  Biso   1.000  P
  P158     1.0000 0.40560  0.30480  0.52833  Biso   1.000  P
  P159     1.0000 0.01460  0.33646  0.62633  Biso   1.000  P
  P160     1.0000 0.52900  0.32494  0.61837  Biso   1.000  P
  O451     1.0000 0.82630  0.25020  0.54679  Biso   1.000  O
  O452     1.0000 0.98440  0.29121  0.54445  Biso   1.000  O
  O453     1.0000 0.76880  0.29278  0.56835  Biso   1.000  O
  O454     1.0000 0.34500  0.46466  0.69842  Biso   1.000  O
  O455     1.0000 0.33830  0.51596  0.68981  Biso   1.000  O
  O456     1.0000 0.13600  0.49309  0.70537  Biso   1.000  O
  O457     1.0000 0.99360  0.43137  0.62290  Biso   1.000  O
  O458     1.0000 0.04840  0.45022  0.66304  Biso   1.000  O
  O459     1.0000 0.83980  0.42240  0.65805  Biso   1.000  O
  O460     1.0000 0.00370  0.42638  0.76458  Biso   1.000  O
  O461     1.0000 0.20850  0.44367  0.74555  Biso   1.000  O
  O462     1.0000 0.00060  0.43819  0.71985  Biso   1.000  O
  O463     1.0000 0.29190  0.39231  0.60956  Biso   1.000  O
  O464     1.0000 0.08470  0.39450  0.58188  Biso   1.000  O
  O465     1.0000 0.27610  0.36690  0.56962  Biso   1.000  O
  O466     1.0000 0.28470  0.39800  0.70529  Biso   1.000  O
  O467     1.0000 0.25680  0.37760  0.66522  Biso   1.000  O
  O468     1.0000 0.45740  0.40679  0.67315  Biso   1.000  O
  O469     1.0000 0.57440  0.37997  0.57339  Biso   1.000  O
  O470     1.0000 0.77440  0.39942  0.59399  Biso   1.000  O
  O471     1.0000 0.80080  0.35759  0.56753  Biso   1.000  O
  O472     1.0000 0.25840  0.30171  0.53612  Biso   1.000  O
  O473     1.0000 0.42610  0.30371  0.50119  Biso   1.000  O
  O474     1.0000 0.46660  0.33120  0.53787  Biso   1.000  O
  O475     1.0000 0.16510  0.33440  0.62835  Biso   1.000  O
  O476     1.0000 0.95820  0.36557  0.62976  Biso   1.000  O
  O477     1.0000 0.97120  0.32222  0.60318  Biso   1.000  O
  O478     1.0000 0.47860  0.34750  0.63491  Biso   1.000  O
  O479     1.0000 0.45130  0.32300  0.59479  Biso   1.000  O
  O480     1.0000 0.67780  0.32715  0.61564  Biso   1.000  O
  H151     1.0000 0.76720  0.29090  0.52600  Biso   1.000  H
  H152     1.0000 0.33780  0.49690  0.72800  Biso   1.000  H
  H153     1.0000 0.87340  0.46380  0.64250  Biso   1.000  H
  H154     1.0000 0.02390  0.46700  0.74840  Biso   1.000  H
  H155     1.0000 0.28900  0.41790  0.57290  Biso   1.000  H
  H156     1.0000 0.40040  0.35830  0.68660  Biso   1.000  H
  H157     1.0000 0.77810  0.39670  0.55290  Biso   1.000  H
  H158     1.0000 0.40140  0.28460  0.53320  Biso   1.000  H
  H159     1.0000 0.01540  0.32760  0.64280  Biso   1.000  H
  H160     1.0000 0.51370  0.30670  0.63370  Biso   1.000  H
  F1       1.0000 0.75000  0.26105  0.00000  Biso   1.000  F
  F2       1.0000 0.75000  0.73895  0.50000  Biso   1.000  F
  F3       1.0000 0.25000  0.76105  0.50000  Biso   1.000  F
  F4       1.0000 0.25000  0.23895  0.00000  Biso   1.000  F
  F5       1.0000 0.25000  0.73895  0.00000  Biso   1.000  F
  F6       1.0000 0.25000  0.26105  0.50000  Biso   1.000  F
  F7       1.0000 0.75000  0.23895  0.50000  Biso   1.000  F
  F8       1.0000 0.75000  0.76105  0.00000  Biso   1.000  F
  F9       1.0000 0.00000  0.25000  0.00884  Biso   1.000  F
  F10      1.0000 0.50000  0.75000  0.50884  Biso   1.000  F
  F11      1.0000 0.00000  0.75000  0.49116  Biso   1.000  F
  F12      1.0000 0.50000  0.25000  0.99116  Biso   1.000  F
  F13      1.0000 0.00000  0.75000  0.99116  Biso   1.000  F
  F14      1.0000 0.50000  0.25000  0.49116  Biso   1.000  F
  F15      1.0000 0.00000  0.25000  0.50884  Biso   1.000  F
  F16      1.0000 0.50000  0.75000  0.00884  Biso   1.000  F
