data_GAYTEH_ion_b
_audit_creation_date              2014-07-02
_audit_creation_method            'Materials Studio'
_symmetry_space_group_name_H-M    'P1'
_symmetry_Int_Tables_number       1
_symmetry_cell_setting            triclinic
loop_
_symmetry_equiv_pos_as_xyz
  x,y,z
_cell_length_a                    24.3984
_cell_length_b                    24.3984
_cell_length_c                    24.3984
_cell_angle_alpha                 90.0000
_cell_angle_beta                  90.0000
_cell_angle_gamma                 90.0000
loop_
_atom_site_label
_atom_site_type_symbol
_atom_site_fract_x
_atom_site_fract_y
_atom_site_fract_z
_atom_site_U_iso_or_equiv
_atom_site_adp_type
_atom_site_occupancy
Cu1    Cu    0.78169   0.10923   0.06471   0.00000  Uiso   1.00
Cu2    Cu    0.00803   0.15265   0.80254   0.00000  Uiso   1.00
O3     O     0.80422   0.10490   0.98774   0.00000  Uiso   1.00
O4     O     0.72640   0.06270   0.97130   0.00000  Uiso   1.00
O5     O     0.93839   0.13081   0.83571   0.00000  Uiso   1.00
O6     O     0.73521   0.02660   0.71563   0.00000  Uiso   1.00
O7     O     0.91760   0.10100   0.75290   0.00000  Uiso   1.00
O8     O     0.66735   0.04946   0.77287   0.00000  Uiso   1.00
O9     O     0.81379   0.04013   0.08234   0.00000  Uiso   1.00
H10    H     0.82900   0.02170   0.05730   0.00000  Uiso   1.00
N11    N     0.77910   0.07940   0.17890   0.00000  Uiso   1.00
N12    N     0.77050   0.12110   0.14310   0.00000  Uiso   1.00
C13    C     0.78490   0.08030   0.89560   0.00000  Uiso   1.00
C14    C     0.77000   0.08230   0.95590   0.00000  Uiso   1.00
C15    C     0.85020   0.09200   0.82260   0.00000  Uiso   1.00
C16    C     0.83710   0.09530   0.87770   0.00000  Uiso   1.00
H17    H     0.86300   0.10760   0.90270   0.00000  Uiso   1.00
C18    C     0.74590   0.06300   0.85770   0.00000  Uiso   1.00
H19    H     0.71090   0.05350   0.86940   0.00000  Uiso   1.00
C20    C     0.75910   0.05990   0.80250   0.00000  Uiso   1.00
C21    C     0.71740   0.04370   0.76060   0.00000  Uiso   1.00
C22    C     0.81120   0.07370   0.78530   0.00000  Uiso   1.00
H23    H     0.82020   0.07080   0.74830   0.00000  Uiso   1.00
C24    C     0.90560   0.10880   0.80210   0.00000  Uiso   1.00
C25    C     0.76100   0.16610   0.17270   0.00000  Uiso   1.00
H26    H     0.75300   0.20040   0.15800   0.00000  Uiso   1.00
C27    C     0.77570   0.10030   0.22990   0.00000  Uiso   1.00
H28    H     0.78030   0.08020   0.26190   0.00000  Uiso   1.00
C29    C     0.76450   0.15490   0.22800   0.00000  Uiso   1.00
H30    H     0.76030   0.17910   0.25720   0.00000  Uiso   1.00
Na31   Na    0.92440   0.07720   0.66160   0.00000  Uiso   1.00
O32    O     0.84350   0.01320   0.65240   0.00000  Uiso   1.00
O33    O     0.94490   0.98910   0.70200   0.00000  Uiso   1.00
O34    O     0.01790   0.06270   0.67360   0.00000  Uiso   1.00
Cu37   Cu    0.71831   0.89077   0.56471   0.00000  Uiso   1.00
Cu38   Cu    0.49197   0.84735   0.30254   0.00000  Uiso   1.00
O39    O     0.69578   0.89510   0.48774   0.00000  Uiso   1.00
O40    O     0.77360   0.93730   0.47130   0.00000  Uiso   1.00
O41    O     0.56161   0.86919   0.33571   0.00000  Uiso   1.00
O42    O     0.76479   0.97340   0.21563   0.00000  Uiso   1.00
O43    O     0.58240   0.89900   0.25290   0.00000  Uiso   1.00
O44    O     0.83265   0.95054   0.27287   0.00000  Uiso   1.00
O45    O     0.68621   0.95987   0.58234   0.00000  Uiso   1.00
H46    H     0.67100   0.97830   0.55730   0.00000  Uiso   1.00
N47    N     0.72090   0.92060   0.67890   0.00000  Uiso   1.00
N48    N     0.72950   0.87890   0.64310   0.00000  Uiso   1.00
C49    C     0.71510   0.91970   0.39560   0.00000  Uiso   1.00
C50    C     0.73000   0.91770   0.45590   0.00000  Uiso   1.00
C51    C     0.64980   0.90800   0.32260   0.00000  Uiso   1.00
C52    C     0.66290   0.90470   0.37770   0.00000  Uiso   1.00
H53    H     0.63700   0.89240   0.40270   0.00000  Uiso   1.00
C54    C     0.75410   0.93700   0.35770   0.00000  Uiso   1.00
H55    H     0.78910   0.94650   0.36940   0.00000  Uiso   1.00
C56    C     0.74090   0.94010   0.30250   0.00000  Uiso   1.00
C57    C     0.78260   0.95630   0.26060   0.00000  Uiso   1.00
C58    C     0.68880   0.92630   0.28530   0.00000  Uiso   1.00
H59    H     0.67980   0.92920   0.24830   0.00000  Uiso   1.00
C60    C     0.59440   0.89120   0.30210   0.00000  Uiso   1.00
C61    C     0.73900   0.83390   0.67270   0.00000  Uiso   1.00
H62    H     0.74700   0.79960   0.65800   0.00000  Uiso   1.00
C63    C     0.72430   0.89970   0.72990   0.00000  Uiso   1.00
H64    H     0.71970   0.91980   0.76190   0.00000  Uiso   1.00
C65    C     0.73550   0.84510   0.72800   0.00000  Uiso   1.00
H66    H     0.73970   0.82090   0.75720   0.00000  Uiso   1.00
Na67   Na    0.57560   0.92280   0.16160   0.00000  Uiso   1.00
O68    O     0.65650   0.98680   0.15240   0.00000  Uiso   1.00
O69    O     0.55510   0.01090   0.20200   0.00000  Uiso   1.00
O70    O     0.48210   0.93730   0.17360   0.00000  Uiso   1.00
Cu73   Cu    0.21831   0.60923   0.43529   0.00000  Uiso   1.00
Cu74   Cu    0.99197   0.65265   0.69746   0.00000  Uiso   1.00
O75    O     0.19578   0.60490   0.51226   0.00000  Uiso   1.00
O76    O     0.27360   0.56270   0.52870   0.00000  Uiso   1.00
O77    O     0.06161   0.63081   0.66429   0.00000  Uiso   1.00
O78    O     0.26479   0.52660   0.78437   0.00000  Uiso   1.00
O79    O     0.08240   0.60100   0.74710   0.00000  Uiso   1.00
O80    O     0.33265   0.54946   0.72713   0.00000  Uiso   1.00
O81    O     0.18621   0.54013   0.41766   0.00000  Uiso   1.00
H82    H     0.17100   0.52170   0.44270   0.00000  Uiso   1.00
N83    N     0.22090   0.57940   0.32110   0.00000  Uiso   1.00
N84    N     0.22950   0.62110   0.35690   0.00000  Uiso   1.00
C85    C     0.21510   0.58030   0.60440   0.00000  Uiso   1.00
C86    C     0.23000   0.58230   0.54410   0.00000  Uiso   1.00
C87    C     0.14980   0.59200   0.67740   0.00000  Uiso   1.00
C88    C     0.16290   0.59530   0.62230   0.00000  Uiso   1.00
H89    H     0.13700   0.60760   0.59730   0.00000  Uiso   1.00
C90    C     0.25410   0.56300   0.64230   0.00000  Uiso   1.00
H91    H     0.28910   0.55350   0.63060   0.00000  Uiso   1.00
C92    C     0.24090   0.55990   0.69750   0.00000  Uiso   1.00
C93    C     0.28260   0.54370   0.73940   0.00000  Uiso   1.00
C94    C     0.18880   0.57370   0.71470   0.00000  Uiso   1.00
H95    H     0.17980   0.57080   0.75170   0.00000  Uiso   1.00
C96    C     0.09440   0.60880   0.69790   0.00000  Uiso   1.00
C97    C     0.23900   0.66610   0.32730   0.00000  Uiso   1.00
H98    H     0.24700   0.70040   0.34200   0.00000  Uiso   1.00
C99    C     0.22430   0.60030   0.27010   0.00000  Uiso   1.00
H100   H     0.21970   0.58020   0.23810   0.00000  Uiso   1.00
C101   C     0.23550   0.65490   0.27200   0.00000  Uiso   1.00
H102   H     0.23970   0.67910   0.24280   0.00000  Uiso   1.00
Na103  Na    0.07560   0.57720   0.83840   0.00000  Uiso   1.00
O104   O     0.15650   0.51320   0.84760   0.00000  Uiso   1.00
O105   O     0.05510   0.48910   0.79800   0.00000  Uiso   1.00
O106   O     0.98210   0.56270   0.82640   0.00000  Uiso   1.00
Cu109  Cu    0.28169   0.39077   0.93529   0.00000  Uiso   1.00
Cu110  Cu    0.50803   0.34735   0.19746   0.00000  Uiso   1.00
O111   O     0.30422   0.39510   0.01226   0.00000  Uiso   1.00
O112   O     0.22640   0.43730   0.02870   0.00000  Uiso   1.00
O113   O     0.43839   0.36919   0.16429   0.00000  Uiso   1.00
O114   O     0.23521   0.47340   0.28437   0.00000  Uiso   1.00
O115   O     0.41760   0.39900   0.24710   0.00000  Uiso   1.00
O116   O     0.16735   0.45054   0.22713   0.00000  Uiso   1.00
O117   O     0.31379   0.45987   0.91766   0.00000  Uiso   1.00
H118   H     0.32900   0.47830   0.94270   0.00000  Uiso   1.00
N119   N     0.27910   0.42060   0.82110   0.00000  Uiso   1.00
N120   N     0.27050   0.37890   0.85690   0.00000  Uiso   1.00
C121   C     0.28490   0.41970   0.10440   0.00000  Uiso   1.00
C122   C     0.27000   0.41770   0.04410   0.00000  Uiso   1.00
C123   C     0.35020   0.40800   0.17740   0.00000  Uiso   1.00
C124   C     0.33710   0.40470   0.12230   0.00000  Uiso   1.00
H125   H     0.36300   0.39240   0.09730   0.00000  Uiso   1.00
C126   C     0.24590   0.43700   0.14230   0.00000  Uiso   1.00
H127   H     0.21090   0.44650   0.13060   0.00000  Uiso   1.00
C128   C     0.25910   0.44010   0.19750   0.00000  Uiso   1.00
C129   C     0.21740   0.45630   0.23940   0.00000  Uiso   1.00
C130   C     0.31120   0.42630   0.21470   0.00000  Uiso   1.00
H131   H     0.32020   0.42920   0.25170   0.00000  Uiso   1.00
C132   C     0.40560   0.39120   0.19790   0.00000  Uiso   1.00
C133   C     0.26100   0.33390   0.82730   0.00000  Uiso   1.00
H134   H     0.25300   0.29960   0.84200   0.00000  Uiso   1.00
C135   C     0.27570   0.39970   0.77010   0.00000  Uiso   1.00
H136   H     0.28030   0.41980   0.73810   0.00000  Uiso   1.00
C137   C     0.26450   0.34510   0.77200   0.00000  Uiso   1.00
H138   H     0.26030   0.32090   0.74280   0.00000  Uiso   1.00
Na139  Na    0.42440   0.42280   0.33840   0.00000  Uiso   1.00
O140   O     0.34350   0.48680   0.34760   0.00000  Uiso   1.00
O141   O     0.44490   0.51090   0.29800   0.00000  Uiso   1.00
O142   O     0.51790   0.43730   0.32640   0.00000  Uiso   1.00
Cu145  Cu    0.06471   0.78169   0.10923   0.00000  Uiso   1.00
Cu146  Cu    0.80254   0.00803   0.15265   0.00000  Uiso   1.00
O147   O     0.98774   0.80422   0.10490   0.00000  Uiso   1.00
O148   O     0.97130   0.72640   0.06270   0.00000  Uiso   1.00
O149   O     0.83571   0.93839   0.13081   0.00000  Uiso   1.00
O150   O     0.71563   0.73521   0.02660   0.00000  Uiso   1.00
O151   O     0.75290   0.91760   0.10100   0.00000  Uiso   1.00
O152   O     0.77287   0.66735   0.04946   0.00000  Uiso   1.00
O153   O     0.08234   0.81379   0.04013   0.00000  Uiso   1.00
H154   H     0.05730   0.82900   0.02170   0.00000  Uiso   1.00
N155   N     0.17890   0.77910   0.07940   0.00000  Uiso   1.00
N156   N     0.14310   0.77050   0.12110   0.00000  Uiso   1.00
C157   C     0.89560   0.78490   0.08030   0.00000  Uiso   1.00
C158   C     0.95590   0.77000   0.08230   0.00000  Uiso   1.00
C159   C     0.82260   0.85020   0.09200   0.00000  Uiso   1.00
C160   C     0.87770   0.83710   0.09530   0.00000  Uiso   1.00
H161   H     0.90270   0.86300   0.10760   0.00000  Uiso   1.00
C162   C     0.85770   0.74590   0.06300   0.00000  Uiso   1.00
H163   H     0.86940   0.71090   0.05350   0.00000  Uiso   1.00
C164   C     0.80250   0.75910   0.05990   0.00000  Uiso   1.00
C165   C     0.76060   0.71740   0.04370   0.00000  Uiso   1.00
C166   C     0.78530   0.81120   0.07370   0.00000  Uiso   1.00
H167   H     0.74830   0.82020   0.07080   0.00000  Uiso   1.00
C168   C     0.80210   0.90560   0.10880   0.00000  Uiso   1.00
C169   C     0.17270   0.76100   0.16610   0.00000  Uiso   1.00
H170   H     0.15800   0.75300   0.20040   0.00000  Uiso   1.00
C171   C     0.22990   0.77570   0.10030   0.00000  Uiso   1.00
H172   H     0.26190   0.78030   0.08020   0.00000  Uiso   1.00
C173   C     0.22800   0.76450   0.15490   0.00000  Uiso   1.00
H174   H     0.25720   0.76030   0.17910   0.00000  Uiso   1.00
Na175  Na    0.66160   0.92440   0.07720   0.00000  Uiso   1.00
O176   O     0.65240   0.84350   0.01320   0.00000  Uiso   1.00
O177   O     0.70200   0.94490   0.98910   0.00000  Uiso   1.00
O178   O     0.67360   0.01790   0.06270   0.00000  Uiso   1.00
Cu181  Cu    0.56471   0.71831   0.89077   0.00000  Uiso   1.00
Cu182  Cu    0.30254   0.49197   0.84735   0.00000  Uiso   1.00
O183   O     0.48774   0.69578   0.89510   0.00000  Uiso   1.00
O184   O     0.47130   0.77360   0.93730   0.00000  Uiso   1.00
O185   O     0.33571   0.56161   0.86919   0.00000  Uiso   1.00
O186   O     0.21563   0.76479   0.97340   0.00000  Uiso   1.00
O187   O     0.25290   0.58240   0.89900   0.00000  Uiso   1.00
O188   O     0.27287   0.83265   0.95054   0.00000  Uiso   1.00
O189   O     0.58234   0.68621   0.95987   0.00000  Uiso   1.00
H190   H     0.55730   0.67100   0.97830   0.00000  Uiso   1.00
N191   N     0.67890   0.72090   0.92060   0.00000  Uiso   1.00
N192   N     0.64310   0.72950   0.87890   0.00000  Uiso   1.00
C193   C     0.39560   0.71510   0.91970   0.00000  Uiso   1.00
C194   C     0.45590   0.73000   0.91770   0.00000  Uiso   1.00
C195   C     0.32260   0.64980   0.90800   0.00000  Uiso   1.00
C196   C     0.37770   0.66290   0.90470   0.00000  Uiso   1.00
H197   H     0.40270   0.63700   0.89240   0.00000  Uiso   1.00
C198   C     0.35770   0.75410   0.93700   0.00000  Uiso   1.00
H199   H     0.36940   0.78910   0.94650   0.00000  Uiso   1.00
C200   C     0.30250   0.74090   0.94010   0.00000  Uiso   1.00
C201   C     0.26060   0.78260   0.95630   0.00000  Uiso   1.00
C202   C     0.28530   0.68880   0.92630   0.00000  Uiso   1.00
H203   H     0.24830   0.67980   0.92920   0.00000  Uiso   1.00
C204   C     0.30210   0.59440   0.89120   0.00000  Uiso   1.00
C205   C     0.67270   0.73900   0.83390   0.00000  Uiso   1.00
H206   H     0.65800   0.74700   0.79960   0.00000  Uiso   1.00
C207   C     0.72990   0.72430   0.89970   0.00000  Uiso   1.00
H208   H     0.76190   0.71970   0.91980   0.00000  Uiso   1.00
C209   C     0.72800   0.73550   0.84510   0.00000  Uiso   1.00
H210   H     0.75720   0.73970   0.82090   0.00000  Uiso   1.00
Na211  Na    0.16160   0.57560   0.92280   0.00000  Uiso   1.00
O212   O     0.15240   0.65650   0.98680   0.00000  Uiso   1.00
O213   O     0.20200   0.55510   0.01090   0.00000  Uiso   1.00
O214   O     0.17360   0.48210   0.93730   0.00000  Uiso   1.00
Cu217  Cu    0.43529   0.21831   0.60923   0.00000  Uiso   1.00
Cu218  Cu    0.69746   0.99197   0.65265   0.00000  Uiso   1.00
O219   O     0.51226   0.19578   0.60490   0.00000  Uiso   1.00
O220   O     0.52870   0.27360   0.56270   0.00000  Uiso   1.00
O221   O     0.66429   0.06161   0.63081   0.00000  Uiso   1.00
O222   O     0.78437   0.26479   0.52660   0.00000  Uiso   1.00
O223   O     0.74710   0.08240   0.60100   0.00000  Uiso   1.00
O224   O     0.72713   0.33265   0.54946   0.00000  Uiso   1.00
O225   O     0.41766   0.18621   0.54013   0.00000  Uiso   1.00
H226   H     0.44270   0.17100   0.52170   0.00000  Uiso   1.00
N227   N     0.32110   0.22090   0.57940   0.00000  Uiso   1.00
N228   N     0.35690   0.22950   0.62110   0.00000  Uiso   1.00
C229   C     0.60440   0.21510   0.58030   0.00000  Uiso   1.00
C230   C     0.54410   0.23000   0.58230   0.00000  Uiso   1.00
C231   C     0.67740   0.14980   0.59200   0.00000  Uiso   1.00
C232   C     0.62230   0.16290   0.59530   0.00000  Uiso   1.00
H233   H     0.59730   0.13700   0.60760   0.00000  Uiso   1.00
C234   C     0.64230   0.25410   0.56300   0.00000  Uiso   1.00
H235   H     0.63060   0.28910   0.55350   0.00000  Uiso   1.00
C236   C     0.69750   0.24090   0.55990   0.00000  Uiso   1.00
C237   C     0.73940   0.28260   0.54370   0.00000  Uiso   1.00
C238   C     0.71470   0.18880   0.57370   0.00000  Uiso   1.00
H239   H     0.75170   0.17980   0.57080   0.00000  Uiso   1.00
C240   C     0.69790   0.09440   0.60880   0.00000  Uiso   1.00
C241   C     0.32730   0.23900   0.66610   0.00000  Uiso   1.00
H242   H     0.34200   0.24700   0.70040   0.00000  Uiso   1.00
C243   C     0.27010   0.22430   0.60030   0.00000  Uiso   1.00
H244   H     0.23810   0.21970   0.58020   0.00000  Uiso   1.00
C245   C     0.27200   0.23550   0.65490   0.00000  Uiso   1.00
H246   H     0.24280   0.23970   0.67910   0.00000  Uiso   1.00
Na247  Na    0.83840   0.07560   0.57720   0.00000  Uiso   1.00
O248   O     0.84760   0.15650   0.51320   0.00000  Uiso   1.00
O249   O     0.79800   0.05510   0.48910   0.00000  Uiso   1.00
O250   O     0.82640   0.98210   0.56270   0.00000  Uiso   1.00
Cu253  Cu    0.93529   0.28169   0.39077   0.00000  Uiso   1.00
Cu254  Cu    0.19746   0.50803   0.34735   0.00000  Uiso   1.00
O255   O     0.01226   0.30422   0.39510   0.00000  Uiso   1.00
O256   O     0.02870   0.22640   0.43730   0.00000  Uiso   1.00
O257   O     0.16429   0.43839   0.36919   0.00000  Uiso   1.00
O258   O     0.28437   0.23521   0.47340   0.00000  Uiso   1.00
O259   O     0.24710   0.41760   0.39900   0.00000  Uiso   1.00
O260   O     0.22713   0.16735   0.45054   0.00000  Uiso   1.00
O261   O     0.91766   0.31379   0.45987   0.00000  Uiso   1.00
H262   H     0.94270   0.32900   0.47830   0.00000  Uiso   1.00
N263   N     0.82110   0.27910   0.42060   0.00000  Uiso   1.00
N264   N     0.85690   0.27050   0.37890   0.00000  Uiso   1.00
C265   C     0.10440   0.28490   0.41970   0.00000  Uiso   1.00
C266   C     0.04410   0.27000   0.41770   0.00000  Uiso   1.00
C267   C     0.17740   0.35020   0.40800   0.00000  Uiso   1.00
C268   C     0.12230   0.33710   0.40470   0.00000  Uiso   1.00
H269   H     0.09730   0.36300   0.39240   0.00000  Uiso   1.00
C270   C     0.14230   0.24590   0.43700   0.00000  Uiso   1.00
H271   H     0.13060   0.21090   0.44650   0.00000  Uiso   1.00
C272   C     0.19750   0.25910   0.44010   0.00000  Uiso   1.00
C273   C     0.23940   0.21740   0.45630   0.00000  Uiso   1.00
C274   C     0.21470   0.31120   0.42630   0.00000  Uiso   1.00
H275   H     0.25170   0.32020   0.42920   0.00000  Uiso   1.00
C276   C     0.19790   0.40560   0.39120   0.00000  Uiso   1.00
C277   C     0.82730   0.26100   0.33390   0.00000  Uiso   1.00
H278   H     0.84200   0.25300   0.29960   0.00000  Uiso   1.00
C279   C     0.77010   0.27570   0.39970   0.00000  Uiso   1.00
H280   H     0.73810   0.28030   0.41980   0.00000  Uiso   1.00
C281   C     0.77200   0.26450   0.34510   0.00000  Uiso   1.00
H282   H     0.74280   0.26030   0.32090   0.00000  Uiso   1.00
Na283  Na    0.33840   0.42440   0.42280   0.00000  Uiso   1.00
O284   O     0.34760   0.34350   0.48680   0.00000  Uiso   1.00
O285   O     0.29800   0.44490   0.51090   0.00000  Uiso   1.00
O286   O     0.32640   0.51790   0.43730   0.00000  Uiso   1.00
Cu289  Cu    0.10923   0.06471   0.78169   0.00000  Uiso   1.00
Cu290  Cu    0.15265   0.80254   0.00803   0.00000  Uiso   1.00
O291   O     0.10490   0.98774   0.80422   0.00000  Uiso   1.00
O292   O     0.06270   0.97130   0.72640   0.00000  Uiso   1.00
O293   O     0.13081   0.83571   0.93839   0.00000  Uiso   1.00
O294   O     0.02660   0.71563   0.73521   0.00000  Uiso   1.00
O295   O     0.10100   0.75290   0.91760   0.00000  Uiso   1.00
O296   O     0.04946   0.77287   0.66735   0.00000  Uiso   1.00
O297   O     0.04013   0.08234   0.81379   0.00000  Uiso   1.00
H298   H     0.02170   0.05730   0.82900   0.00000  Uiso   1.00
N299   N     0.07940   0.17890   0.77910   0.00000  Uiso   1.00
N300   N     0.12110   0.14310   0.77050   0.00000  Uiso   1.00
C301   C     0.08030   0.89560   0.78490   0.00000  Uiso   1.00
C302   C     0.08230   0.95590   0.77000   0.00000  Uiso   1.00
C303   C     0.09200   0.82260   0.85020   0.00000  Uiso   1.00
C304   C     0.09530   0.87770   0.83710   0.00000  Uiso   1.00
H305   H     0.10760   0.90270   0.86300   0.00000  Uiso   1.00
C306   C     0.06300   0.85770   0.74590   0.00000  Uiso   1.00
H307   H     0.05350   0.86940   0.71090   0.00000  Uiso   1.00
C308   C     0.05990   0.80250   0.75910   0.00000  Uiso   1.00
C309   C     0.04370   0.76060   0.71740   0.00000  Uiso   1.00
C310   C     0.07370   0.78530   0.81120   0.00000  Uiso   1.00
H311   H     0.07080   0.74830   0.82020   0.00000  Uiso   1.00
C312   C     0.10880   0.80210   0.90560   0.00000  Uiso   1.00
C313   C     0.16610   0.17270   0.76100   0.00000  Uiso   1.00
H314   H     0.20040   0.15800   0.75300   0.00000  Uiso   1.00
C315   C     0.10030   0.22990   0.77570   0.00000  Uiso   1.00
H316   H     0.08020   0.26190   0.78030   0.00000  Uiso   1.00
C317   C     0.15490   0.22800   0.76450   0.00000  Uiso   1.00
H318   H     0.17910   0.25720   0.76030   0.00000  Uiso   1.00
Na319  Na    0.07720   0.66160   0.92440   0.00000  Uiso   1.00
O320   O     0.01320   0.65240   0.84350   0.00000  Uiso   1.00
O321   O     0.98910   0.70200   0.94490   0.00000  Uiso   1.00
O322   O     0.06270   0.67360   0.01790   0.00000  Uiso   1.00
Cu325  Cu    0.89077   0.56471   0.71831   0.00000  Uiso   1.00
Cu326  Cu    0.84735   0.30254   0.49197   0.00000  Uiso   1.00
O327   O     0.89510   0.48774   0.69578   0.00000  Uiso   1.00
O328   O     0.93730   0.47130   0.77360   0.00000  Uiso   1.00
O329   O     0.86919   0.33571   0.56161   0.00000  Uiso   1.00
O330   O     0.97340   0.21563   0.76479   0.00000  Uiso   1.00
O331   O     0.89900   0.25290   0.58240   0.00000  Uiso   1.00
O332   O     0.95054   0.27287   0.83265   0.00000  Uiso   1.00
O333   O     0.95987   0.58234   0.68621   0.00000  Uiso   1.00
H334   H     0.97830   0.55730   0.67100   0.00000  Uiso   1.00
N335   N     0.92060   0.67890   0.72090   0.00000  Uiso   1.00
N336   N     0.87890   0.64310   0.72950   0.00000  Uiso   1.00
C337   C     0.91970   0.39560   0.71510   0.00000  Uiso   1.00
C338   C     0.91770   0.45590   0.73000   0.00000  Uiso   1.00
C339   C     0.90800   0.32260   0.64980   0.00000  Uiso   1.00
C340   C     0.90470   0.37770   0.66290   0.00000  Uiso   1.00
H341   H     0.89240   0.40270   0.63700   0.00000  Uiso   1.00
C342   C     0.93700   0.35770   0.75410   0.00000  Uiso   1.00
H343   H     0.94650   0.36940   0.78910   0.00000  Uiso   1.00
C344   C     0.94010   0.30250   0.74090   0.00000  Uiso   1.00
C345   C     0.95630   0.26060   0.78260   0.00000  Uiso   1.00
C346   C     0.92630   0.28530   0.68880   0.00000  Uiso   1.00
H347   H     0.92920   0.24830   0.67980   0.00000  Uiso   1.00
C348   C     0.89120   0.30210   0.59440   0.00000  Uiso   1.00
C349   C     0.83390   0.67270   0.73900   0.00000  Uiso   1.00
H350   H     0.79960   0.65800   0.74700   0.00000  Uiso   1.00
C351   C     0.89970   0.72990   0.72430   0.00000  Uiso   1.00
H352   H     0.91980   0.76190   0.71970   0.00000  Uiso   1.00
C353   C     0.84510   0.72800   0.73550   0.00000  Uiso   1.00
H354   H     0.82090   0.75720   0.73970   0.00000  Uiso   1.00
Na355  Na    0.92280   0.16160   0.57560   0.00000  Uiso   1.00
O356   O     0.98680   0.15240   0.65650   0.00000  Uiso   1.00
O357   O     0.01090   0.20200   0.55510   0.00000  Uiso   1.00
O358   O     0.93730   0.17360   0.48210   0.00000  Uiso   1.00
Cu361  Cu    0.60923   0.43529   0.21831   0.00000  Uiso   1.00
Cu362  Cu    0.65265   0.69746   0.99197   0.00000  Uiso   1.00
O363   O     0.60490   0.51226   0.19578   0.00000  Uiso   1.00
O364   O     0.56270   0.52870   0.27360   0.00000  Uiso   1.00
O365   O     0.63081   0.66429   0.06161   0.00000  Uiso   1.00
O366   O     0.52660   0.78437   0.26479   0.00000  Uiso   1.00
O367   O     0.60100   0.74710   0.08240   0.00000  Uiso   1.00
O368   O     0.54946   0.72713   0.33265   0.00000  Uiso   1.00
O369   O     0.54013   0.41766   0.18621   0.00000  Uiso   1.00
H370   H     0.52170   0.44270   0.17100   0.00000  Uiso   1.00
N371   N     0.57940   0.32110   0.22090   0.00000  Uiso   1.00
N372   N     0.62110   0.35690   0.22950   0.00000  Uiso   1.00
C373   C     0.58030   0.60440   0.21510   0.00000  Uiso   1.00
C374   C     0.58230   0.54410   0.23000   0.00000  Uiso   1.00
C375   C     0.59200   0.67740   0.14980   0.00000  Uiso   1.00
C376   C     0.59530   0.62230   0.16290   0.00000  Uiso   1.00
H377   H     0.60760   0.59730   0.13700   0.00000  Uiso   1.00
C378   C     0.56300   0.64230   0.25410   0.00000  Uiso   1.00
H379   H     0.55350   0.63060   0.28910   0.00000  Uiso   1.00
C380   C     0.55990   0.69750   0.24090   0.00000  Uiso   1.00
C381   C     0.54370   0.73940   0.28260   0.00000  Uiso   1.00
C382   C     0.57370   0.71470   0.18880   0.00000  Uiso   1.00
H383   H     0.57080   0.75170   0.17980   0.00000  Uiso   1.00
C384   C     0.60880   0.69790   0.09440   0.00000  Uiso   1.00
C385   C     0.66610   0.32730   0.23900   0.00000  Uiso   1.00
H386   H     0.70040   0.34200   0.24700   0.00000  Uiso   1.00
C387   C     0.60030   0.27010   0.22430   0.00000  Uiso   1.00
H388   H     0.58020   0.23810   0.21970   0.00000  Uiso   1.00
C389   C     0.65490   0.27200   0.23550   0.00000  Uiso   1.00
H390   H     0.67910   0.24280   0.23970   0.00000  Uiso   1.00
Na391  Na    0.57720   0.83840   0.07560   0.00000  Uiso   1.00
O392   O     0.51320   0.84760   0.15650   0.00000  Uiso   1.00
O393   O     0.48910   0.79800   0.05510   0.00000  Uiso   1.00
O394   O     0.56270   0.82640   0.98210   0.00000  Uiso   1.00
Cu397  Cu    0.39077   0.93529   0.28169   0.00000  Uiso   1.00
Cu398  Cu    0.34735   0.19746   0.50803   0.00000  Uiso   1.00
O399   O     0.39510   0.01226   0.30422   0.00000  Uiso   1.00
O400   O     0.43730   0.02870   0.22640   0.00000  Uiso   1.00
O401   O     0.36919   0.16429   0.43839   0.00000  Uiso   1.00
O402   O     0.47340   0.28437   0.23521   0.00000  Uiso   1.00
O403   O     0.39900   0.24710   0.41760   0.00000  Uiso   1.00
O404   O     0.45054   0.22713   0.16735   0.00000  Uiso   1.00
O405   O     0.45987   0.91766   0.31379   0.00000  Uiso   1.00
H406   H     0.47830   0.94270   0.32900   0.00000  Uiso   1.00
N407   N     0.42060   0.82110   0.27910   0.00000  Uiso   1.00
N408   N     0.37890   0.85690   0.27050   0.00000  Uiso   1.00
C409   C     0.41970   0.10440   0.28490   0.00000  Uiso   1.00
C410   C     0.41770   0.04410   0.27000   0.00000  Uiso   1.00
C411   C     0.40800   0.17740   0.35020   0.00000  Uiso   1.00
C412   C     0.40470   0.12230   0.33710   0.00000  Uiso   1.00
H413   H     0.39240   0.09730   0.36300   0.00000  Uiso   1.00
C414   C     0.43700   0.14230   0.24590   0.00000  Uiso   1.00
H415   H     0.44650   0.13060   0.21090   0.00000  Uiso   1.00
C416   C     0.44010   0.19750   0.25910   0.00000  Uiso   1.00
C417   C     0.45630   0.23940   0.21740   0.00000  Uiso   1.00
C418   C     0.42630   0.21470   0.31120   0.00000  Uiso   1.00
H419   H     0.42920   0.25170   0.32020   0.00000  Uiso   1.00
C420   C     0.39120   0.19790   0.40560   0.00000  Uiso   1.00
C421   C     0.33390   0.82730   0.26100   0.00000  Uiso   1.00
H422   H     0.29960   0.84200   0.25300   0.00000  Uiso   1.00
C423   C     0.39970   0.77010   0.27570   0.00000  Uiso   1.00
H424   H     0.41980   0.73810   0.28030   0.00000  Uiso   1.00
C425   C     0.34510   0.77200   0.26450   0.00000  Uiso   1.00
H426   H     0.32090   0.74280   0.26030   0.00000  Uiso   1.00
Na427  Na    0.42280   0.33840   0.42440   0.00000  Uiso   1.00
O428   O     0.48680   0.34760   0.34350   0.00000  Uiso   1.00
O429   O     0.51090   0.29800   0.44490   0.00000  Uiso   1.00
O430   O     0.43730   0.32640   0.51790   0.00000  Uiso   1.00
Cu433  Cu    0.21831   0.89077   0.93529   0.00000  Uiso   1.00
Cu434  Cu    0.99197   0.84735   0.19746   0.00000  Uiso   1.00
O435   O     0.19578   0.89510   0.01226   0.00000  Uiso   1.00
O436   O     0.27360   0.93730   0.02870   0.00000  Uiso   1.00
O437   O     0.06161   0.86919   0.16429   0.00000  Uiso   1.00
O438   O     0.26479   0.97340   0.28437   0.00000  Uiso   1.00
O439   O     0.08240   0.89900   0.24710   0.00000  Uiso   1.00
O440   O     0.33265   0.95054   0.22713   0.00000  Uiso   1.00
O441   O     0.18621   0.95987   0.91766   0.00000  Uiso   1.00
H442   H     0.17100   0.97830   0.94270   0.00000  Uiso   1.00
N443   N     0.22090   0.92060   0.82110   0.00000  Uiso   1.00
N444   N     0.22950   0.87890   0.85690   0.00000  Uiso   1.00
C445   C     0.21510   0.91970   0.10440   0.00000  Uiso   1.00
C446   C     0.23000   0.91770   0.04410   0.00000  Uiso   1.00
C447   C     0.14980   0.90800   0.17740   0.00000  Uiso   1.00
C448   C     0.16290   0.90470   0.12230   0.00000  Uiso   1.00
H449   H     0.13700   0.89240   0.09730   0.00000  Uiso   1.00
C450   C     0.25410   0.93700   0.14230   0.00000  Uiso   1.00
H451   H     0.28910   0.94650   0.13060   0.00000  Uiso   1.00
C452   C     0.24090   0.94010   0.19750   0.00000  Uiso   1.00
C453   C     0.28260   0.95630   0.23940   0.00000  Uiso   1.00
C454   C     0.18880   0.92630   0.21470   0.00000  Uiso   1.00
H455   H     0.17980   0.92920   0.25170   0.00000  Uiso   1.00
C456   C     0.09440   0.89120   0.19790   0.00000  Uiso   1.00
C457   C     0.23900   0.83390   0.82730   0.00000  Uiso   1.00
H458   H     0.24700   0.79960   0.84200   0.00000  Uiso   1.00
C459   C     0.22430   0.89970   0.77010   0.00000  Uiso   1.00
H460   H     0.21970   0.91980   0.73810   0.00000  Uiso   1.00
C461   C     0.23550   0.84510   0.77200   0.00000  Uiso   1.00
H462   H     0.23970   0.82090   0.74280   0.00000  Uiso   1.00
Na463  Na    0.07560   0.92280   0.33840   0.00000  Uiso   1.00
O464   O     0.15650   0.98680   0.34760   0.00000  Uiso   1.00
O465   O     0.05510   0.01090   0.29800   0.00000  Uiso   1.00
O466   O     0.98210   0.93730   0.32640   0.00000  Uiso   1.00
Cu469  Cu    0.28169   0.10923   0.43529   0.00000  Uiso   1.00
Cu470  Cu    0.50803   0.15265   0.69746   0.00000  Uiso   1.00
O471   O     0.30422   0.10490   0.51226   0.00000  Uiso   1.00
O472   O     0.22640   0.06270   0.52870   0.00000  Uiso   1.00
O473   O     0.43839   0.13081   0.66429   0.00000  Uiso   1.00
O474   O     0.23521   0.02660   0.78437   0.00000  Uiso   1.00
O475   O     0.41760   0.10100   0.74710   0.00000  Uiso   1.00
O476   O     0.16735   0.04946   0.72713   0.00000  Uiso   1.00
O477   O     0.31379   0.04013   0.41766   0.00000  Uiso   1.00
H478   H     0.32900   0.02170   0.44270   0.00000  Uiso   1.00
N479   N     0.27910   0.07940   0.32110   0.00000  Uiso   1.00
N480   N     0.27050   0.12110   0.35690   0.00000  Uiso   1.00
C481   C     0.28490   0.08030   0.60440   0.00000  Uiso   1.00
C482   C     0.27000   0.08230   0.54410   0.00000  Uiso   1.00
C483   C     0.35020   0.09200   0.67740   0.00000  Uiso   1.00
C484   C     0.33710   0.09530   0.62230   0.00000  Uiso   1.00
H485   H     0.36300   0.10760   0.59730   0.00000  Uiso   1.00
C486   C     0.24590   0.06300   0.64230   0.00000  Uiso   1.00
H487   H     0.21090   0.05350   0.63060   0.00000  Uiso   1.00
C488   C     0.25910   0.05990   0.69750   0.00000  Uiso   1.00
C489   C     0.21740   0.04370   0.73940   0.00000  Uiso   1.00
C490   C     0.31120   0.07370   0.71470   0.00000  Uiso   1.00
H491   H     0.32020   0.07080   0.75170   0.00000  Uiso   1.00
C492   C     0.40560   0.10880   0.69790   0.00000  Uiso   1.00
C493   C     0.26100   0.16610   0.32730   0.00000  Uiso   1.00
H494   H     0.25300   0.20040   0.34200   0.00000  Uiso   1.00
C495   C     0.27570   0.10030   0.27010   0.00000  Uiso   1.00
H496   H     0.28030   0.08020   0.23810   0.00000  Uiso   1.00
C497   C     0.26450   0.15490   0.27200   0.00000  Uiso   1.00
H498   H     0.26030   0.17910   0.24280   0.00000  Uiso   1.00
Na499  Na    0.42440   0.07720   0.83840   0.00000  Uiso   1.00
O500   O     0.34350   0.01320   0.84760   0.00000  Uiso   1.00
O501   O     0.44490   0.98910   0.79800   0.00000  Uiso   1.00
O502   O     0.51790   0.06270   0.82640   0.00000  Uiso   1.00
Cu505  Cu    0.78169   0.39077   0.56471   0.00000  Uiso   1.00
Cu506  Cu    0.00803   0.34735   0.30254   0.00000  Uiso   1.00
O507   O     0.80422   0.39510   0.48774   0.00000  Uiso   1.00
O508   O     0.72640   0.43730   0.47130   0.00000  Uiso   1.00
O509   O     0.93839   0.36919   0.33571   0.00000  Uiso   1.00
O510   O     0.73521   0.47340   0.21563   0.00000  Uiso   1.00
O511   O     0.91760   0.39900   0.25290   0.00000  Uiso   1.00
O512   O     0.66735   0.45054   0.27287   0.00000  Uiso   1.00
O513   O     0.81379   0.45987   0.58234   0.00000  Uiso   1.00
H514   H     0.82900   0.47830   0.55730   0.00000  Uiso   1.00
N515   N     0.77910   0.42060   0.67890   0.00000  Uiso   1.00
N516   N     0.77050   0.37890   0.64310   0.00000  Uiso   1.00
C517   C     0.78490   0.41970   0.39560   0.00000  Uiso   1.00
C518   C     0.77000   0.41770   0.45590   0.00000  Uiso   1.00
C519   C     0.85020   0.40800   0.32260   0.00000  Uiso   1.00
C520   C     0.83710   0.40470   0.37770   0.00000  Uiso   1.00
H521   H     0.86300   0.39240   0.40270   0.00000  Uiso   1.00
C522   C     0.74590   0.43700   0.35770   0.00000  Uiso   1.00
H523   H     0.71090   0.44650   0.36940   0.00000  Uiso   1.00
C524   C     0.75910   0.44010   0.30250   0.00000  Uiso   1.00
C525   C     0.71740   0.45630   0.26060   0.00000  Uiso   1.00
C526   C     0.81120   0.42630   0.28530   0.00000  Uiso   1.00
H527   H     0.82020   0.42920   0.24830   0.00000  Uiso   1.00
C528   C     0.90560   0.39120   0.30210   0.00000  Uiso   1.00
C529   C     0.76100   0.33390   0.67270   0.00000  Uiso   1.00
H530   H     0.75300   0.29960   0.65800   0.00000  Uiso   1.00
C531   C     0.77570   0.39970   0.72990   0.00000  Uiso   1.00
H532   H     0.78030   0.41980   0.76190   0.00000  Uiso   1.00
C533   C     0.76450   0.34510   0.72800   0.00000  Uiso   1.00
H534   H     0.76030   0.32090   0.75720   0.00000  Uiso   1.00
Na535  Na    0.92440   0.42280   0.16160   0.00000  Uiso   1.00
O536   O     0.84350   0.48680   0.15240   0.00000  Uiso   1.00
O537   O     0.94490   0.51090   0.20200   0.00000  Uiso   1.00
O538   O     0.01790   0.43730   0.17360   0.00000  Uiso   1.00
Cu541  Cu    0.71831   0.60923   0.06471   0.00000  Uiso   1.00
Cu542  Cu    0.49197   0.65265   0.80254   0.00000  Uiso   1.00
O543   O     0.69578   0.60490   0.98774   0.00000  Uiso   1.00
O544   O     0.77360   0.56270   0.97130   0.00000  Uiso   1.00
O545   O     0.56161   0.63081   0.83571   0.00000  Uiso   1.00
O546   O     0.76479   0.52660   0.71563   0.00000  Uiso   1.00
O547   O     0.58240   0.60100   0.75290   0.00000  Uiso   1.00
O548   O     0.83265   0.54946   0.77287   0.00000  Uiso   1.00
O549   O     0.68621   0.54013   0.08234   0.00000  Uiso   1.00
H550   H     0.67100   0.52170   0.05730   0.00000  Uiso   1.00
N551   N     0.72090   0.57940   0.17890   0.00000  Uiso   1.00
N552   N     0.72950   0.62110   0.14310   0.00000  Uiso   1.00
C553   C     0.71510   0.58030   0.89560   0.00000  Uiso   1.00
C554   C     0.73000   0.58230   0.95590   0.00000  Uiso   1.00
C555   C     0.64980   0.59200   0.82260   0.00000  Uiso   1.00
C556   C     0.66290   0.59530   0.87770   0.00000  Uiso   1.00
H557   H     0.63700   0.60760   0.90270   0.00000  Uiso   1.00
C558   C     0.75410   0.56300   0.85770   0.00000  Uiso   1.00
H559   H     0.78910   0.55350   0.86940   0.00000  Uiso   1.00
C560   C     0.74090   0.55990   0.80250   0.00000  Uiso   1.00
C561   C     0.78260   0.54370   0.76060   0.00000  Uiso   1.00
C562   C     0.68880   0.57370   0.78530   0.00000  Uiso   1.00
H563   H     0.67980   0.57080   0.74830   0.00000  Uiso   1.00
C564   C     0.59440   0.60880   0.80210   0.00000  Uiso   1.00
C565   C     0.73900   0.66610   0.17270   0.00000  Uiso   1.00
H566   H     0.74700   0.70040   0.15800   0.00000  Uiso   1.00
C567   C     0.72430   0.60030   0.22990   0.00000  Uiso   1.00
H568   H     0.71970   0.58020   0.26190   0.00000  Uiso   1.00
C569   C     0.73550   0.65490   0.22800   0.00000  Uiso   1.00
H570   H     0.73970   0.67910   0.25720   0.00000  Uiso   1.00
Na571  Na    0.57560   0.57720   0.66160   0.00000  Uiso   1.00
O572   O     0.65650   0.51320   0.65240   0.00000  Uiso   1.00
O573   O     0.55510   0.48910   0.70200   0.00000  Uiso   1.00
O574   O     0.48210   0.56270   0.67360   0.00000  Uiso   1.00
Cu577  Cu    0.93529   0.21831   0.89077   0.00000  Uiso   1.00
Cu578  Cu    0.19746   0.99197   0.84735   0.00000  Uiso   1.00
O579   O     0.01226   0.19578   0.89510   0.00000  Uiso   1.00
O580   O     0.02870   0.27360   0.93730   0.00000  Uiso   1.00
O581   O     0.16429   0.06161   0.86919   0.00000  Uiso   1.00
O582   O     0.28437   0.26479   0.97340   0.00000  Uiso   1.00
O583   O     0.24710   0.08240   0.89900   0.00000  Uiso   1.00
O584   O     0.22713   0.33265   0.95054   0.00000  Uiso   1.00
O585   O     0.91766   0.18621   0.95987   0.00000  Uiso   1.00
H586   H     0.94270   0.17100   0.97830   0.00000  Uiso   1.00
N587   N     0.82110   0.22090   0.92060   0.00000  Uiso   1.00
N588   N     0.85690   0.22950   0.87890   0.00000  Uiso   1.00
C589   C     0.10440   0.21510   0.91970   0.00000  Uiso   1.00
C590   C     0.04410   0.23000   0.91770   0.00000  Uiso   1.00
C591   C     0.17740   0.14980   0.90800   0.00000  Uiso   1.00
C592   C     0.12230   0.16290   0.90470   0.00000  Uiso   1.00
H593   H     0.09730   0.13700   0.89240   0.00000  Uiso   1.00
C594   C     0.14230   0.25410   0.93700   0.00000  Uiso   1.00
H595   H     0.13060   0.28910   0.94650   0.00000  Uiso   1.00
C596   C     0.19750   0.24090   0.94010   0.00000  Uiso   1.00
C597   C     0.23940   0.28260   0.95630   0.00000  Uiso   1.00
C598   C     0.21470   0.18880   0.92630   0.00000  Uiso   1.00
H599   H     0.25170   0.17980   0.92920   0.00000  Uiso   1.00
C600   C     0.19790   0.09440   0.89120   0.00000  Uiso   1.00
C601   C     0.82730   0.23900   0.83390   0.00000  Uiso   1.00
H602   H     0.84200   0.24700   0.79960   0.00000  Uiso   1.00
C603   C     0.77010   0.22430   0.89970   0.00000  Uiso   1.00
H604   H     0.73810   0.21970   0.91980   0.00000  Uiso   1.00
C605   C     0.77200   0.23550   0.84510   0.00000  Uiso   1.00
H606   H     0.74280   0.23970   0.82090   0.00000  Uiso   1.00
Na607  Na    0.33840   0.07560   0.92280   0.00000  Uiso   1.00
O608   O     0.34760   0.15650   0.98680   0.00000  Uiso   1.00
O609   O     0.29800   0.05510   0.01090   0.00000  Uiso   1.00
O610   O     0.32640   0.98210   0.93730   0.00000  Uiso   1.00
Cu613  Cu    0.43529   0.28169   0.10923   0.00000  Uiso   1.00
Cu614  Cu    0.69746   0.50803   0.15265   0.00000  Uiso   1.00
O615   O     0.51226   0.30422   0.10490   0.00000  Uiso   1.00
O616   O     0.52870   0.22640   0.06270   0.00000  Uiso   1.00
O617   O     0.66429   0.43839   0.13081   0.00000  Uiso   1.00
O618   O     0.78437   0.23521   0.02660   0.00000  Uiso   1.00
O619   O     0.74710   0.41760   0.10100   0.00000  Uiso   1.00
O620   O     0.72713   0.16735   0.04946   0.00000  Uiso   1.00
O621   O     0.41766   0.31379   0.04013   0.00000  Uiso   1.00
H622   H     0.44270   0.32900   0.02170   0.00000  Uiso   1.00
N623   N     0.32110   0.27910   0.07940   0.00000  Uiso   1.00
N624   N     0.35690   0.27050   0.12110   0.00000  Uiso   1.00
C625   C     0.60440   0.28490   0.08030   0.00000  Uiso   1.00
C626   C     0.54410   0.27000   0.08230   0.00000  Uiso   1.00
C627   C     0.67740   0.35020   0.09200   0.00000  Uiso   1.00
C628   C     0.62230   0.33710   0.09530   0.00000  Uiso   1.00
H629   H     0.59730   0.36300   0.10760   0.00000  Uiso   1.00
C630   C     0.64230   0.24590   0.06300   0.00000  Uiso   1.00
H631   H     0.63060   0.21090   0.05350   0.00000  Uiso   1.00
C632   C     0.69750   0.25910   0.05990   0.00000  Uiso   1.00
C633   C     0.73940   0.21740   0.04370   0.00000  Uiso   1.00
C634   C     0.71470   0.31120   0.07370   0.00000  Uiso   1.00
H635   H     0.75170   0.32020   0.07080   0.00000  Uiso   1.00
C636   C     0.69790   0.40560   0.10880   0.00000  Uiso   1.00
C637   C     0.32730   0.26100   0.16610   0.00000  Uiso   1.00
H638   H     0.34200   0.25300   0.20040   0.00000  Uiso   1.00
C639   C     0.27010   0.27570   0.10030   0.00000  Uiso   1.00
H640   H     0.23810   0.28030   0.08020   0.00000  Uiso   1.00
C641   C     0.27200   0.26450   0.15490   0.00000  Uiso   1.00
H642   H     0.24280   0.26030   0.17910   0.00000  Uiso   1.00
Na643  Na    0.83840   0.42440   0.07720   0.00000  Uiso   1.00
O644   O     0.84760   0.34350   0.01320   0.00000  Uiso   1.00
O645   O     0.79800   0.44490   0.98910   0.00000  Uiso   1.00
O646   O     0.82640   0.51790   0.06270   0.00000  Uiso   1.00
Cu649  Cu    0.56471   0.78169   0.39077   0.00000  Uiso   1.00
Cu650  Cu    0.30254   0.00803   0.34735   0.00000  Uiso   1.00
O651   O     0.48774   0.80422   0.39510   0.00000  Uiso   1.00
O652   O     0.47130   0.72640   0.43730   0.00000  Uiso   1.00
O653   O     0.33571   0.93839   0.36919   0.00000  Uiso   1.00
O654   O     0.21563   0.73521   0.47340   0.00000  Uiso   1.00
O655   O     0.25290   0.91760   0.39900   0.00000  Uiso   1.00
O656   O     0.27287   0.66735   0.45054   0.00000  Uiso   1.00
O657   O     0.58234   0.81379   0.45987   0.00000  Uiso   1.00
H658   H     0.55730   0.82900   0.47830   0.00000  Uiso   1.00
N659   N     0.67890   0.77910   0.42060   0.00000  Uiso   1.00
N660   N     0.64310   0.77050   0.37890   0.00000  Uiso   1.00
C661   C     0.39560   0.78490   0.41970   0.00000  Uiso   1.00
C662   C     0.45590   0.77000   0.41770   0.00000  Uiso   1.00
C663   C     0.32260   0.85020   0.40800   0.00000  Uiso   1.00
C664   C     0.37770   0.83710   0.40470   0.00000  Uiso   1.00
H665   H     0.40270   0.86300   0.39240   0.00000  Uiso   1.00
C666   C     0.35770   0.74590   0.43700   0.00000  Uiso   1.00
H667   H     0.36940   0.71090   0.44650   0.00000  Uiso   1.00
C668   C     0.30250   0.75910   0.44010   0.00000  Uiso   1.00
C669   C     0.26060   0.71740   0.45630   0.00000  Uiso   1.00
C670   C     0.28530   0.81120   0.42630   0.00000  Uiso   1.00
H671   H     0.24830   0.82020   0.42920   0.00000  Uiso   1.00
C672   C     0.30210   0.90560   0.39120   0.00000  Uiso   1.00
C673   C     0.67270   0.76100   0.33390   0.00000  Uiso   1.00
H674   H     0.65800   0.75300   0.29960   0.00000  Uiso   1.00
C675   C     0.72990   0.77570   0.39970   0.00000  Uiso   1.00
H676   H     0.76190   0.78030   0.41980   0.00000  Uiso   1.00
C677   C     0.72800   0.76450   0.34510   0.00000  Uiso   1.00
H678   H     0.75720   0.76030   0.32090   0.00000  Uiso   1.00
Na679  Na    0.16160   0.92440   0.42280   0.00000  Uiso   1.00
O680   O     0.15240   0.84350   0.48680   0.00000  Uiso   1.00
O681   O     0.20200   0.94490   0.51090   0.00000  Uiso   1.00
O682   O     0.17360   0.01790   0.43730   0.00000  Uiso   1.00
Cu685  Cu    0.06471   0.71831   0.60923   0.00000  Uiso   1.00
Cu686  Cu    0.80254   0.49197   0.65265   0.00000  Uiso   1.00
O687   O     0.98774   0.69578   0.60490   0.00000  Uiso   1.00
O688   O     0.97130   0.77360   0.56270   0.00000  Uiso   1.00
O689   O     0.83571   0.56161   0.63081   0.00000  Uiso   1.00
O690   O     0.71563   0.76479   0.52660   0.00000  Uiso   1.00
O691   O     0.75290   0.58240   0.60100   0.00000  Uiso   1.00
O692   O     0.77287   0.83265   0.54946   0.00000  Uiso   1.00
O693   O     0.08234   0.68621   0.54013   0.00000  Uiso   1.00
H694   H     0.05730   0.67100   0.52170   0.00000  Uiso   1.00
N695   N     0.17890   0.72090   0.57940   0.00000  Uiso   1.00
N696   N     0.14310   0.72950   0.62110   0.00000  Uiso   1.00
C697   C     0.89560   0.71510   0.58030   0.00000  Uiso   1.00
C698   C     0.95590   0.73000   0.58230   0.00000  Uiso   1.00
C699   C     0.82260   0.64980   0.59200   0.00000  Uiso   1.00
C700   C     0.87770   0.66290   0.59530   0.00000  Uiso   1.00
H701   H     0.90270   0.63700   0.60760   0.00000  Uiso   1.00
C702   C     0.85770   0.75410   0.56300   0.00000  Uiso   1.00
H703   H     0.86940   0.78910   0.55350   0.00000  Uiso   1.00
C704   C     0.80250   0.74090   0.55990   0.00000  Uiso   1.00
C705   C     0.76060   0.78260   0.54370   0.00000  Uiso   1.00
C706   C     0.78530   0.68880   0.57370   0.00000  Uiso   1.00
H707   H     0.74830   0.67980   0.57080   0.00000  Uiso   1.00
C708   C     0.80210   0.59440   0.60880   0.00000  Uiso   1.00
C709   C     0.17270   0.73900   0.66610   0.00000  Uiso   1.00
H710   H     0.15800   0.74700   0.70040   0.00000  Uiso   1.00
C711   C     0.22990   0.72430   0.60030   0.00000  Uiso   1.00
H712   H     0.26190   0.71970   0.58020   0.00000  Uiso   1.00
C713   C     0.22800   0.73550   0.65490   0.00000  Uiso   1.00
H714   H     0.25720   0.73970   0.67910   0.00000  Uiso   1.00
Na715  Na    0.66160   0.57560   0.57720   0.00000  Uiso   1.00
O716   O     0.65240   0.65650   0.51320   0.00000  Uiso   1.00
O717   O     0.70200   0.55510   0.48910   0.00000  Uiso   1.00
O718   O     0.67360   0.48210   0.56270   0.00000  Uiso   1.00
Cu721  Cu    0.89077   0.93529   0.21831   0.00000  Uiso   1.00
Cu722  Cu    0.84735   0.19746   0.99197   0.00000  Uiso   1.00
O723   O     0.89510   0.01226   0.19578   0.00000  Uiso   1.00
O724   O     0.93730   0.02870   0.27360   0.00000  Uiso   1.00
O725   O     0.86919   0.16429   0.06161   0.00000  Uiso   1.00
O726   O     0.97340   0.28437   0.26479   0.00000  Uiso   1.00
O727   O     0.89900   0.24710   0.08240   0.00000  Uiso   1.00
O728   O     0.95054   0.22713   0.33265   0.00000  Uiso   1.00
O729   O     0.95987   0.91766   0.18621   0.00000  Uiso   1.00
H730   H     0.97830   0.94270   0.17100   0.00000  Uiso   1.00
N731   N     0.92060   0.82110   0.22090   0.00000  Uiso   1.00
N732   N     0.87890   0.85690   0.22950   0.00000  Uiso   1.00
C733   C     0.91970   0.10440   0.21510   0.00000  Uiso   1.00
C734   C     0.91770   0.04410   0.23000   0.00000  Uiso   1.00
C735   C     0.90800   0.17740   0.14980   0.00000  Uiso   1.00
C736   C     0.90470   0.12230   0.16290   0.00000  Uiso   1.00
H737   H     0.89240   0.09730   0.13700   0.00000  Uiso   1.00
C738   C     0.93700   0.14230   0.25410   0.00000  Uiso   1.00
H739   H     0.94650   0.13060   0.28910   0.00000  Uiso   1.00
C740   C     0.94010   0.19750   0.24090   0.00000  Uiso   1.00
C741   C     0.95630   0.23940   0.28260   0.00000  Uiso   1.00
C742   C     0.92630   0.21470   0.18880   0.00000  Uiso   1.00
H743   H     0.92920   0.25170   0.17980   0.00000  Uiso   1.00
C744   C     0.89120   0.19790   0.09440   0.00000  Uiso   1.00
C745   C     0.83390   0.82730   0.23900   0.00000  Uiso   1.00
H746   H     0.79960   0.84200   0.24700   0.00000  Uiso   1.00
C747   C     0.89970   0.77010   0.22430   0.00000  Uiso   1.00
H748   H     0.91980   0.73810   0.21970   0.00000  Uiso   1.00
C749   C     0.84510   0.77200   0.23550   0.00000  Uiso   1.00
H750   H     0.82090   0.74280   0.23970   0.00000  Uiso   1.00
Na751  Na    0.92280   0.33840   0.07560   0.00000  Uiso   1.00
O752   O     0.98680   0.34760   0.15650   0.00000  Uiso   1.00
O753   O     0.01090   0.29800   0.05510   0.00000  Uiso   1.00
O754   O     0.93730   0.32640   0.98210   0.00000  Uiso   1.00
Cu757  Cu    0.10923   0.43529   0.28169   0.00000  Uiso   1.00
Cu758  Cu    0.15265   0.69746   0.50803   0.00000  Uiso   1.00
O759   O     0.10490   0.51226   0.30422   0.00000  Uiso   1.00
O760   O     0.06270   0.52870   0.22640   0.00000  Uiso   1.00
O761   O     0.13081   0.66429   0.43839   0.00000  Uiso   1.00
O762   O     0.02660   0.78437   0.23521   0.00000  Uiso   1.00
O763   O     0.10100   0.74710   0.41760   0.00000  Uiso   1.00
O764   O     0.04946   0.72713   0.16735   0.00000  Uiso   1.00
O765   O     0.04013   0.41766   0.31379   0.00000  Uiso   1.00
H766   H     0.02170   0.44270   0.32900   0.00000  Uiso   1.00
N767   N     0.07940   0.32110   0.27910   0.00000  Uiso   1.00
N768   N     0.12110   0.35690   0.27050   0.00000  Uiso   1.00
C769   C     0.08030   0.60440   0.28490   0.00000  Uiso   1.00
C770   C     0.08230   0.54410   0.27000   0.00000  Uiso   1.00
C771   C     0.09200   0.67740   0.35020   0.00000  Uiso   1.00
C772   C     0.09530   0.62230   0.33710   0.00000  Uiso   1.00
H773   H     0.10760   0.59730   0.36300   0.00000  Uiso   1.00
C774   C     0.06300   0.64230   0.24590   0.00000  Uiso   1.00
H775   H     0.05350   0.63060   0.21090   0.00000  Uiso   1.00
C776   C     0.05990   0.69750   0.25910   0.00000  Uiso   1.00
C777   C     0.04370   0.73940   0.21740   0.00000  Uiso   1.00
C778   C     0.07370   0.71470   0.31120   0.00000  Uiso   1.00
H779   H     0.07080   0.75170   0.32020   0.00000  Uiso   1.00
C780   C     0.10880   0.69790   0.40560   0.00000  Uiso   1.00
C781   C     0.16610   0.32730   0.26100   0.00000  Uiso   1.00
H782   H     0.20040   0.34200   0.25300   0.00000  Uiso   1.00
C783   C     0.10030   0.27010   0.27570   0.00000  Uiso   1.00
H784   H     0.08020   0.23810   0.28030   0.00000  Uiso   1.00
C785   C     0.15490   0.27200   0.26450   0.00000  Uiso   1.00
H786   H     0.17910   0.24280   0.26030   0.00000  Uiso   1.00
Na787  Na    0.07720   0.83840   0.42440   0.00000  Uiso   1.00
O788   O     0.01320   0.84760   0.34350   0.00000  Uiso   1.00
O789   O     0.98910   0.79800   0.44490   0.00000  Uiso   1.00
O790   O     0.06270   0.82640   0.51790   0.00000  Uiso   1.00
Cu793  Cu    0.39077   0.56471   0.78169   0.00000  Uiso   1.00
Cu794  Cu    0.34735   0.30254   0.00803   0.00000  Uiso   1.00
O795   O     0.39510   0.48774   0.80422   0.00000  Uiso   1.00
O796   O     0.43730   0.47130   0.72640   0.00000  Uiso   1.00
O797   O     0.36919   0.33571   0.93839   0.00000  Uiso   1.00
O798   O     0.47340   0.21563   0.73521   0.00000  Uiso   1.00
O799   O     0.39900   0.25290   0.91760   0.00000  Uiso   1.00
O800   O     0.45054   0.27287   0.66735   0.00000  Uiso   1.00
O801   O     0.45987   0.58234   0.81379   0.00000  Uiso   1.00
H802   H     0.47830   0.55730   0.82900   0.00000  Uiso   1.00
N803   N     0.42060   0.67890   0.77910   0.00000  Uiso   1.00
N804   N     0.37890   0.64310   0.77050   0.00000  Uiso   1.00
C805   C     0.41970   0.39560   0.78490   0.00000  Uiso   1.00
C806   C     0.41770   0.45590   0.77000   0.00000  Uiso   1.00
C807   C     0.40800   0.32260   0.85020   0.00000  Uiso   1.00
C808   C     0.40470   0.37770   0.83710   0.00000  Uiso   1.00
H809   H     0.39240   0.40270   0.86300   0.00000  Uiso   1.00
C810   C     0.43700   0.35770   0.74590   0.00000  Uiso   1.00
H811   H     0.44650   0.36940   0.71090   0.00000  Uiso   1.00
C812   C     0.44010   0.30250   0.75910   0.00000  Uiso   1.00
C813   C     0.45630   0.26060   0.71740   0.00000  Uiso   1.00
C814   C     0.42630   0.28530   0.81120   0.00000  Uiso   1.00
H815   H     0.42920   0.24830   0.82020   0.00000  Uiso   1.00
C816   C     0.39120   0.30210   0.90560   0.00000  Uiso   1.00
C817   C     0.33390   0.67270   0.76100   0.00000  Uiso   1.00
H818   H     0.29960   0.65800   0.75300   0.00000  Uiso   1.00
C819   C     0.39970   0.72990   0.77570   0.00000  Uiso   1.00
H820   H     0.41980   0.76190   0.78030   0.00000  Uiso   1.00
C821   C     0.34510   0.72800   0.76450   0.00000  Uiso   1.00
H822   H     0.32090   0.75720   0.76030   0.00000  Uiso   1.00
Na823  Na    0.42280   0.16160   0.92440   0.00000  Uiso   1.00
O824   O     0.48680   0.15240   0.84350   0.00000  Uiso   1.00
O825   O     0.51090   0.20200   0.94490   0.00000  Uiso   1.00
O826   O     0.43730   0.17360   0.01790   0.00000  Uiso   1.00
Cu829  Cu    0.60923   0.06471   0.71831   0.00000  Uiso   1.00
Cu830  Cu    0.65265   0.80254   0.49197   0.00000  Uiso   1.00
O831   O     0.60490   0.98774   0.69578   0.00000  Uiso   1.00
O832   O     0.56270   0.97130   0.77360   0.00000  Uiso   1.00
O833   O     0.63081   0.83571   0.56161   0.00000  Uiso   1.00
O834   O     0.52660   0.71563   0.76479   0.00000  Uiso   1.00
O835   O     0.60100   0.75290   0.58240   0.00000  Uiso   1.00
O836   O     0.54946   0.77287   0.83265   0.00000  Uiso   1.00
O837   O     0.54013   0.08234   0.68621   0.00000  Uiso   1.00
H838   H     0.52170   0.05730   0.67100   0.00000  Uiso   1.00
N839   N     0.57940   0.17890   0.72090   0.00000  Uiso   1.00
N840   N     0.62110   0.14310   0.72950   0.00000  Uiso   1.00
C841   C     0.58030   0.89560   0.71510   0.00000  Uiso   1.00
C842   C     0.58230   0.95590   0.73000   0.00000  Uiso   1.00
C843   C     0.59200   0.82260   0.64980   0.00000  Uiso   1.00
C844   C     0.59530   0.87770   0.66290   0.00000  Uiso   1.00
H845   H     0.60760   0.90270   0.63700   0.00000  Uiso   1.00
C846   C     0.56300   0.85770   0.75410   0.00000  Uiso   1.00
H847   H     0.55350   0.86940   0.78910   0.00000  Uiso   1.00
C848   C     0.55990   0.80250   0.74090   0.00000  Uiso   1.00
C849   C     0.54370   0.76060   0.78260   0.00000  Uiso   1.00
C850   C     0.57370   0.78530   0.68880   0.00000  Uiso   1.00
H851   H     0.57080   0.74830   0.67980   0.00000  Uiso   1.00
C852   C     0.60880   0.80210   0.59440   0.00000  Uiso   1.00
C853   C     0.66610   0.17270   0.73900   0.00000  Uiso   1.00
H854   H     0.70040   0.15800   0.74700   0.00000  Uiso   1.00
C855   C     0.60030   0.22990   0.72430   0.00000  Uiso   1.00
H856   H     0.58020   0.26190   0.71970   0.00000  Uiso   1.00
C857   C     0.65490   0.22800   0.73550   0.00000  Uiso   1.00
H858   H     0.67910   0.25720   0.73970   0.00000  Uiso   1.00
Na859  Na    0.57720   0.66160   0.57560   0.00000  Uiso   1.00
O860   O     0.51320   0.65240   0.65650   0.00000  Uiso   1.00
O861   O     0.48910   0.70200   0.55510   0.00000  Uiso   1.00
O862   O     0.56270   0.67360   0.48210   0.00000  Uiso   1.00
O865   O     0.85710   0.14290   0.64290   0.00000  Uiso   1.00
O866   O     0.93490   0.06510   0.56510   0.00000  Uiso   1.00
O867   O     0.64290   0.85710   0.14290   0.00000  Uiso   1.00
O868   O     0.56510   0.93490   0.06510   0.00000  Uiso   1.00
O869   O     0.14290   0.64290   0.85710   0.00000  Uiso   1.00
O870   O     0.06510   0.56510   0.93490   0.00000  Uiso   1.00
O871   O     0.35710   0.35710   0.35710   0.00000  Uiso   1.00
O872   O     0.43490   0.43490   0.43490   0.00000  Uiso   1.00
O873   O     0.14290   0.85710   0.35710   0.00000  Uiso   1.00
O874   O     0.06510   0.93490   0.43490   0.00000  Uiso   1.00
O875   O     0.35710   0.14290   0.85710   0.00000  Uiso   1.00
O876   O     0.43490   0.06510   0.93490   0.00000  Uiso   1.00
O877   O     0.85710   0.35710   0.14290   0.00000  Uiso   1.00
O878   O     0.93490   0.43490   0.06510   0.00000  Uiso   1.00
O879   O     0.64290   0.64290   0.64290   0.00000  Uiso   1.00
O880   O     0.56510   0.56510   0.56510   0.00000  Uiso   1.00
loop_
_geom_bond_atom_site_label_1
_geom_bond_atom_site_label_2
_geom_bond_distance
_geom_bond_site_symmetry_2
_ccdc_geom_bond_type
Cu1    O9      1.908   .     S
Cu1    N12     1.954   .     S
Cu1    O620    1.980   .     S
Cu1    O3      1.960   1_554 S
Cu2    O297    1.906   .     S
Cu2    N299    1.942   .     S
Cu2    O5      1.956   1_455 S
Cu2    O330    1.981   1_455 S
O3     C14     1.267   .     S
O3     Cu1     1.960   1_556 S
O4     C14     1.225   .     D
O5     C24     1.265   .     A
O5     Cu2     1.956   1_655 S
O6     C21     1.252   .     A
O6     Cu218   1.981   1_545 S
O7     C24     1.250   .     A
O7     Na31    2.308   .     S
O8     C21     1.265   .     A
O8     Cu829   1.980   .     S
O9     H10     0.844   .     S
O9     Cu146   1.906   .     S
N11    N12     1.357   .     A
N11    C27     1.347   .     A
N11    Cu146   1.942   .     S
N12    C25     1.334   .     A
C13    C14     1.516   .     S
C13    C16     1.395   .     A
C13    C18     1.392   .     A
C15    C16     1.384   .     A
C15    C22     1.390   .     A
C15    C24     1.498   .     S
C16    H17     0.928   .     S
C18    H19     0.930   .     S
C18    C20     1.387   .     A
C20    C21     1.495   .     S
C20    C22     1.380   .     A
C22    H23     0.932   .     S
C25    H26     0.931   .     S
C25    C29     1.379   .     A
C27    H28     0.929   .     S
C27    C29     1.361   .     A
C29    H30     0.931   .     S
Na31   O32     2.527   .     S
Na31   Na247   2.940   .     S
Na31   Na355   2.940   .     S
Na31   O356    2.387   .     S
Na31   O865    2.340   .     S
Na31   O866    2.387   .     S
Na31   O33     2.417   1_545 D
Na31   O34     2.327   1_655 A
O32    Na247   2.387   .     S
O33    Na31    2.417   1_565 D
O34    Na31    2.327   1_455 A
Cu37   O39     1.960   .     S
Cu37   O45     1.908   .     S
Cu37   N48     1.954   .     S
Cu37   O692    1.980   .     S
Cu38   O41     1.956   .     S
Cu38   O366    1.981   .     S
Cu38   O405    1.906   .     S
Cu38   N407    1.942   .     S
O39    C50     1.267   .     S
O40    C50     1.225   .     D
O41    C60     1.265   .     A
O42    C57     1.252   .     A
O42    Cu146   1.981   1_565 S
O43    C60     1.250   .     A
O43    Na67    2.308   .     S
O44    C57     1.265   .     A
O44    Cu721   1.980   .     S
O45    H46     0.844   .     S
O45    Cu218   1.906   .     S
N47    N48     1.357   .     A
N47    C63     1.347   .     A
N47    Cu218   1.942   .     S
N48    C61     1.334   .     A
C49    C50     1.516   .     S
C49    C52     1.395   .     A
C49    C54     1.392   .     A
C51    C52     1.384   .     A
C51    C58     1.390   .     A
C51    C60     1.498   .     S
C52    H53     0.928   .     S
C54    H55     0.930   .     S
C54    C56     1.387   .     A
C56    C57     1.495   .     S
C56    C58     1.380   .     A
C58    H59     0.932   .     S
C61    H62     0.931   .     S
C61    C65     1.379   .     A
C63    H64     0.929   .     S
C63    C65     1.361   .     A
C65    H66     0.931   .     S
Na67   O68     2.527   .     S
Na67   O70     2.327   .     S
Na67   Na175   2.940   .     S
Na67   Na391   2.940   .     S
Na67   O392    2.387   .     S
Na67   O867    2.340   .     S
Na67   O868    2.387   .     S
Na67   O69     2.417   1_565 A
O68    Na175   2.387   .     S
O69    Na67    2.417   1_545 A
Cu73   O75     1.960   .     S
Cu73   O81     1.908   .     S
Cu73   N84     1.954   .     S
Cu73   O656    1.980   .     S
Cu74   O333    1.906   .     S
Cu74   N335    1.942   .     S
Cu74   O77     1.956   1_655 S
Cu74   O294    1.981   1_655 S
O75    C86     1.267   .     S
O76    C86     1.225   .     D
O77    C96     1.265   .     A
O77    Cu74    1.956   1_455 S
O78    C93     1.252   .     A
O78    Cu182   1.981   .     S
O79    C96     1.250   .     A
O79    Na103   2.308   .     S
O80    C93     1.265   .     A
O80    Cu793   1.980   .     S
O81    H82     0.844   .     S
O81    Cu254   1.906   .     S
N83    N84     1.357   .     A
N83    C99     1.347   .     A
N83    Cu254   1.942   .     S
N84    C97     1.334   .     A
C85    C86     1.516   .     S
C85    C88     1.395   .     A
C85    C90     1.392   .     A
C87    C88     1.384   .     A
C87    C94     1.390   .     A
C87    C96     1.498   .     S
C88    H89     0.928   .     S
C90    H91     0.930   .     S
C90    C92     1.387   .     A
C92    C93     1.495   .     S
C92    C94     1.380   .     A
C94    H95     0.932   .     S
C97    H98     0.931   .     S
C97    C101    1.379   .     A
C99    H100    0.929   .     S
C99    C101    1.361   .     A
C101   H102    0.931   .     S
Na103  O104    2.527   .     S
Na103  O105    2.417   .     S
Na103  Na211   2.940   .     S
Na103  Na319   2.940   .     S
Na103  O320    2.387   .     S
Na103  O869    2.340   .     S
Na103  O870    2.387   .     S
Na103  O106    2.327   1_455 A
O104   Na211   2.387   .     S
O106   Na103   2.327   1_655 A
Cu109  O117    1.908   .     S
Cu109  N120    1.954   .     S
Cu109  O584    1.980   .     S
Cu109  O111    1.960   1_556 A
Cu110  O113    1.956   .     S
Cu110  O369    1.906   .     S
Cu110  N371    1.942   .     S
Cu110  O402    1.981   .     S
O111   C122    1.267   .     S
O111   Cu109   1.960   1_554 A
O112   C122    1.225   .     D
O113   C132    1.265   .     A
O114   C129    1.252   .     A
O114   Cu254   1.981   .     S
O115   C132    1.250   .     A
O115   Na139   2.308   .     S
O116   C129    1.265   .     A
O116   Cu757   1.980   .     S
O117   H118    0.844   .     S
O117   Cu182   1.906   .     S
N119   N120    1.357   .     A
N119   C135    1.347   .     A
N119   Cu182   1.942   .     S
N120   C133    1.334   .     A
C121   C122    1.516   .     S
C121   C124    1.395   .     A
C121   C126    1.392   .     A
C123   C124    1.384   .     A
C123   C130    1.390   .     A
C123   C132    1.498   .     S
C124   H125    0.928   .     S
C126   H127    0.930   .     S
C126   C128    1.387   .     A
C128   C129    1.495   .     S
C128   C130    1.380   .     A
C130   H131    0.932   .     S
C133   H134    0.931   .     S
C133   C137    1.379   .     A
C135   H136    0.929   .     S
C135   C137    1.361   .     A
C137   H138    0.931   .     S
Na139  O140    2.527   .     S
Na139  O141    2.417   .     S
Na139  O142    2.327   .     S
Na139  Na283   2.940   .     S
Na139  Na427   2.940   .     S
Na139  O428    2.387   .     S
Na139  O871    2.340   .     S
Na139  O872    2.387   .     S
O140   Na283   2.387   .     S
Cu145  O153    1.908   .     S
Cu145  N156    1.954   .     S
Cu145  O764    1.980   .     S
Cu145  O147    1.960   1_455 A
Cu146  O42     1.981   1_545 S
Cu146  O149    1.956   1_545 A
O147   C158    1.267   .     S
O147   Cu145   1.960   1_655 A
O148   C158    1.225   .     D
O149   C168    1.265   .     A
O149   Cu146   1.956   1_565 A
O150   C165    1.252   .     A
O150   Cu362   1.981   1_554 S
O151   C168    1.250   .     A
O151   Na175   2.308   .     S
O152   C165    1.265   .     A
O152   Cu541   1.980   .     S
O153   H154    0.844   .     S
O153   Cu290   1.906   .     S
N155   N156    1.357   .     A
N155   C171    1.347   .     A
N155   Cu290   1.942   .     S
N156   C169    1.334   .     A
C157   C158    1.516   .     S
C157   C160    1.395   .     A
C157   C162    1.392   .     A
C159   C160    1.384   .     A
C159   C166    1.390   .     A
C159   C168    1.498   .     S
C160   H161    0.928   .     S
C162   H163    0.930   .     S
C162   C164    1.387   .     A
C164   C165    1.495   .     S
C164   C166    1.380   .     A
C166   H167    0.932   .     S
C169   H170    0.931   .     S
C169   C173    1.379   .     A
C171   H172    0.929   .     S
C171   C173    1.361   .     A
C173   H174    0.931   .     S
Na175  O176    2.527   .     S
Na175  Na391   2.940   .     S
Na175  O867    2.340   .     S
Na175  O868    2.387   .     S
Na175  O177    2.417   1_554 S
Na175  O178    2.327   1_565 A
O176   Na391   2.387   .     S
O177   Na175   2.417   1_556 S
O178   Na175   2.327   1_545 A
Cu181  O183    1.960   .     S
Cu181  O189    1.908   .     S
Cu181  N192    1.954   .     S
Cu181  O836    1.980   .     S
Cu182  O185    1.956   .     S
O183   C194    1.267   .     S
O184   C194    1.225   .     D
O185   C204    1.265   .     A
O186   C201    1.252   .     A
O186   Cu290   1.981   1_556 S
O187   C204    1.250   .     A
O187   Na211   2.308   .     S
O188   C201    1.265   .     A
O188   Cu433   1.980   .     S
O189   H190    0.844   .     S
O189   Cu362   1.906   .     S
N191   N192    1.357   .     A
N191   C207    1.347   .     A
N191   Cu362   1.942   .     S
N192   C205    1.334   .     A
C193   C194    1.516   .     S
C193   C196    1.395   .     A
C193   C198    1.392   .     A
C195   C196    1.384   .     A
C195   C202    1.390   .     A
C195   C204    1.498   .     S
C196   H197    0.928   .     S
C198   H199    0.930   .     S
C198   C200    1.387   .     A
C200   C201    1.495   .     S
C200   C202    1.380   .     A
C202   H203    0.932   .     S
C205   H206    0.931   .     S
C205   C209    1.379   .     A
C207   H208    0.929   .     S
C207   C209    1.361   .     A
C209   H210    0.931   .     S
Na211  O212    2.527   .     S
Na211  O214    2.327   .     S
Na211  Na319   2.940   .     S
Na211  O869    2.340   .     S
Na211  O870    2.387   .     S
Na211  O213    2.417   1_556 S
O212   Na319   2.387   .     S
O213   Na211   2.417   1_554 S
Cu217  O219    1.960   .     S
Cu217  O225    1.908   .     S
Cu217  N228    1.954   .     S
Cu217  O800    1.980   .     S
Cu218  O6      1.981   1_565 S
Cu218  O221    1.956   1_565 A
O219   C230    1.267   .     S
O220   C230    1.225   .     D
O221   C240    1.265   .     A
O221   Cu218   1.956   1_545 A
O222   C237    1.252   .     A
O222   Cu326   1.981   .     S
O223   C240    1.250   .     A
O223   Na247   2.308   .     S
O224   C237    1.265   .     A
O224   Cu505   1.980   .     S
O225   H226    0.844   .     S
O225   Cu398   1.906   .     S
N227   N228    1.357   .     A
N227   C243    1.347   .     A
N227   Cu398   1.942   .     S
N228   C241    1.334   .     A
C229   C230    1.516   .     S
C229   C232    1.395   .     A
C229   C234    1.392   .     A
C231   C232    1.384   .     A
C231   C238    1.390   .     A
C231   C240    1.498   .     S
C232   H233    0.928   .     S
C234   H235    0.930   .     S
C234   C236    1.387   .     A
C236   C237    1.495   .     S
C236   C238    1.380   .     A
C238   H239    0.932   .     S
C241   H242    0.931   .     S
C241   C245    1.379   .     A
C243   H244    0.929   .     S
C243   C245    1.361   .     A
C245   H246    0.931   .     S
Na247  O248    2.527   .     S
Na247  O249    2.417   .     S
Na247  Na355   2.940   .     S
Na247  O865    2.340   .     S
Na247  O866    2.387   .     S
Na247  O250    2.327   1_545 S
O248   Na355   2.387   .     S
O250   Na247   2.327   1_565 S
Cu253  O261    1.908   .     S
Cu253  N264    1.954   .     S
Cu253  O728    1.980   .     S
Cu253  O255    1.960   1_655 S
Cu254  O257    1.956   .     S
O255   C266    1.267   .     S
O255   Cu253   1.960   1_455 S
O256   C266    1.225   .     D
O257   C276    1.265   .     A
O258   C273    1.252   .     A
O258   Cu398   1.981   .     S
O259   C276    1.250   .     A
O259   Na283   2.308   .     S
O260   C273    1.265   .     A
O260   Cu469   1.980   .     S
O261   H262    0.844   .     S
O261   Cu326   1.906   .     S
N263   N264    1.357   .     A
N263   C279    1.347   .     A
N263   Cu326   1.942   .     S
N264   C277    1.334   .     A
C265   C266    1.516   .     S
C265   C268    1.395   .     A
C265   C270    1.392   .     A
C267   C268    1.384   .     A
C267   C274    1.390   .     A
C267   C276    1.498   .     S
C268   H269    0.928   .     S
C270   H271    0.930   .     S
C270   C272    1.387   .     A
C272   C273    1.495   .     S
C272   C274    1.380   .     A
C274   H275    0.932   .     S
C277   H278    0.931   .     S
C277   C281    1.379   .     A
C279   H280    0.929   .     S
C279   C281    1.361   .     A
C281   H282    0.931   .     S
Na283  O284    2.527   .     S
Na283  O285    2.417   .     S
Na283  O286    2.327   .     S
Na283  Na427   2.940   .     S
Na283  O871    2.340   .     S
Na283  O872    2.387   .     S
O284   Na427   2.387   .     S
Cu289  O297    1.908   .     S
Cu289  N300    1.954   .     S
Cu289  O476    1.980   .     S
Cu289  O291    1.960   1_545 S
Cu290  O186    1.981   1_554 S
Cu290  O293    1.956   1_554 S
O291   C302    1.267   .     S
O291   Cu289   1.960   1_565 S
O292   C302    1.225   .     D
O293   C312    1.265   .     A
O293   Cu290   1.956   1_556 S
O294   C309    1.252   .     A
O294   Cu74    1.981   1_455 S
O295   C312    1.250   .     A
O295   Na319   2.308   .     S
O296   C309    1.265   .     A
O296   Cu685   1.980   .     S
O297   H298    0.844   .     S
N299   N300    1.357   .     A
N299   C315    1.347   .     A
N300   C313    1.334   .     A
C301   C302    1.516   .     S
C301   C304    1.395   .     A
C301   C306    1.392   .     A
C303   C304    1.384   .     A
C303   C310    1.390   .     A
C303   C312    1.498   .     S
C304   H305    0.928   .     S
C306   H307    0.930   .     S
C306   C308    1.387   .     A
C308   C309    1.495   .     S
C308   C310    1.380   .     A
C310   H311    0.932   .     S
C313   H314    0.931   .     S
C313   C317    1.379   .     A
C315   H316    0.929   .     S
C315   C317    1.361   .     A
C317   H318    0.931   .     S
Na319  O320    2.527   .     S
Na319  O869    2.340   .     S
Na319  O870    2.387   .     S
Na319  O321    2.417   1_455 S
Na319  O322    2.327   1_556 S
O321   Na319   2.417   1_655 S
O322   Na319   2.327   1_554 S
Cu325  O327    1.960   .     S
Cu325  O333    1.908   .     S
Cu325  N336    1.954   .     S
Cu325  O548    1.980   .     S
Cu326  O329    1.956   .     S
O327   C338    1.267   .     S
O328   C338    1.225   .     D
O329   C348    1.265   .     A
O330   C345    1.252   .     A
O330   Cu2     1.981   1_655 S
O331   C348    1.250   .     A
O331   Na355   2.308   .     S
O332   C345    1.265   .     A
O332   Cu577   1.980   .     S
O333   H334    0.844   .     S
N335   N336    1.357   .     A
N335   C351    1.347   .     A
N336   C349    1.334   .     A
C337   C338    1.516   .     S
C337   C340    1.395   .     A
C337   C342    1.392   .     A
C339   C340    1.384   .     A
C339   C346    1.390   .     A
C339   C348    1.498   .     S
C340   H341    0.928   .     S
C342   H343    0.930   .     S
C342   C344    1.387   .     A
C344   C345    1.495   .     S
C344   C346    1.380   .     A
C346   H347    0.932   .     S
C349   H350    0.931   .     S
C349   C353    1.379   .     A
C351   H352    0.929   .     S
C351   C353    1.361   .     A
C353   H354    0.931   .     S
Na355  O356    2.527   .     S
Na355  O358    2.327   .     S
Na355  O865    2.340   .     S
Na355  O866    2.387   .     S
Na355  O357    2.417   1_655 S
O357   Na355   2.417   1_455 S
Cu361  O363    1.960   .     S
Cu361  O369    1.908   .     S
Cu361  N372    1.954   .     S
Cu361  O512    1.980   .     S
Cu362  O150    1.981   1_556 S
Cu362  O365    1.956   1_556 A
O363   C374    1.267   .     S
O364   C374    1.225   .     D
O365   C384    1.265   .     A
O365   Cu362   1.956   1_554 A
O366   C381    1.252   .     A
O367   C384    1.250   .     A
O367   Na391   2.308   .     S
O368   C381    1.265   .     A
O368   Cu649   1.980   .     S
O369   H370    0.844   .     S
N371   N372    1.357   .     A
N371   C387    1.347   .     A
N372   C385    1.334   .     A
C373   C374    1.516   .     S
C373   C376    1.395   .     A
C373   C378    1.392   .     A
C375   C376    1.384   .     A
C375   C382    1.390   .     A
C375   C384    1.498   .     S
C376   H377    0.928   .     S
C378   H379    0.930   .     S
C378   C380    1.387   .     A
C380   C381    1.495   .     S
C380   C382    1.380   .     A
C382   H383    0.932   .     S
C385   H386    0.931   .     S
C385   C389    1.379   .     A
C387   H388    0.929   .     S
C387   C389    1.361   .     A
C389   H390    0.931   .     S
Na391  O392    2.527   .     S
Na391  O393    2.417   .     S
Na391  O867    2.340   .     S
Na391  O868    2.387   .     S
Na391  O394    2.327   1_554 S
O394   Na391   2.327   1_556 S
Cu397  O405    1.908   .     S
Cu397  N408    1.954   .     S
Cu397  O440    1.980   .     S
Cu397  O399    1.960   1_565 S
Cu398  O401    1.956   .     S
O399   C410    1.267   .     S
O399   Cu397   1.960   1_545 S
O400   C410    1.225   .     D
O401   C420    1.265   .     A
O402   C417    1.252   .     A
O403   C420    1.250   .     A
O403   Na427   2.308   .     S
O404   C417    1.265   .     A
O404   Cu613   1.980   .     S
O405   H406    0.844   .     S
N407   N408    1.357   .     A
N407   C423    1.347   .     A
N408   C421    1.334   .     A
C409   C410    1.516   .     S
C409   C412    1.395   .     A
C409   C414    1.392   .     A
C411   C412    1.384   .     A
C411   C418    1.390   .     A
C411   C420    1.498   .     S
C412   H413    0.928   .     S
C414   H415    0.930   .     S
C414   C416    1.387   .     A
C416   C417    1.495   .     S
C416   C418    1.380   .     A
C418   H419    0.932   .     S
C421   H422    0.931   .     S
C421   C425    1.379   .     A
C423   H424    0.929   .     S
C423   C425    1.361   .     A
C425   H426    0.931   .     S
Na427  O428    2.527   .     S
Na427  O429    2.417   .     S
Na427  O430    2.327   .     S
Na427  O871    2.340   .     S
Na427  O872    2.387   .     S
Cu433  O441    1.908   .     S
Cu433  N444    1.954   .     S
Cu433  O435    1.960   1_556 S
Cu434  O729    1.906   .     S
Cu434  N731    1.942   .     S
Cu434  O437    1.956   1_655 A
Cu434  O762    1.981   1_655 A
O435   C446    1.267   .     S
O435   Cu433   1.960   1_554 S
O436   C446    1.225   .     D
O437   C456    1.265   .     A
O437   Cu434   1.956   1_455 A
O438   C453    1.252   .     A
O438   Cu650   1.981   1_565 S
O439   C456    1.250   .     A
O439   Na463   2.308   .     S
O440   C453    1.265   .     A
O441   H442    0.844   .     S
O441   Cu578   1.906   .     S
N443   N444    1.357   .     A
N443   C459    1.347   .     A
N443   Cu578   1.942   .     S
N444   C457    1.334   .     A
C445   C446    1.516   .     S
C445   C448    1.395   .     A
C445   C450    1.392   .     A
C447   C448    1.384   .     A
C447   C454    1.390   .     A
C447   C456    1.498   .     S
C448   H449    0.928   .     S
C450   H451    0.930   .     S
C450   C452    1.387   .     A
C452   C453    1.495   .     S
C452   C454    1.380   .     A
C454   H455    0.932   .     S
C457   H458    0.931   .     S
C457   C461    1.379   .     A
C459   H460    0.929   .     S
C459   C461    1.361   .     A
C461   H462    0.931   .     S
Na463  O464    2.527   .     S
Na463  Na679   2.940   .     S
Na463  Na787   2.940   .     S
Na463  O788    2.387   .     S
Na463  O873    2.340   .     S
Na463  O874    2.387   .     S
Na463  O465    2.417   1_565 A
Na463  O466    2.327   1_455 A
O464   Na679   2.387   .     S
O465   Na463   2.417   1_545 A
O466   Na463   2.327   1_655 A
Cu469  O471    1.960   .     S
Cu469  O477    1.908   .     S
Cu469  N480    1.954   .     S
Cu470  O473    1.956   .     S
Cu470  O798    1.981   .     S
Cu470  O837    1.906   .     S
Cu470  N839    1.942   .     S
O471   C482    1.267   .     S
O472   C482    1.225   .     D
O473   C492    1.265   .     A
O474   C489    1.252   .     A
O474   Cu578   1.981   1_545 S
O475   C492    1.250   .     A
O475   Na499   2.308   .     S
O476   C489    1.265   .     A
O477   H478    0.844   .     S
O477   Cu650   1.906   .     S
N479   N480    1.357   .     A
N479   C495    1.347   .     A
N479   Cu650   1.942   .     S
N480   C493    1.334   .     A
C481   C482    1.516   .     S
C481   C484    1.395   .     A
C481   C486    1.392   .     A
C483   C484    1.384   .     A
C483   C490    1.390   .     A
C483   C492    1.498   .     S
C484   H485    0.928   .     S
C486   H487    0.930   .     S
C486   C488    1.387   .     A
C488   C489    1.495   .     S
C488   C490    1.380   .     A
C490   H491    0.932   .     S
C493   H494    0.931   .     S
C493   C497    1.379   .     A
C495   H496    0.929   .     S
C495   C497    1.361   .     A
C497   H498    0.931   .     S
Na499  O500    2.527   .     S
Na499  O502    2.327   .     S
Na499  Na607   2.940   .     S
Na499  Na823   2.940   .     S
Na499  O824    2.387   .     S
Na499  O875    2.340   .     S
Na499  O876    2.387   .     S
Na499  O501    2.417   1_545 S
O500   Na607   2.387   .     S
O501   Na499   2.417   1_565 S
Cu505  O507    1.960   .     S
Cu505  O513    1.908   .     S
Cu505  N516    1.954   .     S
Cu506  O765    1.906   .     S
Cu506  N767    1.942   .     S
Cu506  O509    1.956   1_455 A
Cu506  O726    1.981   1_455 S
O507   C518    1.267   .     S
O508   C518    1.225   .     D
O509   C528    1.265   .     A
O509   Cu506   1.956   1_655 A
O510   C525    1.252   .     A
O510   Cu614   1.981   .     S
O511   C528    1.250   .     A
O511   Na535   2.308   .     S
O512   C525    1.265   .     A
O513   H514    0.844   .     S
O513   Cu686   1.906   .     S
N515   N516    1.357   .     A
N515   C531    1.347   .     A
N515   Cu686   1.942   .     S
N516   C529    1.334   .     A
C517   C518    1.516   .     S
C517   C520    1.395   .     A
C517   C522    1.392   .     A
C519   C520    1.384   .     A
C519   C526    1.390   .     A
C519   C528    1.498   .     S
C520   H521    0.928   .     S
C522   H523    0.930   .     S
C522   C524    1.387   .     A
C524   C525    1.495   .     S
C524   C526    1.380   .     A
C526   H527    0.932   .     S
C529   H530    0.931   .     S
C529   C533    1.379   .     A
C531   H532    0.929   .     S
C531   C533    1.361   .     A
C533   H534    0.931   .     S
Na535  O536    2.527   .     S
Na535  O537    2.417   .     S
Na535  Na643   2.940   .     S
Na535  Na751   2.940   .     S
Na535  O752    2.387   .     S
Na535  O877    2.340   .     S
Na535  O878    2.387   .     S
Na535  O538    2.327   1_655 S
O536   Na643   2.387   .     S
O538   Na535   2.327   1_455 S
Cu541  O549    1.908   .     S
Cu541  N552    1.954   .     S
Cu541  O543    1.960   1_554 A
Cu542  O545    1.956   .     S
Cu542  O801    1.906   .     S
Cu542  N803    1.942   .     S
Cu542  O834    1.981   .     S
O543   C554    1.267   .     S
O543   Cu541   1.960   1_556 A
O544   C554    1.225   .     D
O545   C564    1.265   .     A
O546   C561    1.252   .     A
O546   Cu686   1.981   .     S
O547   C564    1.250   .     A
O547   Na571   2.308   .     S
O548   C561    1.265   .     A
O549   H550    0.844   .     S
O549   Cu614   1.906   .     S
N551   N552    1.357   .     A
N551   C567    1.347   .     A
N551   Cu614   1.942   .     S
N552   C565    1.334   .     A
C553   C554    1.516   .     S
C553   C556    1.395   .     A
C553   C558    1.392   .     A
C555   C556    1.384   .     A
C555   C562    1.390   .     A
C555   C564    1.498   .     S
C556   H557    0.928   .     S
C558   H559    0.930   .     S
C558   C560    1.387   .     A
C560   C561    1.495   .     S
C560   C562    1.380   .     A
C562   H563    0.932   .     S
C565   H566    0.931   .     S
C565   C569    1.379   .     A
C567   H568    0.929   .     S
C567   C569    1.361   .     A
C569   H570    0.931   .     S
Na571  O572    2.527   .     S
Na571  O573    2.417   .     S
Na571  O574    2.327   .     S
Na571  Na715   2.940   .     S
Na571  Na859   2.940   .     S
Na571  O860    2.387   .     S
Na571  O879    2.340   .     S
Na571  O880    2.387   .     S
O572   Na715   2.387   .     S
Cu577  O585    1.908   .     S
Cu577  N588    1.954   .     S
Cu577  O579    1.960   1_655 A
Cu578  O474    1.981   1_565 S
Cu578  O581    1.956   1_565 S
O579   C590    1.267   .     S
O579   Cu577   1.960   1_455 A
O580   C590    1.225   .     D
O581   C600    1.265   .     A
O581   Cu578   1.956   1_545 S
O582   C597    1.252   .     A
O582   Cu794   1.981   1_556 S
O583   C600    1.250   .     A
O583   Na607   2.308   .     S
O584   C597    1.265   .     A
O585   H586    0.844   .     S
O585   Cu722   1.906   .     S
N587   N588    1.357   .     A
N587   C603    1.347   .     A
N587   Cu722   1.942   .     S
N588   C601    1.334   .     A
C589   C590    1.516   .     S
C589   C592    1.395   .     A
C589   C594    1.392   .     A
C591   C592    1.384   .     A
C591   C598    1.390   .     A
C591   C600    1.498   .     S
C592   H593    0.928   .     S
C594   H595    0.930   .     S
C594   C596    1.387   .     A
C596   C597    1.495   .     S
C596   C598    1.380   .     A
C598   H599    0.932   .     S
C601   H602    0.931   .     S
C601   C605    1.379   .     A
C603   H604    0.929   .     S
C603   C605    1.361   .     A
C605   H606    0.931   .     S
Na607  O608    2.527   .     S
Na607  Na823   2.940   .     S
Na607  O875    2.340   .     S
Na607  O876    2.387   .     S
Na607  O609    2.417   1_556 S
Na607  O610    2.327   1_545 S
O608   Na823   2.387   .     S
O609   Na607   2.417   1_554 S
O610   Na607   2.327   1_565 S
Cu613  O615    1.960   .     S
Cu613  O621    1.908   .     S
Cu613  N624    1.954   .     S
Cu614  O617    1.956   .     S
O615   C626    1.267   .     S
O616   C626    1.225   .     D
O617   C636    1.265   .     A
O618   C633    1.252   .     A
O618   Cu722   1.981   1_554 S
O619   C636    1.250   .     A
O619   Na643   2.308   .     S
O620   C633    1.265   .     A
O621   H622    0.844   .     S
O621   Cu794   1.906   .     S
N623   N624    1.357   .     A
N623   C639    1.347   .     A
N623   Cu794   1.942   .     S
N624   C637    1.334   .     A
C625   C626    1.516   .     S
C625   C628    1.395   .     A
C625   C630    1.392   .     A
C627   C628    1.384   .     A
C627   C634    1.390   .     A
C627   C636    1.498   .     S
C628   H629    0.928   .     S
C630   H631    0.930   .     S
C630   C632    1.387   .     A
C632   C633    1.495   .     S
C632   C634    1.380   .     A
C634   H635    0.932   .     S
C637   H638    0.931   .     S
C637   C641    1.379   .     A
C639   H640    0.929   .     S
C639   C641    1.361   .     A
C641   H642    0.931   .     S
Na643  O644    2.527   .     S
Na643  O646    2.327   .     S
Na643  Na751   2.940   .     S
Na643  O877    2.340   .     S
Na643  O878    2.387   .     S
Na643  O645    2.417   1_554 S
O644   Na751   2.387   .     S
O645   Na643   2.417   1_556 S
Cu649  O651    1.960   .     S
Cu649  O657    1.908   .     S
Cu649  N660    1.954   .     S
Cu650  O438    1.981   1_545 S
Cu650  O653    1.956   1_545 S
O651   C662    1.267   .     S
O652   C662    1.225   .     D
O653   C672    1.265   .     A
O653   Cu650   1.956   1_565 S
O654   C669    1.252   .     A
O654   Cu758   1.981   .     S
O655   C672    1.250   .     A
O655   Na679   2.308   .     S
O656   C669    1.265   .     A
O657   H658    0.844   .     S
O657   Cu830   1.906   .     S
N659   N660    1.357   .     A
N659   C675    1.347   .     A
N659   Cu830   1.942   .     S
N660   C673    1.334   .     A
C661   C662    1.516   .     S
C661   C664    1.395   .     A
C661   C666    1.392   .     A
C663   C664    1.384   .     A
C663   C670    1.390   .     A
C663   C672    1.498   .     S
C664   H665    0.928   .     S
C666   H667    0.930   .     S
C666   C668    1.387   .     A
C668   C669    1.495   .     S
C668   C670    1.380   .     A
C670   H671    0.932   .     S
C673   H674    0.931   .     S
C673   C677    1.379   .     A
C675   H676    0.929   .     S
C675   C677    1.361   .     A
C677   H678    0.931   .     S
Na679  O680    2.527   .     S
Na679  O681    2.417   .     S
Na679  Na787   2.940   .     S
Na679  O873    2.340   .     S
Na679  O874    2.387   .     S
Na679  O682    2.327   1_565 S
O680   Na787   2.387   .     S
O682   Na679   2.327   1_545 S
Cu685  O693    1.908   .     S
Cu685  N696    1.954   .     S
Cu685  O687    1.960   1_455 A
Cu686  O689    1.956   .     S
O687   C698    1.267   .     S
O687   Cu685   1.960   1_655 A
O688   C698    1.225   .     D
O689   C708    1.265   .     A
O690   C705    1.252   .     A
O690   Cu830   1.981   .     S
O691   C708    1.250   .     A
O691   Na715   2.308   .     S
O692   C705    1.265   .     A
O693   H694    0.844   .     S
O693   Cu758   1.906   .     S
N695   N696    1.357   .     A
N695   C711    1.347   .     A
N695   Cu758   1.942   .     S
N696   C709    1.334   .     A
C697   C698    1.516   .     S
C697   C700    1.395   .     A
C697   C702    1.392   .     A
C699   C700    1.384   .     A
C699   C706    1.390   .     A
C699   C708    1.498   .     S
C700   H701    0.928   .     S
C702   H703    0.930   .     S
C702   C704    1.387   .     A
C704   C705    1.495   .     S
C704   C706    1.380   .     A
C706   H707    0.932   .     S
C709   H710    0.931   .     S
C709   C713    1.379   .     A
C711   H712    0.929   .     S
C711   C713    1.361   .     A
C713   H714    0.931   .     S
Na715  O716    2.527   .     S
Na715  O717    2.417   .     S
Na715  O718    2.327   .     S
Na715  Na859   2.940   .     S
Na715  O879    2.340   .     S
Na715  O880    2.387   .     S
O716   Na859   2.387   .     S
Cu721  O729    1.908   .     S
Cu721  N732    1.954   .     S
Cu721  O723    1.960   1_565 S
Cu722  O618    1.981   1_556 S
Cu722  O725    1.956   1_556 S
O723   C734    1.267   .     S
O723   Cu721   1.960   1_545 S
O724   C734    1.225   .     D
O725   C744    1.265   .     A
O725   Cu722   1.956   1_554 S
O726   C741    1.252   .     A
O726   Cu506   1.981   1_655 S
O727   C744    1.250   .     A
O727   Na751   2.308   .     S
O728   C741    1.265   .     A
O729   H730    0.844   .     S
N731   N732    1.357   .     A
N731   C747    1.347   .     A
N732   C745    1.334   .     A
C733   C734    1.516   .     S
C733   C736    1.395   .     A
C733   C738    1.392   .     A
C735   C736    1.384   .     A
C735   C742    1.390   .     A
C735   C744    1.498   .     S
C736   H737    0.928   .     S
C738   H739    0.930   .     S
C738   C740    1.387   .     A
C740   C741    1.495   .     S
C740   C742    1.380   .     A
C742   H743    0.932   .     S
C745   H746    0.931   .     S
C745   C749    1.379   .     A
C747   H748    0.929   .     S
C747   C749    1.361   .     A
C749   H750    0.931   .     S
Na751  O752    2.527   .     S
Na751  O877    2.340   .     S
Na751  O878    2.387   .     S
Na751  O753    2.417   1_655 S
Na751  O754    2.327   1_554 A
O753   Na751   2.417   1_455 S
O754   Na751   2.327   1_556 A
Cu757  O759    1.960   .     S
Cu757  O765    1.908   .     S
Cu757  N768    1.954   .     S
Cu758  O761    1.956   .     S
O759   C770    1.267   .     S
O760   C770    1.225   .     D
O761   C780    1.265   .     A
O762   C777    1.252   .     A
O762   Cu434   1.981   1_455 A
O763   C780    1.250   .     A
O763   Na787   2.308   .     S
O764   C777    1.265   .     A
O765   H766    0.844   .     S
N767   N768    1.357   .     A
N767   C783    1.347   .     A
N768   C781    1.334   .     A
C769   C770    1.516   .     S
C769   C772    1.395   .     A
C769   C774    1.392   .     A
C771   C772    1.384   .     A
C771   C778    1.390   .     A
C771   C780    1.498   .     S
C772   H773    0.928   .     S
C774   H775    0.930   .     S
C774   C776    1.387   .     A
C776   C777    1.495   .     S
C776   C778    1.380   .     A
C778   H779    0.932   .     S
C781   H782    0.931   .     S
C781   C785    1.379   .     A
C783   H784    0.929   .     S
C783   C785    1.361   .     A
C785   H786    0.931   .     S
Na787  O788    2.527   .     S
Na787  O790    2.327   .     S
Na787  O873    2.340   .     S
Na787  O874    2.387   .     S
Na787  O789    2.417   1_455 S
O789   Na787   2.417   1_655 S
Cu793  O795    1.960   .     S
Cu793  O801    1.908   .     S
Cu793  N804    1.954   .     S
Cu794  O582    1.981   1_554 S
Cu794  O797    1.956   1_554 A
O795   C806    1.267   .     S
O796   C806    1.225   .     D
O797   C816    1.265   .     A
O797   Cu794   1.956   1_556 A
O798   C813    1.252   .     A
O799   C816    1.250   .     A
O799   Na823   2.308   .     S
O800   C813    1.265   .     A
O801   H802    0.844   .     S
N803   N804    1.357   .     A
N803   C819    1.347   .     A
N804   C817    1.334   .     A
C805   C806    1.516   .     S
C805   C808    1.395   .     A
C805   C810    1.392   .     A
C807   C808    1.384   .     A
C807   C814    1.390   .     A
C807   C816    1.498   .     S
C808   H809    0.928   .     S
C810   H811    0.930   .     S
C810   C812    1.387   .     A
C812   C813    1.495   .     S
C812   C814    1.380   .     A
C814   H815    0.932   .     S
C817   H818    0.931   .     S
C817   C821    1.379   .     A
C819   H820    0.929   .     S
C819   C821    1.361   .     A
C821   H822    0.931   .     S
Na823  O824    2.527   .     S
Na823  O825    2.417   .     S
Na823  O875    2.340   .     S
Na823  O876    2.387   .     S
Na823  O826    2.327   1_556 S
O826   Na823   2.327   1_554 S
Cu829  O837    1.908   .     S
Cu829  N840    1.954   .     S
Cu829  O831    1.960   1_545 S
Cu830  O833    1.956   .     S
O831   C842    1.267   .     S
O831   Cu829   1.960   1_565 S
O832   C842    1.225   .     D
O833   C852    1.265   .     A
O834   C849    1.252   .     A
O835   C852    1.250   .     A
O835   Na859   2.308   .     S
O836   C849    1.265   .     A
O837   H838    0.844   .     S
N839   N840    1.357   .     A
N839   C855    1.347   .     A
N840   C853    1.334   .     A
C841   C842    1.516   .     S
C841   C844    1.395   .     A
C841   C846    1.392   .     A
C843   C844    1.384   .     A
C843   C850    1.390   .     A
C843   C852    1.498   .     S
C844   H845    0.928   .     S
C846   H847    0.930   .     S
C846   C848    1.387   .     A
C848   C849    1.495   .     S
C848   C850    1.380   .     A
C850   H851    0.932   .     S
C853   H854    0.931   .     S
C853   C857    1.379   .     A
C855   H856    0.929   .     S
C855   C857    1.361   .     A
C857   H858    0.931   .     S
Na859  O860    2.527   .     S
Na859  O861    2.417   .     S
Na859  O862    2.327   .     S
Na859  O879    2.340   .     S
Na859  O880    2.387   .     S
