data_image0
_cell_length_a       14.2458
_cell_length_b       25.8856
_cell_length_c       27.836
_cell_angle_alpha    90
_cell_angle_beta     97.447
_cell_angle_gamma    90

_symmetry_space_group_name_H-M    "P 1"
_symmetry_int_tables_number       1

loop_
  _symmetry_equiv_pos_as_xyz
  'x, y, z'

loop_
  _atom_site_label
  _atom_site_occupancy
  _atom_site_fract_x
  _atom_site_fract_y
  _atom_site_fract_z
  _atom_site_thermal_displace_type
  _atom_site_B_iso_or_equiv
  _atom_site_type_symbol
  Gd1      1.0000 0.52287  0.58429  0.78107  Biso   1.000  Gd
  Ag1      1.0000 0.07450  0.51991  0.92629  Biso   1.000  Ag
  Ag2      1.0000 0.91733  0.61500  0.46665  Biso   1.000  Ag
  Ag3      1.0000 0.01542  0.26006  0.81604  Biso   1.000  Ag
  N1       1.0000 0.70960  0.58610  0.78530  Biso   1.000  N
  N2       1.0000 0.61350  0.51390  0.82880  Biso   1.000  N
  N3       1.0000 0.71760  0.44990  0.82450  Biso   1.000  N
  N4       1.0000 0.01560  0.44980  0.89300  Biso   1.000  N
  N5       1.0000 0.58930  0.57620  0.70230  Biso   1.000  N
  N6       1.0000 0.68120  0.61610  0.65450  Biso   1.000  N
  N7       1.0000 0.90410  0.60180  0.54740  Biso   1.000  N
  N8       1.0000 0.60750  0.66260  0.81960  Biso   1.000  N
  N9       1.0000 0.71170  0.68180  0.88470  Biso   1.000  N
  N10      1.0000 0.92720  0.80640  0.92780  Biso   1.000  N
  N11      1.0000 0.33520  0.58410  0.77440  Biso   1.000  N
  N12      1.0000 0.43760  0.50070  0.75560  Biso   1.000  N
  N13      1.0000 0.34950  0.44150  0.78650  Biso   1.000  N
  N14      1.0000 0.08670  0.32300  0.78020  Biso   1.000  N
  N15      1.0000 0.43600  0.64920  0.72500  Biso   1.000  N
  N16      1.0000 0.33550  0.64860  0.65580  Biso   1.000  N
  N17      1.0000 0.04970  0.71430  0.63210  Biso   1.000  N
  N18      1.0000 0.45060  0.60150  0.85710  Biso   1.000  N
  N19      1.0000 0.35580  0.65740  0.88870  Biso   1.000  N
  N20      1.0000 0.11850  0.59820  0.94520  Biso   1.000  N
  N21      1.0000 0.05690  0.56380  0.46340  Biso   1.000  N
  C1       1.0000 0.74490  0.53310  0.78140  Biso   1.000  C
  H1       1.0000 0.81370  0.53170  0.79260  Biso   1.000  H
  H2       1.0000 0.73430  0.52140  0.74720  Biso   1.000  H
  C2       1.0000 0.69280  0.49870  0.81210  Biso   1.000  C
  C3       1.0000 0.58650  0.47170  0.85410  Biso   1.000  C
  C4       1.0000 0.50690  0.46520  0.87930  Biso   1.000  C
  H3       1.0000 0.46320  0.49240  0.88210  Biso   1.000  H
  C5       1.0000 0.49640  0.41660  0.90010  Biso   1.000  C
  H4       1.0000 0.44410  0.41070  0.91730  Biso   1.000  H
  C6       1.0000 0.56020  0.37700  0.89610  Biso   1.000  C
  H5       1.0000 0.54980  0.34470  0.91080  Biso   1.000  H
  C7       1.0000 0.63760  0.38210  0.87190  Biso   1.000  C
  H6       1.0000 0.68040  0.35440  0.86920  Biso   1.000  H
  C8       1.0000 0.64960  0.43130  0.85120  Biso   1.000  C
  C9       1.0000 0.79400  0.41960  0.80690  Biso   1.000  C
  H7       1.0000 0.81330  0.43710  0.77810  Biso   1.000  H
  H8       1.0000 0.76870  0.38520  0.79640  Biso   1.000  H
  C10      1.0000 0.88100  0.41220  0.84400  Biso   1.000  C
  C11      1.0000 0.90960  0.36530  0.86040  Biso   1.000  C
  H9       1.0000 0.87360  0.33560  0.84960  Biso   1.000  H
  C12      1.0000 0.99190  0.35980  0.89330  Biso   1.000  C
  H10      1.0000 0.01140  0.32660  0.90540  Biso   1.000  H
  C13      1.0000 0.04440  0.40280  0.90770  Biso   1.000  C
  H11      1.0000 0.10220  0.39890  0.92860  Biso   1.000  H
  C14      1.0000 0.93610  0.45440  0.86170  Biso   1.000  C
  H12      1.0000 0.91640  0.48800  0.85100  Biso   1.000  H
  C15      1.0000 0.73480  0.61730  0.74430  Biso   1.000  C
  H13      1.0000 0.80100  0.61020  0.73910  Biso   1.000  H
  H14      1.0000 0.72890  0.65450  0.75140  Biso   1.000  H
  C16      1.0000 0.66800  0.60280  0.69970  Biso   1.000  C
  C17      1.0000 0.54820  0.57130  0.65460  Biso   1.000  C
  C18      1.0000 0.46460  0.54670  0.63450  Biso   1.000  C
  H15      1.0000 0.42660  0.52820  0.65430  Biso   1.000  H
  C19      1.0000 0.43920  0.55030  0.58490  Biso   1.000  C
  H16      1.0000 0.38180  0.53490  0.57060  Biso   1.000  H
  C20      1.0000 0.49610  0.57610  0.55570  Biso   1.000  C
  H17      1.0000 0.47690  0.57710  0.52180  Biso   1.000  H
  C21      1.0000 0.57880  0.60020  0.57400  Biso   1.000  C
  H18      1.0000 0.61670  0.61830  0.55380  Biso   1.000  H
  C22      1.0000 0.60400  0.59630  0.62430  Biso   1.000  C
  C23      1.0000 0.75420  0.65070  0.63930  Biso   1.000  C
  H19      1.0000 0.78380  0.67040  0.66780  Biso   1.000  H
  H20      1.0000 0.72360  0.67580  0.61530  Biso   1.000  H
  C24      1.0000 0.83010  0.62180  0.61730  Biso   1.000  C
  C25      1.0000 0.89500  0.59030  0.64490  Biso   1.000  C
  H21      1.0000 0.89110  0.58550  0.67850  Biso   1.000  H
  C26      1.0000 0.96470  0.56610  0.62380  Biso   1.000  C
  H22      1.0000 0.01000  0.54490  0.64250  Biso   1.000  H
  C27      1.0000 0.96780  0.57310  0.57490  Biso   1.000  C
  H23      1.0000 0.01700  0.55700  0.56040  Biso   1.000  H
  C28      1.0000 0.83780  0.62590  0.56840  Biso   1.000  C
  H24      1.0000 0.79340  0.64690  0.54890  Biso   1.000  H
  C29      1.0000 0.75240  0.60950  0.83180  Biso   1.000  C
  H25      1.0000 0.75970  0.58290  0.85760  Biso   1.000  H
  H26      1.0000 0.81590  0.62340  0.82830  Biso   1.000  H
  C30      1.0000 0.69050  0.65130  0.84490  Biso   1.000  C
  C31      1.0000 0.57090  0.70330  0.84360  Biso   1.000  C
  C32      1.0000 0.48730  0.73150  0.83270  Biso   1.000  C
  H27      1.0000 0.44500  0.72520  0.80400  Biso   1.000  H
  C33      1.0000 0.46890  0.76910  0.86560  Biso   1.000  C
  H28      1.0000 0.41350  0.78970  0.85880  Biso   1.000  H
  C34      1.0000 0.52930  0.77760  0.90830  Biso   1.000  C
  H29      1.0000 0.51150  0.80220  0.93080  Biso   1.000  H
  C35      1.0000 0.61500  0.75150  0.91940  Biso   1.000  C
  H30      1.0000 0.65680  0.75800  0.94830  Biso   1.000  H
  C36      1.0000 0.63470  0.71540  0.88550  Biso   1.000  C
  C37      1.0000 0.79480  0.67930  0.92070  Biso   1.000  C
  H31      1.0000 0.82410  0.64470  0.91960  Biso   1.000  H
  H32      1.0000 0.77550  0.68400  0.95330  Biso   1.000  H
  C38      1.0000 0.86770  0.72030  0.91240  Biso   1.000  C
  C39      1.0000 0.93810  0.71120  0.88260  Biso   1.000  C
  H33      1.0000 0.94280  0.67880  0.86690  Biso   1.000  H
  C40      1.0000 0.00180  0.75180  0.87660  Biso   1.000  C
  H34      1.0000 0.05040  0.74680  0.85670  Biso   1.000  H
  C41      1.0000 0.99460  0.79660  0.89830  Biso   1.000  C
  H35      1.0000 0.03820  0.82320  0.89330  Biso   1.000  H
  C42      1.0000 0.86700  0.76850  0.93450  Biso   1.000  C
  H36      1.0000 0.82080  0.77480  0.95560  Biso   1.000  H
  C43      1.0000 0.30210  0.53420  0.79210  Biso   1.000  C
  H37      1.0000 0.23560  0.52800  0.77810  Biso   1.000  H
  H38      1.0000 0.30500  0.53510  0.82790  Biso   1.000  H
  C44      1.0000 0.36410  0.49150  0.77750  Biso   1.000  C
  C45      1.0000 0.47520  0.45120  0.74770  Biso   1.000  C
  C46      1.0000 0.55430  0.43710  0.72510  Biso   1.000  C
  H39      1.0000 0.59070  0.46190  0.71050  Biso   1.000  H
  C47      1.0000 0.57580  0.38520  0.72550  Biso   1.000  C
  H40      1.0000 0.62740  0.37400  0.70970  Biso   1.000  H
  C48      1.0000 0.52520  0.34870  0.74790  Biso   1.000  C
  H41      1.0000 0.54500  0.31370  0.74830  Biso   1.000  H
  C49      1.0000 0.44500  0.36220  0.77010  Biso   1.000  C
  H42      1.0000 0.40910  0.33740  0.78510  Biso   1.000  H
  C50      1.0000 0.42250  0.41470  0.76850  Biso   1.000  C
  C51      1.0000 0.28160  0.41910  0.81630  Biso   1.000  C
  H43      1.0000 0.25830  0.44690  0.83620  Biso   1.000  H
  H44      1.0000 0.31510  0.39350  0.83870  Biso   1.000  H
  C52      1.0000 0.19760  0.39310  0.78720  Biso   1.000  C
  C53      1.0000 0.15380  0.41190  0.74470  Biso   1.000  C
  H45      1.0000 0.17750  0.44220  0.73120  Biso   1.000  H
  C54      1.0000 0.07300  0.38670  0.72010  Biso   1.000  C
  H46      1.0000 0.04170  0.39930  0.69020  Biso   1.000  H
  C55      1.0000 0.04290  0.34370  0.74140  Biso   1.000  C
  H47      1.0000 0.98600  0.32790  0.72700  Biso   1.000  H
  C56      1.0000 0.16560  0.34710  0.80230  Biso   1.000  C
  H48      1.0000 0.20030  0.33100  0.82970  Biso   1.000  H
  C57      1.0000 0.29700  0.59170  0.72240  Biso   1.000  C
  H49      1.0000 0.29830  0.55850  0.70480  Biso   1.000  H
  H50      1.0000 0.23060  0.60370  0.71970  Biso   1.000  H
  C58      1.0000 0.35500  0.62990  0.70130  Biso   1.000  C
  C59      1.0000 0.46990  0.68260  0.69110  Biso   1.000  C
  C60      1.0000 0.55140  0.71280  0.69600  Biso   1.000  C
  H51      1.0000 0.59170  0.71530  0.72590  Biso   1.000  H
  C61      1.0000 0.57100  0.73890  0.65490  Biso   1.000  C
  H52      1.0000 0.62640  0.75970  0.65670  Biso   1.000  H
  C62      1.0000 0.51160  0.73560  0.61120  Biso   1.000  C
  H53      1.0000 0.52930  0.75310  0.58380  Biso   1.000  H
  C63      1.0000 0.42640  0.70740  0.60610  Biso   1.000  C
  H54      1.0000 0.38470  0.70590  0.57660  Biso   1.000  H
  C64      1.0000 0.40840  0.68190  0.64790  Biso   1.000  C
  C65      1.0000 0.26150  0.62880  0.61850  Biso   1.000  C
  H55      1.0000 0.23890  0.59520  0.62950  Biso   1.000  H
  H56      1.0000 0.29010  0.62240  0.58840  Biso   1.000  H
  C66      1.0000 0.17690  0.66450  0.60670  Biso   1.000  C
  C67      1.0000 0.14120  0.67200  0.55860  Biso   1.000  C
  H57      1.0000 0.17160  0.65740  0.53330  Biso   1.000  H
  C68      1.0000 0.05980  0.70140  0.54830  Biso   1.000  C
  H58      1.0000 0.03430  0.70790  0.51560  Biso   1.000  H
  C69      1.0000 0.01730  0.72050  0.58450  Biso   1.000  C
  H59      1.0000 0.96060  0.73970  0.57640  Biso   1.000  H
  C70      1.0000 0.13030  0.68590  0.64200  Biso   1.000  C
  H60      1.0000 0.15560  0.68070  0.67490  Biso   1.000  H
  C71      1.0000 0.30500  0.62720  0.80360  Biso   1.000  C
  H61      1.0000 0.23890  0.62190  0.81000  Biso   1.000  H
  H62      1.0000 0.30830  0.66030  0.78600  Biso   1.000  H
  C72      1.0000 0.37010  0.62870  0.85040  Biso   1.000  C
  C73      1.0000 0.49130  0.61350  0.90410  Biso   1.000  C
  C74      1.0000 0.57510  0.59710  0.93070  Biso   1.000  C
  H63      1.0000 0.61430  0.57210  0.91820  Biso   1.000  H
  C75      1.0000 0.59960  0.61840  0.97630  Biso   1.000  C
  H64      1.0000 0.65720  0.60830  0.99500  Biso   1.000  H
  C76      1.0000 0.54100  0.65450  0.99520  Biso   1.000  C
  H65      1.0000 0.56020  0.66860  0.02650  Biso   1.000  H
  C77      1.0000 0.45760  0.67020  0.97020  Biso   1.000  C
  H66      1.0000 0.41770  0.69420  0.98350  Biso   1.000  H
  C78      1.0000 0.43350  0.64950  0.92430  Biso   1.000  C
  C79      1.0000 0.27800  0.69300  0.89400  Biso   1.000  C
  H67      1.0000 0.24240  0.70010  0.86170  Biso   1.000  H
  H68      1.0000 0.30410  0.72610  0.90760  Biso   1.000  H
  C80      1.0000 0.21170  0.67070  0.92680  Biso   1.000  C
  C81      1.0000 0.18680  0.69640  0.96600  Biso   1.000  C
  H69      1.0000 0.20950  0.73040  0.97330  Biso   1.000  H
  C82      1.0000 0.12740  0.67210  0.99540  Biso   1.000  C
  H70      1.0000 0.11020  0.68890  0.02330  Biso   1.000  H
  C83      1.0000 0.09470  0.62340  0.98300  Biso   1.000  C
  H71      1.0000 0.05320  0.60720  0.00250  Biso   1.000  H
  C84      1.0000 0.17580  0.62200  0.91750  Biso   1.000  C
  H72      1.0000 0.19230  0.60420  0.89000  Biso   1.000  H
  C85      1.0000 0.12650  0.54220  0.46660  Biso   1.000  C
  C86      1.0000 0.21540  0.51450  0.46930  Biso   1.000  C
  H73      1.0000 0.21810  0.48830  0.49480  Biso   1.000  H
  H74      1.0000 0.26800  0.53880  0.47680  Biso   1.000  H
  H75      1.0000 0.22020  0.49780  0.43810  Biso   1.000  H
  Gd2      1.0000 0.47713  0.08429  0.71893  Biso   1.000  Gd
  Ag4      1.0000 0.92550  0.01991  0.57371  Biso   1.000  Ag
  Ag5      1.0000 0.08267  0.11500  0.03335  Biso   1.000  Ag
  Ag6      1.0000 0.98458  0.76006  0.68396  Biso   1.000  Ag
  N22      1.0000 0.29040  0.08610  0.71470  Biso   1.000  N
  N23      1.0000 0.38650  0.01390  0.67120  Biso   1.000  N
  N24      1.0000 0.28240  0.94990  0.67550  Biso   1.000  N
  N25      1.0000 0.98440  0.94980  0.60700  Biso   1.000  N
  N26      1.0000 0.41070  0.07620  0.79770  Biso   1.000  N
  N27      1.0000 0.31880  0.11610  0.84550  Biso   1.000  N
  N28      1.0000 0.09590  0.10180  0.95260  Biso   1.000  N
  N29      1.0000 0.39250  0.16260  0.68040  Biso   1.000  N
  N30      1.0000 0.28830  0.18180  0.61530  Biso   1.000  N
  N31      1.0000 0.07280  0.30640  0.57220  Biso   1.000  N
  N32      1.0000 0.66480  0.08410  0.72560  Biso   1.000  N
  N33      1.0000 0.56240  0.00070  0.74440  Biso   1.000  N
  N34      1.0000 0.65050  0.94150  0.71350  Biso   1.000  N
  N35      1.0000 0.91330  0.82300  0.71980  Biso   1.000  N
  N36      1.0000 0.56400  0.14920  0.77500  Biso   1.000  N
  N37      1.0000 0.66450  0.14860  0.84420  Biso   1.000  N
  N38      1.0000 0.95030  0.21430  0.86790  Biso   1.000  N
  N39      1.0000 0.54940  0.10150  0.64290  Biso   1.000  N
  N40      1.0000 0.64420  0.15740  0.61130  Biso   1.000  N
  N41      1.0000 0.88150  0.09820  0.55480  Biso   1.000  N
  N42      1.0000 0.94310  0.06380  0.03660  Biso   1.000  N
  C87      1.0000 0.25510  0.03310  0.71860  Biso   1.000  C
  H76      1.0000 0.18630  0.03170  0.70740  Biso   1.000  H
  H77      1.0000 0.26570  0.02140  0.75280  Biso   1.000  H
  C88      1.0000 0.30720  0.99870  0.68790  Biso   1.000  C
  C89      1.0000 0.41350  0.97170  0.64590  Biso   1.000  C
  C90      1.0000 0.49310  0.96520  0.62070  Biso   1.000  C
  H78      1.0000 0.53680  0.99240  0.61790  Biso   1.000  H
  C91      1.0000 0.50360  0.91660  0.59990  Biso   1.000  C
  H79      1.0000 0.55590  0.91070  0.58270  Biso   1.000  H
  C92      1.0000 0.43980  0.87700  0.60390  Biso   1.000  C
  H80      1.0000 0.45020  0.84470  0.58920  Biso   1.000  H
  C93      1.0000 0.36240  0.88210  0.62810  Biso   1.000  C
  H81      1.0000 0.31960  0.85440  0.63080  Biso   1.000  H
  C94      1.0000 0.35040  0.93130  0.64880  Biso   1.000  C
  C95      1.0000 0.20600  0.91960  0.69310  Biso   1.000  C
  H82      1.0000 0.18670  0.93710  0.72190  Biso   1.000  H
  H83      1.0000 0.23130  0.88520  0.70360  Biso   1.000  H
  C96      1.0000 0.11900  0.91220  0.65600  Biso   1.000  C
  C97      1.0000 0.09040  0.86530  0.63960  Biso   1.000  C
  H84      1.0000 0.12640  0.83560  0.65040  Biso   1.000  H
  C98      1.0000 0.00810  0.85980  0.60670  Biso   1.000  C
  H85      1.0000 0.98860  0.82660  0.59460  Biso   1.000  H
  C99      1.0000 0.95560  0.90280  0.59230  Biso   1.000  C
  H86      1.0000 0.89780  0.89890  0.57140  Biso   1.000  H
  C100     1.0000 0.06390  0.95440  0.63830  Biso   1.000  C
  H87      1.0000 0.08360  0.98800  0.64900  Biso   1.000  H
  C101     1.0000 0.26520  0.11730  0.75570  Biso   1.000  C
  H88      1.0000 0.19900  0.11020  0.76090  Biso   1.000  H
  H89      1.0000 0.27110  0.15450  0.74860  Biso   1.000  H
  C102     1.0000 0.33200  0.10280  0.80030  Biso   1.000  C
  C103     1.0000 0.45180  0.07130  0.84540  Biso   1.000  C
  C104     1.0000 0.53540  0.04670  0.86550  Biso   1.000  C
  H90      1.0000 0.57340  0.02820  0.84570  Biso   1.000  H
  C105     1.0000 0.56080  0.05030  0.91510  Biso   1.000  C
  H91      1.0000 0.61820  0.03490  0.92940  Biso   1.000  H
  C106     1.0000 0.50390  0.07610  0.94430  Biso   1.000  C
  H92      1.0000 0.52310  0.07710  0.97820  Biso   1.000  H
  C107     1.0000 0.42120  0.10020  0.92600  Biso   1.000  C
  H93      1.0000 0.38330  0.11830  0.94620  Biso   1.000  H
  C108     1.0000 0.39600  0.09630  0.87570  Biso   1.000  C
  C109     1.0000 0.24580  0.15070  0.86070  Biso   1.000  C
  H94      1.0000 0.21620  0.17040  0.83220  Biso   1.000  H
  H95      1.0000 0.27640  0.17580  0.88470  Biso   1.000  H
  C110     1.0000 0.16990  0.12180  0.88270  Biso   1.000  C
  C111     1.0000 0.10500  0.09030  0.85510  Biso   1.000  C
  H96      1.0000 0.10890  0.08550  0.82150  Biso   1.000  H
  C112     1.0000 0.03530  0.06610  0.87620  Biso   1.000  C
  H97      1.0000 0.99000  0.04490  0.85750  Biso   1.000  H
  C113     1.0000 0.03220  0.07310  0.92510  Biso   1.000  C
  H98      1.0000 0.98300  0.05700  0.93960  Biso   1.000  H
  C114     1.0000 0.16220  0.12590  0.93160  Biso   1.000  C
  H99      1.0000 0.20660  0.14690  0.95110  Biso   1.000  H
  C115     1.0000 0.24760  0.10950  0.66820  Biso   1.000  C
  H100     1.0000 0.24030  0.08290  0.64240  Biso   1.000  H
  H101     1.0000 0.18410  0.12340  0.67170  Biso   1.000  H
  C116     1.0000 0.30950  0.15130  0.65510  Biso   1.000  C
  C117     1.0000 0.42910  0.20330  0.65640  Biso   1.000  C
  C118     1.0000 0.51270  0.23150  0.66730  Biso   1.000  C
  H102     1.0000 0.55500  0.22520  0.69600  Biso   1.000  H
  C119     1.0000 0.53110  0.26910  0.63440  Biso   1.000  C
  H103     1.0000 0.58650  0.28970  0.64120  Biso   1.000  H
  C120     1.0000 0.47070  0.27760  0.59170  Biso   1.000  C
  H104     1.0000 0.48850  0.30220  0.56920  Biso   1.000  H
  C121     1.0000 0.38500  0.25150  0.58060  Biso   1.000  C
  H105     1.0000 0.34320  0.25800  0.55170  Biso   1.000  H
  C122     1.0000 0.36530  0.21540  0.61450  Biso   1.000  C
  C123     1.0000 0.20520  0.17930  0.57930  Biso   1.000  C
  H106     1.0000 0.17590  0.14470  0.58040  Biso   1.000  H
  H107     1.0000 0.22450  0.18400  0.54670  Biso   1.000  H
  C124     1.0000 0.13230  0.22030  0.58760  Biso   1.000  C
  C125     1.0000 0.06190  0.21120  0.61740  Biso   1.000  C
  H108     1.0000 0.05720  0.17880  0.63310  Biso   1.000  H
  C126     1.0000 0.99820  0.25180  0.62340  Biso   1.000  C
  H109     1.0000 0.94960  0.24680  0.64330  Biso   1.000  H
  C127     1.0000 0.00540  0.29660  0.60170  Biso   1.000  C
  H110     1.0000 0.96180  0.32320  0.60670  Biso   1.000  H
  C128     1.0000 0.13300  0.26850  0.56550  Biso   1.000  C
  H111     1.0000 0.17920  0.27480  0.54440  Biso   1.000  H
  C129     1.0000 0.69790  0.03420  0.70790  Biso   1.000  C
  H112     1.0000 0.76440  0.02800  0.72190  Biso   1.000  H
  H113     1.0000 0.69500  0.03510  0.67210  Biso   1.000  H
  C130     1.0000 0.63590  0.99150  0.72250  Biso   1.000  C
  C131     1.0000 0.52480  0.95120  0.75230  Biso   1.000  C
  C132     1.0000 0.44570  0.93710  0.77490  Biso   1.000  C
  H114     1.0000 0.40930  0.96190  0.78950  Biso   1.000  H
  C133     1.0000 0.42420  0.88520  0.77450  Biso   1.000  C
  H115     1.0000 0.37260  0.87400  0.79030  Biso   1.000  H
  C134     1.0000 0.47480  0.84870  0.75210  Biso   1.000  C
  H116     1.0000 0.45500  0.81370  0.75170  Biso   1.000  H
  C135     1.0000 0.55500  0.86220  0.72990  Biso   1.000  C
  H117     1.0000 0.59090  0.83740  0.71490  Biso   1.000  H
  C136     1.0000 0.57750  0.91470  0.73150  Biso   1.000  C
  C137     1.0000 0.71840  0.91910  0.68370  Biso   1.000  C
  H118     1.0000 0.74170  0.94690  0.66380  Biso   1.000  H
  H119     1.0000 0.68490  0.89350  0.66130  Biso   1.000  H
  C138     1.0000 0.80240  0.89310  0.71280  Biso   1.000  C
  C139     1.0000 0.84620  0.91190  0.75530  Biso   1.000  C
  H120     1.0000 0.82250  0.94220  0.76880  Biso   1.000  H
  C140     1.0000 0.92700  0.88670  0.77990  Biso   1.000  C
  H121     1.0000 0.95830  0.89930  0.80980  Biso   1.000  H
  C141     1.0000 0.95710  0.84370  0.75860  Biso   1.000  C
  H122     1.0000 0.01400  0.82790  0.77300  Biso   1.000  H
  C142     1.0000 0.83440  0.84710  0.69770  Biso   1.000  C
  H123     1.0000 0.79970  0.83100  0.67030  Biso   1.000  H
  C143     1.0000 0.70300  0.09170  0.77760  Biso   1.000  C
  H124     1.0000 0.70170  0.05850  0.79520  Biso   1.000  H
  H125     1.0000 0.76940  0.10370  0.78030  Biso   1.000  H
  C144     1.0000 0.64500  0.12990  0.79870  Biso   1.000  C
  C145     1.0000 0.53010  0.18260  0.80890  Biso   1.000  C
  C146     1.0000 0.44860  0.21280  0.80400  Biso   1.000  C
  H126     1.0000 0.40830  0.21530  0.77410  Biso   1.000  H
  C147     1.0000 0.42900  0.23890  0.84510  Biso   1.000  C
  H127     1.0000 0.37360  0.25970  0.84330  Biso   1.000  H
  C148     1.0000 0.48840  0.23560  0.88880  Biso   1.000  C
  H128     1.0000 0.47070  0.25310  0.91620  Biso   1.000  H
  C149     1.0000 0.57360  0.20740  0.89390  Biso   1.000  C
  H129     1.0000 0.61530  0.20590  0.92340  Biso   1.000  H
  C150     1.0000 0.59160  0.18190  0.85210  Biso   1.000  C
  C151     1.0000 0.73850  0.12880  0.88150  Biso   1.000  C
  H130     1.0000 0.76110  0.09520  0.87050  Biso   1.000  H
  H131     1.0000 0.70990  0.12240  0.91160  Biso   1.000  H
  C152     1.0000 0.82310  0.16450  0.89330  Biso   1.000  C
  C153     1.0000 0.85880  0.17200  0.94140  Biso   1.000  C
  H132     1.0000 0.82840  0.15740  0.96670  Biso   1.000  H
  C154     1.0000 0.94020  0.20140  0.95170  Biso   1.000  C
  H133     1.0000 0.96570  0.20790  0.98440  Biso   1.000  H
  C155     1.0000 0.98270  0.22050  0.91550  Biso   1.000  C
  H134     1.0000 0.03940  0.23970  0.92360  Biso   1.000  H
  C156     1.0000 0.86970  0.18590  0.85800  Biso   1.000  C
  H135     1.0000 0.84440  0.18070  0.82510  Biso   1.000  H
  C157     1.0000 0.69500  0.12720  0.69640  Biso   1.000  C
  H136     1.0000 0.76110  0.12190  0.69000  Biso   1.000  H
  H137     1.0000 0.69170  0.16030  0.71400  Biso   1.000  H
  C158     1.0000 0.62990  0.12870  0.64960  Biso   1.000  C
  C159     1.0000 0.50870  0.11350  0.59590  Biso   1.000  C
  C160     1.0000 0.42490  0.09710  0.56930  Biso   1.000  C
  H138     1.0000 0.38570  0.07210  0.58180  Biso   1.000  H
  C161     1.0000 0.40040  0.11840  0.52370  Biso   1.000  C
  H139     1.0000 0.34280  0.10830  0.50500  Biso   1.000  H
  C162     1.0000 0.45900  0.15450  0.50480  Biso   1.000  C
  H140     1.0000 0.43980  0.16860  0.47350  Biso   1.000  H
  C163     1.0000 0.54240  0.17020  0.52980  Biso   1.000  C
  H141     1.0000 0.58230  0.19420  0.51650  Biso   1.000  H
  C164     1.0000 0.56650  0.14950  0.57570  Biso   1.000  C
  C165     1.0000 0.72200  0.19300  0.60600  Biso   1.000  C
  H142     1.0000 0.75760  0.20010  0.63830  Biso   1.000  H
  H143     1.0000 0.69590  0.22610  0.59240  Biso   1.000  H
  C166     1.0000 0.78830  0.17070  0.57320  Biso   1.000  C
  C167     1.0000 0.81320  0.19640  0.53400  Biso   1.000  C
  H144     1.0000 0.79050  0.23040  0.52670  Biso   1.000  H
  C168     1.0000 0.87260  0.17210  0.50460  Biso   1.000  C
  H145     1.0000 0.88980  0.18890  0.47670  Biso   1.000  H
  C169     1.0000 0.90530  0.12340  0.51700  Biso   1.000  C
  H146     1.0000 0.94680  0.10720  0.49750  Biso   1.000  H
  C170     1.0000 0.82420  0.12200  0.58250  Biso   1.000  C
  H147     1.0000 0.80770  0.10420  0.61000  Biso   1.000  H
  C171     1.0000 0.87350  0.04220  0.03340  Biso   1.000  C
  C172     1.0000 0.78460  0.01450  0.03070  Biso   1.000  C
  H148     1.0000 0.78190  0.98830  0.00520  Biso   1.000  H
  H149     1.0000 0.73200  0.03880  0.02320  Biso   1.000  H
  H150     1.0000 0.77980  0.99780  0.06190  Biso   1.000  H
  Gd3      1.0000 0.47713  0.41571  0.21893  Biso   1.000  Gd
  Ag7      1.0000 0.92550  0.48009  0.07371  Biso   1.000  Ag
  Ag8      1.0000 0.08267  0.38500  0.53335  Biso   1.000  Ag
  Ag9      1.0000 0.98458  0.73994  0.18396  Biso   1.000  Ag
  N43      1.0000 0.29040  0.41390  0.21470  Biso   1.000  N
  N44      1.0000 0.38650  0.48610  0.17120  Biso   1.000  N
  N45      1.0000 0.28240  0.55010  0.17550  Biso   1.000  N
  N46      1.0000 0.98440  0.55020  0.10700  Biso   1.000  N
  N47      1.0000 0.41070  0.42380  0.29770  Biso   1.000  N
  N48      1.0000 0.31880  0.38390  0.34550  Biso   1.000  N
  N49      1.0000 0.09590  0.39820  0.45260  Biso   1.000  N
  N50      1.0000 0.39250  0.33740  0.18040  Biso   1.000  N
  N51      1.0000 0.28830  0.31820  0.11530  Biso   1.000  N
  N52      1.0000 0.07280  0.19360  0.07220  Biso   1.000  N
  N53      1.0000 0.66480  0.41590  0.22560  Biso   1.000  N
  N54      1.0000 0.56240  0.49930  0.24440  Biso   1.000  N
  N55      1.0000 0.65050  0.55850  0.21350  Biso   1.000  N
  N56      1.0000 0.91330  0.67700  0.21980  Biso   1.000  N
  N57      1.0000 0.56400  0.35080  0.27500  Biso   1.000  N
  N58      1.0000 0.66450  0.35140  0.34420  Biso   1.000  N
  N59      1.0000 0.95030  0.28570  0.36790  Biso   1.000  N
  N60      1.0000 0.54940  0.39850  0.14290  Biso   1.000  N
  N61      1.0000 0.64420  0.34260  0.11130  Biso   1.000  N
  N62      1.0000 0.88150  0.40180  0.05480  Biso   1.000  N
  N63      1.0000 0.94310  0.43620  0.53660  Biso   1.000  N
  C173     1.0000 0.25510  0.46690  0.21860  Biso   1.000  C
  H151     1.0000 0.18630  0.46830  0.20740  Biso   1.000  H
  H152     1.0000 0.26570  0.47860  0.25280  Biso   1.000  H
  C174     1.0000 0.30720  0.50130  0.18790  Biso   1.000  C
  C175     1.0000 0.41350  0.52830  0.14590  Biso   1.000  C
  C176     1.0000 0.49310  0.53480  0.12070  Biso   1.000  C
  H153     1.0000 0.53680  0.50760  0.11790  Biso   1.000  H
  C177     1.0000 0.50360  0.58340  0.09990  Biso   1.000  C
  H154     1.0000 0.55590  0.58930  0.08270  Biso   1.000  H
  C178     1.0000 0.43980  0.62300  0.10390  Biso   1.000  C
  H155     1.0000 0.45020  0.65530  0.08920  Biso   1.000  H
  C179     1.0000 0.36240  0.61790  0.12810  Biso   1.000  C
  H156     1.0000 0.31960  0.64560  0.13080  Biso   1.000  H
  C180     1.0000 0.35040  0.56870  0.14880  Biso   1.000  C
  C181     1.0000 0.20600  0.58040  0.19310  Biso   1.000  C
  H157     1.0000 0.18670  0.56290  0.22190  Biso   1.000  H
  H158     1.0000 0.23130  0.61480  0.20360  Biso   1.000  H
  C182     1.0000 0.11900  0.58780  0.15600  Biso   1.000  C
  C183     1.0000 0.09040  0.63470  0.13960  Biso   1.000  C
  H159     1.0000 0.12640  0.66440  0.15040  Biso   1.000  H
  C184     1.0000 0.00810  0.64020  0.10670  Biso   1.000  C
  H160     1.0000 0.98860  0.67340  0.09460  Biso   1.000  H
  C185     1.0000 0.95560  0.59720  0.09230  Biso   1.000  C
  H161     1.0000 0.89780  0.60110  0.07140  Biso   1.000  H
  C186     1.0000 0.06390  0.54560  0.13830  Biso   1.000  C
  H162     1.0000 0.08360  0.51200  0.14900  Biso   1.000  H
  C187     1.0000 0.26520  0.38270  0.25570  Biso   1.000  C
  H163     1.0000 0.19900  0.38980  0.26090  Biso   1.000  H
  H164     1.0000 0.27110  0.34550  0.24860  Biso   1.000  H
  C188     1.0000 0.33200  0.39720  0.30030  Biso   1.000  C
  C189     1.0000 0.45180  0.42870  0.34540  Biso   1.000  C
  C190     1.0000 0.53540  0.45330  0.36550  Biso   1.000  C
  H165     1.0000 0.57340  0.47180  0.34570  Biso   1.000  H
  C191     1.0000 0.56080  0.44970  0.41510  Biso   1.000  C
  H166     1.0000 0.61820  0.46510  0.42940  Biso   1.000  H
  C192     1.0000 0.50390  0.42390  0.44430  Biso   1.000  C
  H167     1.0000 0.52310  0.42290  0.47820  Biso   1.000  H
  C193     1.0000 0.42120  0.39980  0.42600  Biso   1.000  C
  H168     1.0000 0.38330  0.38170  0.44620  Biso   1.000  H
  C194     1.0000 0.39600  0.40370  0.37570  Biso   1.000  C
  C195     1.0000 0.24580  0.34930  0.36070  Biso   1.000  C
  H169     1.0000 0.21620  0.32960  0.33220  Biso   1.000  H
  H170     1.0000 0.27640  0.32420  0.38470  Biso   1.000  H
  C196     1.0000 0.16990  0.37820  0.38270  Biso   1.000  C
  C197     1.0000 0.10500  0.40970  0.35510  Biso   1.000  C
  H171     1.0000 0.10890  0.41450  0.32150  Biso   1.000  H
  C198     1.0000 0.03530  0.43390  0.37620  Biso   1.000  C
  H172     1.0000 0.99000  0.45510  0.35750  Biso   1.000  H
  C199     1.0000 0.03220  0.42690  0.42510  Biso   1.000  C
  H173     1.0000 0.98300  0.44300  0.43960  Biso   1.000  H
  C200     1.0000 0.16220  0.37410  0.43160  Biso   1.000  C
  H174     1.0000 0.20660  0.35310  0.45110  Biso   1.000  H
  C201     1.0000 0.24760  0.39050  0.16820  Biso   1.000  C
  H175     1.0000 0.24030  0.41710  0.14240  Biso   1.000  H
  H176     1.0000 0.18410  0.37660  0.17170  Biso   1.000  H
  C202     1.0000 0.30950  0.34870  0.15510  Biso   1.000  C
  C203     1.0000 0.42910  0.29670  0.15640  Biso   1.000  C
  C204     1.0000 0.51270  0.26850  0.16730  Biso   1.000  C
  H177     1.0000 0.55500  0.27480  0.19600  Biso   1.000  H
  C205     1.0000 0.53110  0.23090  0.13440  Biso   1.000  C
  H178     1.0000 0.58650  0.21030  0.14120  Biso   1.000  H
  C206     1.0000 0.47070  0.22240  0.09170  Biso   1.000  C
  H179     1.0000 0.48850  0.19780  0.06920  Biso   1.000  H
  C207     1.0000 0.38500  0.24850  0.08060  Biso   1.000  C
  H180     1.0000 0.34320  0.24200  0.05170  Biso   1.000  H
  C208     1.0000 0.36530  0.28460  0.11450  Biso   1.000  C
  C209     1.0000 0.20520  0.32070  0.07930  Biso   1.000  C
  H181     1.0000 0.17590  0.35530  0.08040  Biso   1.000  H
  H182     1.0000 0.22450  0.31600  0.04670  Biso   1.000  H
  C210     1.0000 0.13230  0.27970  0.08760  Biso   1.000  C
  C211     1.0000 0.06190  0.28880  0.11740  Biso   1.000  C
  H183     1.0000 0.05720  0.32120  0.13310  Biso   1.000  H
  C212     1.0000 0.99820  0.24820  0.12340  Biso   1.000  C
  H184     1.0000 0.94960  0.25320  0.14330  Biso   1.000  H
  C213     1.0000 0.00540  0.20340  0.10170  Biso   1.000  C
  H185     1.0000 0.96180  0.17680  0.10670  Biso   1.000  H
  C214     1.0000 0.13300  0.23150  0.06550  Biso   1.000  C
  H186     1.0000 0.17920  0.22520  0.04440  Biso   1.000  H
  C215     1.0000 0.69790  0.46580  0.20790  Biso   1.000  C
  H187     1.0000 0.76440  0.47200  0.22190  Biso   1.000  H
  H188     1.0000 0.69500  0.46490  0.17210  Biso   1.000  H
  C216     1.0000 0.63590  0.50850  0.22250  Biso   1.000  C
  C217     1.0000 0.52480  0.54880  0.25230  Biso   1.000  C
  C218     1.0000 0.44570  0.56290  0.27490  Biso   1.000  C
  H189     1.0000 0.40930  0.53810  0.28950  Biso   1.000  H
  C219     1.0000 0.42420  0.61480  0.27450  Biso   1.000  C
  H190     1.0000 0.37260  0.62600  0.29030  Biso   1.000  H
  C220     1.0000 0.47480  0.65130  0.25210  Biso   1.000  C
  H191     1.0000 0.45500  0.68630  0.25170  Biso   1.000  H
  C221     1.0000 0.55500  0.63780  0.22990  Biso   1.000  C
  H192     1.0000 0.59090  0.66260  0.21490  Biso   1.000  H
  C222     1.0000 0.57750  0.58530  0.23150  Biso   1.000  C
  C223     1.0000 0.71840  0.58090  0.18370  Biso   1.000  C
  H193     1.0000 0.74170  0.55310  0.16380  Biso   1.000  H
  H194     1.0000 0.68490  0.60650  0.16130  Biso   1.000  H
  C224     1.0000 0.80240  0.60690  0.21280  Biso   1.000  C
  C225     1.0000 0.84620  0.58810  0.25530  Biso   1.000  C
  H195     1.0000 0.82250  0.55780  0.26880  Biso   1.000  H
  C226     1.0000 0.92700  0.61330  0.27990  Biso   1.000  C
  H196     1.0000 0.95830  0.60070  0.30980  Biso   1.000  H
  C227     1.0000 0.95710  0.65630  0.25860  Biso   1.000  C
  H197     1.0000 0.01400  0.67210  0.27300  Biso   1.000  H
  C228     1.0000 0.83440  0.65290  0.19770  Biso   1.000  C
  H198     1.0000 0.79970  0.66900  0.17030  Biso   1.000  H
  C229     1.0000 0.70300  0.40830  0.27760  Biso   1.000  C
  H199     1.0000 0.70170  0.44150  0.29520  Biso   1.000  H
  H200     1.0000 0.76940  0.39630  0.28030  Biso   1.000  H
  C230     1.0000 0.64500  0.37010  0.29870  Biso   1.000  C
  C231     1.0000 0.53010  0.31740  0.30890  Biso   1.000  C
  C232     1.0000 0.44860  0.28720  0.30400  Biso   1.000  C
  H201     1.0000 0.40830  0.28470  0.27410  Biso   1.000  H
  C233     1.0000 0.42900  0.26110  0.34510  Biso   1.000  C
  H202     1.0000 0.37360  0.24030  0.34330  Biso   1.000  H
  C234     1.0000 0.48840  0.26440  0.38880  Biso   1.000  C
  H203     1.0000 0.47070  0.24690  0.41620  Biso   1.000  H
  C235     1.0000 0.57360  0.29260  0.39390  Biso   1.000  C
  H204     1.0000 0.61530  0.29410  0.42340  Biso   1.000  H
  C236     1.0000 0.59160  0.31810  0.35210  Biso   1.000  C
  C237     1.0000 0.73850  0.37120  0.38150  Biso   1.000  C
  H205     1.0000 0.76110  0.40480  0.37050  Biso   1.000  H
  H206     1.0000 0.70990  0.37760  0.41160  Biso   1.000  H
  C238     1.0000 0.82310  0.33550  0.39330  Biso   1.000  C
  C239     1.0000 0.85880  0.32800  0.44140  Biso   1.000  C
  H207     1.0000 0.82840  0.34260  0.46670  Biso   1.000  H
  C240     1.0000 0.94020  0.29860  0.45170  Biso   1.000  C
  H208     1.0000 0.96570  0.29210  0.48440  Biso   1.000  H
  C241     1.0000 0.98270  0.27950  0.41550  Biso   1.000  C
  H209     1.0000 0.03940  0.26030  0.42360  Biso   1.000  H
  C242     1.0000 0.86970  0.31410  0.35800  Biso   1.000  C
  H210     1.0000 0.84440  0.31930  0.32510  Biso   1.000  H
  C243     1.0000 0.69500  0.37280  0.19640  Biso   1.000  C
  H211     1.0000 0.76110  0.37810  0.19000  Biso   1.000  H
  H212     1.0000 0.69170  0.33970  0.21400  Biso   1.000  H
  C244     1.0000 0.62990  0.37130  0.14960  Biso   1.000  C
  C245     1.0000 0.50870  0.38650  0.09590  Biso   1.000  C
  C246     1.0000 0.42490  0.40290  0.06930  Biso   1.000  C
  H213     1.0000 0.38570  0.42790  0.08180  Biso   1.000  H
  C247     1.0000 0.40040  0.38160  0.02370  Biso   1.000  C
  H214     1.0000 0.34280  0.39170  0.00500  Biso   1.000  H
  C248     1.0000 0.45900  0.34550  0.00480  Biso   1.000  C
  H215     1.0000 0.43980  0.33140  0.97350  Biso   1.000  H
  C249     1.0000 0.54240  0.32980  0.02980  Biso   1.000  C
  H216     1.0000 0.58230  0.30580  0.01650  Biso   1.000  H
  C250     1.0000 0.56650  0.35050  0.07570  Biso   1.000  C
  C251     1.0000 0.72200  0.30700  0.10600  Biso   1.000  C
  H217     1.0000 0.75760  0.29990  0.13830  Biso   1.000  H
  H218     1.0000 0.69590  0.27390  0.09240  Biso   1.000  H
  C252     1.0000 0.78830  0.32930  0.07320  Biso   1.000  C
  C253     1.0000 0.81320  0.30360  0.03400  Biso   1.000  C
  H219     1.0000 0.79050  0.26960  0.02670  Biso   1.000  H
  C254     1.0000 0.87260  0.32790  0.00460  Biso   1.000  C
  H220     1.0000 0.88980  0.31110  0.97670  Biso   1.000  H
  C255     1.0000 0.90530  0.37660  0.01700  Biso   1.000  C
  H221     1.0000 0.94680  0.39280  0.99750  Biso   1.000  H
  C256     1.0000 0.82420  0.37800  0.08250  Biso   1.000  C
  H222     1.0000 0.80770  0.39580  0.11000  Biso   1.000  H
  C257     1.0000 0.87350  0.45780  0.53340  Biso   1.000  C
  C258     1.0000 0.78460  0.48550  0.53070  Biso   1.000  C
  H223     1.0000 0.78190  0.51170  0.50520  Biso   1.000  H
  H224     1.0000 0.73200  0.46120  0.52320  Biso   1.000  H
  H225     1.0000 0.77980  0.50220  0.56190  Biso   1.000  H
  Gd4      1.0000 0.52287  0.91571  0.28107  Biso   1.000  Gd
  Ag10     1.0000 0.07450  0.98009  0.42629  Biso   1.000  Ag
  Ag11     1.0000 0.91733  0.88500  0.96665  Biso   1.000  Ag
  Ag12     1.0000 0.01542  0.23994  0.31604  Biso   1.000  Ag
  N64      1.0000 0.70960  0.91390  0.28530  Biso   1.000  N
  N65      1.0000 0.61350  0.98610  0.32880  Biso   1.000  N
  N66      1.0000 0.71760  0.05010  0.32450  Biso   1.000  N
  N67      1.0000 0.01560  0.05020  0.39300  Biso   1.000  N
  N68      1.0000 0.58930  0.92380  0.20230  Biso   1.000  N
  N69      1.0000 0.68120  0.88390  0.15450  Biso   1.000  N
  N70      1.0000 0.90410  0.89820  0.04740  Biso   1.000  N
  N71      1.0000 0.60750  0.83740  0.31960  Biso   1.000  N
  N72      1.0000 0.71170  0.81820  0.38470  Biso   1.000  N
  N73      1.0000 0.92720  0.69360  0.42780  Biso   1.000  N
  N74      1.0000 0.33520  0.91590  0.27440  Biso   1.000  N
  N75      1.0000 0.43760  0.99930  0.25560  Biso   1.000  N
  N76      1.0000 0.34950  0.05850  0.28650  Biso   1.000  N
  N77      1.0000 0.08670  0.17700  0.28020  Biso   1.000  N
  N78      1.0000 0.43600  0.85080  0.22500  Biso   1.000  N
  N79      1.0000 0.33550  0.85140  0.15580  Biso   1.000  N
  N80      1.0000 0.04970  0.78570  0.13210  Biso   1.000  N
  N81      1.0000 0.45060  0.89850  0.35710  Biso   1.000  N
  N82      1.0000 0.35580  0.84260  0.38870  Biso   1.000  N
  N83      1.0000 0.11850  0.90180  0.44520  Biso   1.000  N
  N84      1.0000 0.05690  0.93620  0.96340  Biso   1.000  N
  C259     1.0000 0.74490  0.96690  0.28140  Biso   1.000  C
  H226     1.0000 0.81370  0.96830  0.29260  Biso   1.000  H
  H227     1.0000 0.73430  0.97860  0.24720  Biso   1.000  H
  C260     1.0000 0.69280  0.00130  0.31210  Biso   1.000  C
  C261     1.0000 0.58650  0.02830  0.35410  Biso   1.000  C
  C262     1.0000 0.50690  0.03480  0.37930  Biso   1.000  C
  H228     1.0000 0.46320  0.00760  0.38210  Biso   1.000  H
  C263     1.0000 0.49640  0.08340  0.40010  Biso   1.000  C
  H229     1.0000 0.44410  0.08930  0.41730  Biso   1.000  H
  C264     1.0000 0.56020  0.12300  0.39610  Biso   1.000  C
  H230     1.0000 0.54980  0.15530  0.41080  Biso   1.000  H
  C265     1.0000 0.63760  0.11790  0.37190  Biso   1.000  C
  H231     1.0000 0.68040  0.14560  0.36920  Biso   1.000  H
  C266     1.0000 0.64960  0.06870  0.35120  Biso   1.000  C
  C267     1.0000 0.79400  0.08040  0.30690  Biso   1.000  C
  H232     1.0000 0.81330  0.06290  0.27810  Biso   1.000  H
  H233     1.0000 0.76870  0.11480  0.29640  Biso   1.000  H
  C268     1.0000 0.88100  0.08780  0.34400  Biso   1.000  C
  C269     1.0000 0.90960  0.13470  0.36040  Biso   1.000  C
  H234     1.0000 0.87360  0.16440  0.34960  Biso   1.000  H
  C270     1.0000 0.99190  0.14020  0.39330  Biso   1.000  C
  H235     1.0000 0.01140  0.17340  0.40540  Biso   1.000  H
  C271     1.0000 0.04440  0.09720  0.40770  Biso   1.000  C
  H236     1.0000 0.10220  0.10110  0.42860  Biso   1.000  H
  C272     1.0000 0.93610  0.04560  0.36170  Biso   1.000  C
  H237     1.0000 0.91640  0.01200  0.35100  Biso   1.000  H
  C273     1.0000 0.73480  0.88270  0.24430  Biso   1.000  C
  H238     1.0000 0.80100  0.88980  0.23910  Biso   1.000  H
  H239     1.0000 0.72890  0.84550  0.25140  Biso   1.000  H
  C274     1.0000 0.66800  0.89720  0.19970  Biso   1.000  C
  C275     1.0000 0.54820  0.92870  0.15460  Biso   1.000  C
  C276     1.0000 0.46460  0.95330  0.13450  Biso   1.000  C
  H240     1.0000 0.42660  0.97180  0.15430  Biso   1.000  H
  C277     1.0000 0.43920  0.94970  0.08490  Biso   1.000  C
  H241     1.0000 0.38180  0.96510  0.07060  Biso   1.000  H
  C278     1.0000 0.49610  0.92390  0.05570  Biso   1.000  C
  H242     1.0000 0.47690  0.92290  0.02180  Biso   1.000  H
  C279     1.0000 0.57880  0.89980  0.07400  Biso   1.000  C
  H243     1.0000 0.61670  0.88170  0.05380  Biso   1.000  H
  C280     1.0000 0.60400  0.90370  0.12430  Biso   1.000  C
  C281     1.0000 0.75420  0.84930  0.13930  Biso   1.000  C
  H244     1.0000 0.78380  0.82960  0.16780  Biso   1.000  H
  H245     1.0000 0.72360  0.82420  0.11530  Biso   1.000  H
  C282     1.0000 0.83010  0.87820  0.11730  Biso   1.000  C
  C283     1.0000 0.89500  0.90970  0.14490  Biso   1.000  C
  H246     1.0000 0.89110  0.91450  0.17850  Biso   1.000  H
  C284     1.0000 0.96470  0.93390  0.12380  Biso   1.000  C
  H247     1.0000 0.01000  0.95510  0.14250  Biso   1.000  H
  C285     1.0000 0.96780  0.92690  0.07490  Biso   1.000  C
  H248     1.0000 0.01700  0.94300  0.06040  Biso   1.000  H
  C286     1.0000 0.83780  0.87410  0.06840  Biso   1.000  C
  H249     1.0000 0.79340  0.85310  0.04890  Biso   1.000  H
  C287     1.0000 0.75240  0.89050  0.33180  Biso   1.000  C
  H250     1.0000 0.75970  0.91710  0.35760  Biso   1.000  H
  H251     1.0000 0.81590  0.87660  0.32830  Biso   1.000  H
  C288     1.0000 0.69050  0.84870  0.34490  Biso   1.000  C
  C289     1.0000 0.57090  0.79670  0.34360  Biso   1.000  C
  C290     1.0000 0.48730  0.76850  0.33270  Biso   1.000  C
  H252     1.0000 0.44500  0.77480  0.30400  Biso   1.000  H
  C291     1.0000 0.46890  0.73090  0.36560  Biso   1.000  C
  H253     1.0000 0.41350  0.71030  0.35880  Biso   1.000  H
  C292     1.0000 0.52930  0.72240  0.40830  Biso   1.000  C
  H254     1.0000 0.51150  0.69780  0.43080  Biso   1.000  H
  C293     1.0000 0.61500  0.74850  0.41940  Biso   1.000  C
  H255     1.0000 0.65680  0.74200  0.44830  Biso   1.000  H
  C294     1.0000 0.63470  0.78460  0.38550  Biso   1.000  C
  C295     1.0000 0.79480  0.82070  0.42070  Biso   1.000  C
  H256     1.0000 0.82410  0.85530  0.41960  Biso   1.000  H
  H257     1.0000 0.77550  0.81600  0.45330  Biso   1.000  H
  C296     1.0000 0.86770  0.77970  0.41240  Biso   1.000  C
  C297     1.0000 0.93810  0.78880  0.38260  Biso   1.000  C
  H258     1.0000 0.94280  0.82120  0.36690  Biso   1.000  H
  C298     1.0000 0.00180  0.74820  0.37660  Biso   1.000  C
  H259     1.0000 0.05040  0.75320  0.35670  Biso   1.000  H
  C299     1.0000 0.99460  0.70340  0.39830  Biso   1.000  C
  H260     1.0000 0.03820  0.67680  0.39330  Biso   1.000  H
  C300     1.0000 0.86700  0.73150  0.43450  Biso   1.000  C
  H261     1.0000 0.82080  0.72520  0.45560  Biso   1.000  H
  C301     1.0000 0.30210  0.96580  0.29210  Biso   1.000  C
  H262     1.0000 0.23560  0.97200  0.27810  Biso   1.000  H
  H263     1.0000 0.30500  0.96490  0.32790  Biso   1.000  H
  C302     1.0000 0.36410  0.00850  0.27750  Biso   1.000  C
  C303     1.0000 0.47520  0.04880  0.24770  Biso   1.000  C
  C304     1.0000 0.55430  0.06290  0.22510  Biso   1.000  C
  H264     1.0000 0.59070  0.03810  0.21050  Biso   1.000  H
  C305     1.0000 0.57580  0.11480  0.22550  Biso   1.000  C
  H265     1.0000 0.62740  0.12600  0.20970  Biso   1.000  H
  C306     1.0000 0.52520  0.15130  0.24790  Biso   1.000  C
  H266     1.0000 0.54500  0.18630  0.24830  Biso   1.000  H
  C307     1.0000 0.44500  0.13780  0.27010  Biso   1.000  C
  H267     1.0000 0.40910  0.16260  0.28510  Biso   1.000  H
  C308     1.0000 0.42250  0.08530  0.26850  Biso   1.000  C
  C309     1.0000 0.28160  0.08090  0.31630  Biso   1.000  C
  H268     1.0000 0.25830  0.05310  0.33620  Biso   1.000  H
  H269     1.0000 0.31510  0.10650  0.33870  Biso   1.000  H
  C310     1.0000 0.19760  0.10690  0.28720  Biso   1.000  C
  C311     1.0000 0.15380  0.08810  0.24470  Biso   1.000  C
  H270     1.0000 0.17750  0.05780  0.23120  Biso   1.000  H
  C312     1.0000 0.07300  0.11330  0.22010  Biso   1.000  C
  H271     1.0000 0.04170  0.10070  0.19020  Biso   1.000  H
  C313     1.0000 0.04290  0.15630  0.24140  Biso   1.000  C
  H272     1.0000 0.98600  0.17210  0.22700  Biso   1.000  H
  C314     1.0000 0.16560  0.15290  0.30230  Biso   1.000  C
  H273     1.0000 0.20030  0.16900  0.32970  Biso   1.000  H
  C315     1.0000 0.29700  0.90830  0.22240  Biso   1.000  C
  H274     1.0000 0.29830  0.94150  0.20480  Biso   1.000  H
  H275     1.0000 0.23060  0.89630  0.21970  Biso   1.000  H
  C316     1.0000 0.35500  0.87010  0.20130  Biso   1.000  C
  C317     1.0000 0.46990  0.81740  0.19110  Biso   1.000  C
  C318     1.0000 0.55140  0.78720  0.19600  Biso   1.000  C
  H276     1.0000 0.59170  0.78470  0.22590  Biso   1.000  H
  C319     1.0000 0.57100  0.76110  0.15490  Biso   1.000  C
  H277     1.0000 0.62640  0.74030  0.15670  Biso   1.000  H
  C320     1.0000 0.51160  0.76440  0.11120  Biso   1.000  C
  H278     1.0000 0.52930  0.74690  0.08380  Biso   1.000  H
  C321     1.0000 0.42640  0.79260  0.10610  Biso   1.000  C
  H279     1.0000 0.38470  0.79410  0.07660  Biso   1.000  H
  C322     1.0000 0.40840  0.81810  0.14790  Biso   1.000  C
  C323     1.0000 0.26150  0.87120  0.11850  Biso   1.000  C
  H280     1.0000 0.23890  0.90480  0.12950  Biso   1.000  H
  H281     1.0000 0.29010  0.87760  0.08840  Biso   1.000  H
  C324     1.0000 0.17690  0.83550  0.10670  Biso   1.000  C
  C325     1.0000 0.14120  0.82800  0.05860  Biso   1.000  C
  H282     1.0000 0.17160  0.84260  0.03330  Biso   1.000  H
  C326     1.0000 0.05980  0.79860  0.04830  Biso   1.000  C
  H283     1.0000 0.03430  0.79210  0.01560  Biso   1.000  H
  C327     1.0000 0.01730  0.77950  0.08450  Biso   1.000  C
  H284     1.0000 0.96060  0.76030  0.07640  Biso   1.000  H
  C328     1.0000 0.13030  0.81410  0.14200  Biso   1.000  C
  H285     1.0000 0.15560  0.81930  0.17490  Biso   1.000  H
  C329     1.0000 0.30500  0.87280  0.30360  Biso   1.000  C
  H286     1.0000 0.23890  0.87810  0.31000  Biso   1.000  H
  H287     1.0000 0.30830  0.83970  0.28600  Biso   1.000  H
  C330     1.0000 0.37010  0.87130  0.35040  Biso   1.000  C
  C331     1.0000 0.49130  0.88650  0.40410  Biso   1.000  C
  C332     1.0000 0.57510  0.90290  0.43070  Biso   1.000  C
  H288     1.0000 0.61430  0.92790  0.41820  Biso   1.000  H
  C333     1.0000 0.59960  0.88160  0.47630  Biso   1.000  C
  H289     1.0000 0.65720  0.89170  0.49500  Biso   1.000  H
  C334     1.0000 0.54100  0.84550  0.49520  Biso   1.000  C
  H290     1.0000 0.56020  0.83140  0.52650  Biso   1.000  H
  C335     1.0000 0.45760  0.82980  0.47020  Biso   1.000  C
  H291     1.0000 0.41770  0.80580  0.48350  Biso   1.000  H
  C336     1.0000 0.43350  0.85050  0.42430  Biso   1.000  C
  C337     1.0000 0.27800  0.80700  0.39400  Biso   1.000  C
  H292     1.0000 0.24240  0.79990  0.36170  Biso   1.000  H
  H293     1.0000 0.30410  0.77390  0.40760  Biso   1.000  H
  C338     1.0000 0.21170  0.82930  0.42680  Biso   1.000  C
  C339     1.0000 0.18680  0.80360  0.46600  Biso   1.000  C
  H294     1.0000 0.20950  0.76960  0.47330  Biso   1.000  H
  C340     1.0000 0.12740  0.82790  0.49540  Biso   1.000  C
  H295     1.0000 0.11020  0.81110  0.52330  Biso   1.000  H
  C341     1.0000 0.09470  0.87660  0.48300  Biso   1.000  C
  H296     1.0000 0.05320  0.89280  0.50250  Biso   1.000  H
  C342     1.0000 0.17580  0.87800  0.41750  Biso   1.000  C
  H297     1.0000 0.19230  0.89580  0.39000  Biso   1.000  H
  C343     1.0000 0.12650  0.95780  0.96660  Biso   1.000  C
  C344     1.0000 0.21540  0.98550  0.96930  Biso   1.000  C
  H298     1.0000 0.21810  0.01170  0.99480  Biso   1.000  H
  H299     1.0000 0.26800  0.96120  0.97680  Biso   1.000  H
  H300     1.0000 0.22020  0.00220  0.93810  Biso   1.000  H
