data_image0
_cell_length_a       14.2437
_cell_length_b       25.8296
_cell_length_c       27.8391
_cell_angle_alpha    90
_cell_angle_beta     97.592
_cell_angle_gamma    90

_symmetry_space_group_name_H-M    "P 1"
_symmetry_int_tables_number       1

loop_
  _symmetry_equiv_pos_as_xyz
  'x, y, z'

loop_
  _atom_site_label
  _atom_site_occupancy
  _atom_site_fract_x
  _atom_site_fract_y
  _atom_site_fract_z
  _atom_site_thermal_displace_type
  _atom_site_B_iso_or_equiv
  _atom_site_type_symbol
  Eu1      1.0000 0.52224  0.58486  0.78094  Biso   1.000  Eu
  Ag1      1.0000 0.07392  0.52020  0.92649  Biso   1.000  Ag
  Ag2      1.0000 0.91786  0.61498  0.46745  Biso   1.000  Ag
  Ag3      1.0000 0.01572  0.26053  0.81619  Biso   1.000  Ag
  N1       1.0000 0.70940  0.58689  0.78529  Biso   1.000  N
  N2       1.0000 0.61340  0.51418  0.82851  Biso   1.000  N
  N3       1.0000 0.71710  0.45031  0.82428  Biso   1.000  N
  N4       1.0000 0.01510  0.45040  0.89340  Biso   1.000  N
  N5       1.0000 0.58940  0.57692  0.70225  Biso   1.000  N
  N6       1.0000 0.68080  0.61705  0.65413  Biso   1.000  N
  N7       1.0000 0.90560  0.60220  0.54798  Biso   1.000  N
  N8       1.0000 0.60750  0.66295  0.81972  Biso   1.000  N
  N9       1.0000 0.71080  0.68269  0.88448  Biso   1.000  N
  N10      1.0000 0.92720  0.80710  0.92849  Biso   1.000  N
  N11      1.0000 0.33400  0.58438  0.77409  Biso   1.000  N
  N12      1.0000 0.43750  0.50088  0.75496  Biso   1.000  N
  N13      1.0000 0.34950  0.44189  0.78670  Biso   1.000  N
  N14      1.0000 0.08710  0.32300  0.78020  Biso   1.000  N
  N15      1.0000 0.43400  0.64984  0.72481  Biso   1.000  N
  N16      1.0000 0.33420  0.64916  0.65520  Biso   1.000  N
  N17      1.0000 0.04980  0.71630  0.63130  Biso   1.000  N
  N18      1.0000 0.44890  0.60177  0.85678  Biso   1.000  N
  N19      1.0000 0.35460  0.65773  0.88900  Biso   1.000  N
  N20      1.0000 0.11850  0.59820  0.94490  Biso   1.000  N
  N21      1.0000 0.05760  0.56360  0.46460  Biso   1.000  N
  C1       1.0000 0.74450  0.53370  0.78140  Biso   1.000  C
  H1       1.0000 0.81330  0.53230  0.79290  Biso   1.000  H
  H2       1.0000 0.73430  0.52220  0.74720  Biso   1.000  H
  C2       1.0000 0.69240  0.49910  0.81154  Biso   1.000  C
  C3       1.0000 0.58570  0.47130  0.85398  Biso   1.000  C
  C4       1.0000 0.50810  0.46530  0.87920  Biso   1.000  C
  H3       1.0000 0.46520  0.49290  0.88220  Biso   1.000  H
  C5       1.0000 0.49640  0.41700  0.89970  Biso   1.000  C
  H4       1.0000 0.44370  0.41120  0.91670  Biso   1.000  H
  C6       1.0000 0.56160  0.37670  0.89580  Biso   1.000  C
  H5       1.0000 0.55140  0.34410  0.91020  Biso   1.000  H
  C7       1.0000 0.63850  0.38290  0.87210  Biso   1.000  C
  H6       1.0000 0.68220  0.35550  0.86980  Biso   1.000  H
  C8       1.0000 0.65040  0.43160  0.85124  Biso   1.000  C
  C9       1.0000 0.79340  0.42020  0.80720  Biso   1.000  C
  H7       1.0000 0.81220  0.43740  0.77810  Biso   1.000  H
  H8       1.0000 0.76850  0.38550  0.79710  Biso   1.000  H
  C10      1.0000 0.88150  0.41330  0.84430  Biso   1.000  C
  C11      1.0000 0.90920  0.36570  0.86090  Biso   1.000  C
  H9       1.0000 0.87290  0.33590  0.85050  Biso   1.000  H
  C12      1.0000 0.99250  0.36100  0.89360  Biso   1.000  C
  H10      1.0000 0.01310  0.32790  0.90560  Biso   1.000  H
  C13      1.0000 0.04250  0.40310  0.90770  Biso   1.000  C
  H11      1.0000 0.10020  0.39910  0.92870  Biso   1.000  H
  C14      1.0000 0.93410  0.45360  0.86190  Biso   1.000  C
  H12      1.0000 0.91310  0.48720  0.85150  Biso   1.000  H
  C15      1.0000 0.73520  0.61810  0.74422  Biso   1.000  C
  H13      1.0000 0.80120  0.61060  0.73890  Biso   1.000  H
  H14      1.0000 0.73010  0.65550  0.75130  Biso   1.000  H
  C16      1.0000 0.66820  0.60390  0.70020  Biso   1.000  C
  C17      1.0000 0.54770  0.57190  0.65423  Biso   1.000  C
  C18      1.0000 0.46440  0.54750  0.63470  Biso   1.000  C
  H15      1.0000 0.42620  0.52940  0.65460  Biso   1.000  H
  C19      1.0000 0.43910  0.55060  0.58470  Biso   1.000  C
  H16      1.0000 0.38260  0.53430  0.57020  Biso   1.000  H
  C20      1.0000 0.49610  0.57750  0.55540  Biso   1.000  C
  H17      1.0000 0.47600  0.57960  0.52160  Biso   1.000  H
  C21      1.0000 0.57940  0.60070  0.57400  Biso   1.000  C
  H18      1.0000 0.61830  0.61820  0.55410  Biso   1.000  H
  C22      1.0000 0.60380  0.59700  0.62404  Biso   1.000  C
  C23      1.0000 0.75380  0.65140  0.63930  Biso   1.000  C
  H19      1.0000 0.78350  0.67100  0.66790  Biso   1.000  H
  H20      1.0000 0.72370  0.67660  0.61530  Biso   1.000  H
  C24      1.0000 0.82970  0.62190  0.61750  Biso   1.000  C
  C25      1.0000 0.89490  0.59080  0.64540  Biso   1.000  C
  H21      1.0000 0.89270  0.58690  0.67910  Biso   1.000  H
  C26      1.0000 0.96250  0.56600  0.62350  Biso   1.000  C
  H22      1.0000 0.00610  0.54340  0.64180  Biso   1.000  H
  C27      1.0000 0.96730  0.57360  0.57570  Biso   1.000  C
  H23      1.0000 0.01720  0.55760  0.56160  Biso   1.000  H
  C28      1.0000 0.83860  0.62640  0.56930  Biso   1.000  C
  H24      1.0000 0.79470  0.64790  0.54980  Biso   1.000  H
  C29      1.0000 0.75200  0.60980  0.83190  Biso   1.000  C
  H25      1.0000 0.75810  0.58300  0.85760  Biso   1.000  H
  H26      1.0000 0.81590  0.62330  0.82880  Biso   1.000  H
  C30      1.0000 0.69040  0.65220  0.84485  Biso   1.000  C
  C31      1.0000 0.57130  0.70420  0.84430  Biso   1.000  C
  C32      1.0000 0.48760  0.73210  0.83320  Biso   1.000  C
  H27      1.0000 0.44580  0.72590  0.80420  Biso   1.000  H
  C33      1.0000 0.46790  0.76940  0.86620  Biso   1.000  C
  H28      1.0000 0.41160  0.78940  0.85980  Biso   1.000  H
  C34      1.0000 0.52920  0.77800  0.90870  Biso   1.000  C
  H29      1.0000 0.51220  0.80290  0.93120  Biso   1.000  H
  C35      1.0000 0.61390  0.75170  0.91930  Biso   1.000  C
  H30      1.0000 0.65580  0.75810  0.94820  Biso   1.000  H
  C36      1.0000 0.63410  0.71590  0.88580  Biso   1.000  C
  C37      1.0000 0.79530  0.68030  0.92100  Biso   1.000  C
  H31      1.0000 0.82440  0.64560  0.92020  Biso   1.000  H
  H32      1.0000 0.77600  0.68520  0.95360  Biso   1.000  H
  C38      1.0000 0.86780  0.72090  0.91280  Biso   1.000  C
  C39      1.0000 0.93740  0.71150  0.88320  Biso   1.000  C
  H33      1.0000 0.94130  0.67890  0.86770  Biso   1.000  H
  C40      1.0000 0.00070  0.75080  0.87690  Biso   1.000  C
  H34      1.0000 0.04880  0.74550  0.85680  Biso   1.000  H
  C41      1.0000 0.99370  0.79720  0.89960  Biso   1.000  C
  H35      1.0000 0.03780  0.82370  0.89480  Biso   1.000  H
  C42      1.0000 0.86730  0.76870  0.93520  Biso   1.000  C
  H36      1.0000 0.82170  0.77450  0.95670  Biso   1.000  H
  C43      1.0000 0.30180  0.53440  0.79158  Biso   1.000  C
  H37      1.0000 0.23540  0.52800  0.77740  Biso   1.000  H
  H38      1.0000 0.30440  0.53540  0.82730  Biso   1.000  H
  C44      1.0000 0.36350  0.49210  0.77756  Biso   1.000  C
  C45      1.0000 0.47500  0.45200  0.74755  Biso   1.000  C
  C46      1.0000 0.55380  0.43720  0.72520  Biso   1.000  C
  H39      1.0000 0.59000  0.46190  0.71030  Biso   1.000  H
  C47      1.0000 0.57600  0.38550  0.72590  Biso   1.000  C
  H40      1.0000 0.62810  0.37420  0.71050  Biso   1.000  H
  C48      1.0000 0.52460  0.34900  0.74830  Biso   1.000  C
  H41      1.0000 0.54440  0.31390  0.74910  Biso   1.000  H
  C49      1.0000 0.44570  0.36220  0.76960  Biso   1.000  C
  H42      1.0000 0.40990  0.33710  0.78420  Biso   1.000  H
  C50      1.0000 0.42160  0.41470  0.76830  Biso   1.000  C
  C51      1.0000 0.28130  0.42000  0.81660  Biso   1.000  C
  H43      1.0000 0.25680  0.44810  0.83570  Biso   1.000  H
  H44      1.0000 0.31440  0.39480  0.83970  Biso   1.000  H
  C52      1.0000 0.19780  0.39300  0.78630  Biso   1.000  C
  C53      1.0000 0.15430  0.41230  0.74400  Biso   1.000  C
  H45      1.0000 0.17590  0.44340  0.73100  Biso   1.000  H
  C54      1.0000 0.07600  0.38530  0.71960  Biso   1.000  C
  H46      1.0000 0.04600  0.39680  0.68900  Biso   1.000  H
  C55      1.0000 0.04510  0.34280  0.74060  Biso   1.000  C
  H47      1.0000 0.98910  0.32660  0.72550  Biso   1.000  H
  C56      1.0000 0.16570  0.34740  0.80230  Biso   1.000  C
  H48      1.0000 0.19980  0.33190  0.83030  Biso   1.000  H
  C57      1.0000 0.29510  0.59180  0.72241  Biso   1.000  C
  H49      1.0000 0.29600  0.55860  0.70470  Biso   1.000  H
  H50      1.0000 0.22880  0.60410  0.71980  Biso   1.000  H
  C58      1.0000 0.35420  0.63060  0.70110  Biso   1.000  C
  C59      1.0000 0.46790  0.68350  0.69130  Biso   1.000  C
  C60      1.0000 0.55070  0.71360  0.69570  Biso   1.000  C
  H51      1.0000 0.59140  0.71600  0.72550  Biso   1.000  H
  C61      1.0000 0.57020  0.73950  0.65500  Biso   1.000  C
  H52      1.0000 0.62580  0.76010  0.65660  Biso   1.000  H
  C62      1.0000 0.50900  0.73600  0.61100  Biso   1.000  C
  H53      1.0000 0.52600  0.75350  0.58330  Biso   1.000  H
  C63      1.0000 0.42510  0.70810  0.60630  Biso   1.000  C
  H54      1.0000 0.38320  0.70680  0.57680  Biso   1.000  H
  C64      1.0000 0.40670  0.68240  0.64750  Biso   1.000  C
  C65      1.0000 0.26020  0.62980  0.61850  Biso   1.000  C
  H55      1.0000 0.23760  0.59610  0.62960  Biso   1.000  H
  H56      1.0000 0.28830  0.62330  0.58840  Biso   1.000  H
  C66      1.0000 0.17580  0.66500  0.60650  Biso   1.000  C
  C67      1.0000 0.14010  0.67310  0.55880  Biso   1.000  C
  H57      1.0000 0.17050  0.65820  0.53370  Biso   1.000  H
  C68      1.0000 0.06030  0.70290  0.54740  Biso   1.000  C
  H58      1.0000 0.03610  0.70980  0.51460  Biso   1.000  H
  C69      1.0000 0.01710  0.72230  0.58400  Biso   1.000  C
  H59      1.0000 0.96000  0.74120  0.57580  Biso   1.000  H
  C70      1.0000 0.12940  0.68690  0.64100  Biso   1.000  C
  H60      1.0000 0.15420  0.68140  0.67400  Biso   1.000  H
  C71      1.0000 0.30470  0.62710  0.80395  Biso   1.000  C
  H61      1.0000 0.23880  0.62150  0.81060  Biso   1.000  H
  H62      1.0000 0.30720  0.66040  0.78650  Biso   1.000  H
  C72      1.0000 0.36970  0.62870  0.85012  Biso   1.000  C
  C73      1.0000 0.49000  0.61430  0.90445  Biso   1.000  C
  C74      1.0000 0.57460  0.59720  0.93079  Biso   1.000  C
  H63      1.0000 0.61370  0.57250  0.91790  Biso   1.000  H
  C75      1.0000 0.59870  0.61810  0.97670  Biso   1.000  C
  H64      1.0000 0.65550  0.60730  0.99580  Biso   1.000  H
  C76      1.0000 0.54040  0.65490  0.99539  Biso   1.000  C
  H65      1.0000 0.56020  0.66930  0.02650  Biso   1.000  H
  C77      1.0000 0.45540  0.67070  0.97002  Biso   1.000  C
  H66      1.0000 0.41540  0.69490  0.98310  Biso   1.000  H
  C78      1.0000 0.43200  0.64940  0.92451  Biso   1.000  C
  C79      1.0000 0.27640  0.69320  0.89410  Biso   1.000  C
  H67      1.0000 0.24060  0.70030  0.86180  Biso   1.000  H
  H68      1.0000 0.30190  0.72640  0.90790  Biso   1.000  H
  C80      1.0000 0.21060  0.67010  0.92670  Biso   1.000  C
  C81      1.0000 0.18670  0.69610  0.96630  Biso   1.000  C
  H69      1.0000 0.21110  0.72980  0.97400  Biso   1.000  H
  C82      1.0000 0.12690  0.67280  0.99490  Biso   1.000  C
  H70      1.0000 0.10810  0.69050  0.02200  Biso   1.000  H
  C83      1.0000 0.09500  0.62390  0.98360  Biso   1.000  C
  H71      1.0000 0.05490  0.60750  0.00370  Biso   1.000  H
  C84      1.0000 0.17420  0.62220  0.91740  Biso   1.000  C
  H72      1.0000 0.18940  0.60470  0.88940  Biso   1.000  H
  C85      1.0000 0.12600  0.54140  0.46780  Biso   1.000  C
  C86      1.0000 0.21560  0.51330  0.47020  Biso   1.000  C
  H73      1.0000 0.21860  0.48690  0.49570  Biso   1.000  H
  H74      1.0000 0.26850  0.53750  0.47760  Biso   1.000  H
  H75      1.0000 0.21980  0.49650  0.43900  Biso   1.000  H
  Eu2      1.0000 0.47776  0.08486  0.71906  Biso   1.000  Eu
  Ag4      1.0000 0.92608  0.02020  0.57351  Biso   1.000  Ag
  Ag5      1.0000 0.08214  0.11498  0.03255  Biso   1.000  Ag
  Ag6      1.0000 0.98428  0.76053  0.68381  Biso   1.000  Ag
  N22      1.0000 0.29060  0.08689  0.71471  Biso   1.000  N
  N23      1.0000 0.38660  0.01418  0.67149  Biso   1.000  N
  N24      1.0000 0.28290  0.95031  0.67572  Biso   1.000  N
  N25      1.0000 0.98490  0.95040  0.60660  Biso   1.000  N
  N26      1.0000 0.41060  0.07692  0.79775  Biso   1.000  N
  N27      1.0000 0.31920  0.11705  0.84587  Biso   1.000  N
  N28      1.0000 0.09440  0.10220  0.95202  Biso   1.000  N
  N29      1.0000 0.39250  0.16295  0.68028  Biso   1.000  N
  N30      1.0000 0.28920  0.18269  0.61552  Biso   1.000  N
  N31      1.0000 0.07280  0.30710  0.57151  Biso   1.000  N
  N32      1.0000 0.66600  0.08438  0.72591  Biso   1.000  N
  N33      1.0000 0.56250  0.00088  0.74504  Biso   1.000  N
  N34      1.0000 0.65050  0.94189  0.71330  Biso   1.000  N
  N35      1.0000 0.91290  0.82300  0.71980  Biso   1.000  N
  N36      1.0000 0.56600  0.14984  0.77519  Biso   1.000  N
  N37      1.0000 0.66580  0.14916  0.84480  Biso   1.000  N
  N38      1.0000 0.95020  0.21630  0.86870  Biso   1.000  N
  N39      1.0000 0.55110  0.10177  0.64322  Biso   1.000  N
  N40      1.0000 0.64540  0.15773  0.61100  Biso   1.000  N
  N41      1.0000 0.88150  0.09820  0.55510  Biso   1.000  N
  N42      1.0000 0.94240  0.06360  0.03540  Biso   1.000  N
  C87      1.0000 0.25550  0.03370  0.71860  Biso   1.000  C
  H76      1.0000 0.18670  0.03230  0.70710  Biso   1.000  H
  H77      1.0000 0.26570  0.02220  0.75280  Biso   1.000  H
  C88      1.0000 0.30760  0.99910  0.68846  Biso   1.000  C
  C89      1.0000 0.41430  0.97130  0.64602  Biso   1.000  C
  C90      1.0000 0.49190  0.96530  0.62080  Biso   1.000  C
  H78      1.0000 0.53480  0.99290  0.61780  Biso   1.000  H
  C91      1.0000 0.50360  0.91700  0.60030  Biso   1.000  C
  H79      1.0000 0.55630  0.91120  0.58330  Biso   1.000  H
  C92      1.0000 0.43840  0.87670  0.60420  Biso   1.000  C
  H80      1.0000 0.44860  0.84410  0.58980  Biso   1.000  H
  C93      1.0000 0.36150  0.88290  0.62790  Biso   1.000  C
  H81      1.0000 0.31780  0.85550  0.63020  Biso   1.000  H
  C94      1.0000 0.34960  0.93160  0.64876  Biso   1.000  C
  C95      1.0000 0.20660  0.92020  0.69280  Biso   1.000  C
  H82      1.0000 0.18780  0.93740  0.72190  Biso   1.000  H
  H83      1.0000 0.23150  0.88550  0.70290  Biso   1.000  H
  C96      1.0000 0.11850  0.91330  0.65570  Biso   1.000  C
  C97      1.0000 0.09080  0.86570  0.63910  Biso   1.000  C
  H84      1.0000 0.12710  0.83590  0.64950  Biso   1.000  H
  C98      1.0000 0.00750  0.86100  0.60640  Biso   1.000  C
  H85      1.0000 0.98690  0.82790  0.59440  Biso   1.000  H
  C99      1.0000 0.95750  0.90310  0.59230  Biso   1.000  C
  H86      1.0000 0.89980  0.89910  0.57130  Biso   1.000  H
  C100     1.0000 0.06590  0.95360  0.63810  Biso   1.000  C
  H87      1.0000 0.08690  0.98720  0.64850  Biso   1.000  H
  C101     1.0000 0.26480  0.11810  0.75578  Biso   1.000  C
  H88      1.0000 0.19880  0.11060  0.76110  Biso   1.000  H
  H89      1.0000 0.26990  0.15550  0.74870  Biso   1.000  H
  C102     1.0000 0.33180  0.10390  0.79980  Biso   1.000  C
  C103     1.0000 0.45230  0.07190  0.84577  Biso   1.000  C
  C104     1.0000 0.53560  0.04750  0.86530  Biso   1.000  C
  H90      1.0000 0.57380  0.02940  0.84540  Biso   1.000  H
  C105     1.0000 0.56090  0.05060  0.91530  Biso   1.000  C
  H91      1.0000 0.61740  0.03430  0.92980  Biso   1.000  H
  C106     1.0000 0.50390  0.07750  0.94460  Biso   1.000  C
  H92      1.0000 0.52400  0.07960  0.97840  Biso   1.000  H
  C107     1.0000 0.42060  0.10070  0.92600  Biso   1.000  C
  H93      1.0000 0.38170  0.11820  0.94590  Biso   1.000  H
  C108     1.0000 0.39620  0.09700  0.87596  Biso   1.000  C
  C109     1.0000 0.24620  0.15140  0.86070  Biso   1.000  C
  H94      1.0000 0.21650  0.17100  0.83210  Biso   1.000  H
  H95      1.0000 0.27630  0.17660  0.88470  Biso   1.000  H
  C110     1.0000 0.17030  0.12190  0.88250  Biso   1.000  C
  C111     1.0000 0.10510  0.09080  0.85460  Biso   1.000  C
  H96      1.0000 0.10730  0.08690  0.82090  Biso   1.000  H
  C112     1.0000 0.03750  0.06600  0.87650  Biso   1.000  C
  H97      1.0000 0.99390  0.04340  0.85820  Biso   1.000  H
  C113     1.0000 0.03270  0.07360  0.92430  Biso   1.000  C
  H98      1.0000 0.98280  0.05760  0.93840  Biso   1.000  H
  C114     1.0000 0.16140  0.12640  0.93070  Biso   1.000  C
  H99      1.0000 0.20530  0.14790  0.95020  Biso   1.000  H
  C115     1.0000 0.24800  0.10980  0.66810  Biso   1.000  C
  H100     1.0000 0.24190  0.08300  0.64240  Biso   1.000  H
  H101     1.0000 0.18410  0.12330  0.67120  Biso   1.000  H
  C116     1.0000 0.30960  0.15220  0.65515  Biso   1.000  C
  C117     1.0000 0.42870  0.20420  0.65570  Biso   1.000  C
  C118     1.0000 0.51240  0.23210  0.66680  Biso   1.000  C
  H102     1.0000 0.55420  0.22590  0.69580  Biso   1.000  H
  C119     1.0000 0.53210  0.26940  0.63380  Biso   1.000  C
  H103     1.0000 0.58840  0.28940  0.64020  Biso   1.000  H
  C120     1.0000 0.47080  0.27800  0.59130  Biso   1.000  C
  H104     1.0000 0.48780  0.30290  0.56880  Biso   1.000  H
  C121     1.0000 0.38610  0.25170  0.58070  Biso   1.000  C
  H105     1.0000 0.34420  0.25810  0.55180  Biso   1.000  H
  C122     1.0000 0.36590  0.21590  0.61420  Biso   1.000  C
  C123     1.0000 0.20470  0.18030  0.57900  Biso   1.000  C
  H106     1.0000 0.17560  0.14560  0.57980  Biso   1.000  H
  H107     1.0000 0.22400  0.18520  0.54640  Biso   1.000  H
  C124     1.0000 0.13220  0.22090  0.58720  Biso   1.000  C
  C125     1.0000 0.06260  0.21150  0.61680  Biso   1.000  C
  H108     1.0000 0.05870  0.17890  0.63230  Biso   1.000  H
  C126     1.0000 0.99930  0.25080  0.62310  Biso   1.000  C
  H109     1.0000 0.95120  0.24550  0.64320  Biso   1.000  H
  C127     1.0000 0.00630  0.29720  0.60040  Biso   1.000  C
  H110     1.0000 0.96220  0.32370  0.60520  Biso   1.000  H
  C128     1.0000 0.13270  0.26870  0.56480  Biso   1.000  C
  H111     1.0000 0.17830  0.27450  0.54330  Biso   1.000  H
  C129     1.0000 0.69820  0.03440  0.70842  Biso   1.000  C
  H112     1.0000 0.76460  0.02800  0.72260  Biso   1.000  H
  H113     1.0000 0.69560  0.03540  0.67270  Biso   1.000  H
  C130     1.0000 0.63650  0.99210  0.72244  Biso   1.000  C
  C131     1.0000 0.52500  0.95200  0.75245  Biso   1.000  C
  C132     1.0000 0.44620  0.93720  0.77480  Biso   1.000  C
  H114     1.0000 0.41000  0.96190  0.78970  Biso   1.000  H
  C133     1.0000 0.42400  0.88550  0.77410  Biso   1.000  C
  H115     1.0000 0.37190  0.87420  0.78950  Biso   1.000  H
  C134     1.0000 0.47540  0.84900  0.75170  Biso   1.000  C
  H116     1.0000 0.45560  0.81390  0.75090  Biso   1.000  H
  C135     1.0000 0.55430  0.86220  0.73040  Biso   1.000  C
  H117     1.0000 0.59010  0.83710  0.71580  Biso   1.000  H
  C136     1.0000 0.57840  0.91470  0.73170  Biso   1.000  C
  C137     1.0000 0.71870  0.92000  0.68340  Biso   1.000  C
  H118     1.0000 0.74320  0.94810  0.66430  Biso   1.000  H
  H119     1.0000 0.68560  0.89480  0.66030  Biso   1.000  H
  C138     1.0000 0.80220  0.89300  0.71370  Biso   1.000  C
  C139     1.0000 0.84570  0.91230  0.75600  Biso   1.000  C
  H120     1.0000 0.82410  0.94340  0.76900  Biso   1.000  H
  C140     1.0000 0.92400  0.88530  0.78040  Biso   1.000  C
  H121     1.0000 0.95400  0.89680  0.81100  Biso   1.000  H
  C141     1.0000 0.95490  0.84280  0.75940  Biso   1.000  C
  H122     1.0000 0.01090  0.82660  0.77450  Biso   1.000  H
  C142     1.0000 0.83430  0.84740  0.69770  Biso   1.000  C
  H123     1.0000 0.80020  0.83190  0.66970  Biso   1.000  H
  C143     1.0000 0.70490  0.09180  0.77759  Biso   1.000  C
  H124     1.0000 0.70400  0.05860  0.79530  Biso   1.000  H
  H125     1.0000 0.77120  0.10410  0.78020  Biso   1.000  H
  C144     1.0000 0.64580  0.13060  0.79890  Biso   1.000  C
  C145     1.0000 0.53210  0.18350  0.80870  Biso   1.000  C
  C146     1.0000 0.44930  0.21360  0.80430  Biso   1.000  C
  H126     1.0000 0.40860  0.21600  0.77450  Biso   1.000  H
  C147     1.0000 0.42980  0.23950  0.84500  Biso   1.000  C
  H127     1.0000 0.37420  0.26010  0.84340  Biso   1.000  H
  C148     1.0000 0.49100  0.23600  0.88900  Biso   1.000  C
  H128     1.0000 0.47400  0.25350  0.91670  Biso   1.000  H
  C149     1.0000 0.57490  0.20810  0.89370  Biso   1.000  C
  H129     1.0000 0.61680  0.20680  0.92320  Biso   1.000  H
  C150     1.0000 0.59330  0.18240  0.85250  Biso   1.000  C
  C151     1.0000 0.73980  0.12980  0.88150  Biso   1.000  C
  H130     1.0000 0.76240  0.09610  0.87040  Biso   1.000  H
  H131     1.0000 0.71170  0.12330  0.91160  Biso   1.000  H
  C152     1.0000 0.82420  0.16500  0.89350  Biso   1.000  C
  C153     1.0000 0.85990  0.17310  0.94120  Biso   1.000  C
  H132     1.0000 0.82950  0.15820  0.96630  Biso   1.000  H
  C154     1.0000 0.93970  0.20290  0.95260  Biso   1.000  C
  H133     1.0000 0.96390  0.20980  0.98540  Biso   1.000  H
  C155     1.0000 0.98290  0.22230  0.91600  Biso   1.000  C
  H134     1.0000 0.04000  0.24120  0.92420  Biso   1.000  H
  C156     1.0000 0.87060  0.18690  0.85900  Biso   1.000  C
  H135     1.0000 0.84580  0.18140  0.82600  Biso   1.000  H
  C157     1.0000 0.69530  0.12710  0.69605  Biso   1.000  C
  H136     1.0000 0.76120  0.12150  0.68940  Biso   1.000  H
  H137     1.0000 0.69280  0.16040  0.71350  Biso   1.000  H
  C158     1.0000 0.63030  0.12870  0.64988  Biso   1.000  C
  C159     1.0000 0.51000  0.11430  0.59555  Biso   1.000  C
  C160     1.0000 0.42540  0.09720  0.56921  Biso   1.000  C
  H138     1.0000 0.38630  0.07250  0.58210  Biso   1.000  H
  C161     1.0000 0.40130  0.11810  0.52330  Biso   1.000  C
  H139     1.0000 0.34450  0.10730  0.50420  Biso   1.000  H
  C162     1.0000 0.45960  0.15490  0.50461  Biso   1.000  C
  H140     1.0000 0.43980  0.16930  0.47350  Biso   1.000  H
  C163     1.0000 0.54460  0.17070  0.52998  Biso   1.000  C
  H141     1.0000 0.58460  0.19490  0.51690  Biso   1.000  H
  C164     1.0000 0.56800  0.14940  0.57549  Biso   1.000  C
  C165     1.0000 0.72360  0.19320  0.60590  Biso   1.000  C
  H142     1.0000 0.75940  0.20030  0.63820  Biso   1.000  H
  H143     1.0000 0.69810  0.22640  0.59210  Biso   1.000  H
  C166     1.0000 0.78940  0.17010  0.57330  Biso   1.000  C
  C167     1.0000 0.81330  0.19610  0.53370  Biso   1.000  C
  H144     1.0000 0.78890  0.22980  0.52600  Biso   1.000  H
  C168     1.0000 0.87310  0.17280  0.50510  Biso   1.000  C
  H145     1.0000 0.89190  0.19050  0.47800  Biso   1.000  H
  C169     1.0000 0.90500  0.12390  0.51640  Biso   1.000  C
  H146     1.0000 0.94510  0.10750  0.49630  Biso   1.000  H
  C170     1.0000 0.82580  0.12220  0.58260  Biso   1.000  C
  H147     1.0000 0.81060  0.10470  0.61060  Biso   1.000  H
  C171     1.0000 0.87400  0.04140  0.03220  Biso   1.000  C
  C172     1.0000 0.78440  0.01330  0.02980  Biso   1.000  C
  H148     1.0000 0.78140  0.98690  0.00430  Biso   1.000  H
  H149     1.0000 0.73150  0.03750  0.02240  Biso   1.000  H
  H150     1.0000 0.78020  0.99650  0.06100  Biso   1.000  H
  Eu3      1.0000 0.47776  0.41514  0.21906  Biso   1.000  Eu
  Ag7      1.0000 0.92608  0.47980  0.07351  Biso   1.000  Ag
  Ag8      1.0000 0.08214  0.38502  0.53255  Biso   1.000  Ag
  Ag9      1.0000 0.98428  0.73947  0.18381  Biso   1.000  Ag
  N43      1.0000 0.29060  0.41311  0.21471  Biso   1.000  N
  N44      1.0000 0.38660  0.48582  0.17149  Biso   1.000  N
  N45      1.0000 0.28290  0.54969  0.17572  Biso   1.000  N
  N46      1.0000 0.98490  0.54960  0.10660  Biso   1.000  N
  N47      1.0000 0.41060  0.42308  0.29775  Biso   1.000  N
  N48      1.0000 0.31920  0.38295  0.34587  Biso   1.000  N
  N49      1.0000 0.09440  0.39780  0.45202  Biso   1.000  N
  N50      1.0000 0.39250  0.33705  0.18028  Biso   1.000  N
  N51      1.0000 0.28920  0.31731  0.11552  Biso   1.000  N
  N52      1.0000 0.07280  0.19290  0.07151  Biso   1.000  N
  N53      1.0000 0.66600  0.41562  0.22591  Biso   1.000  N
  N54      1.0000 0.56250  0.49912  0.24504  Biso   1.000  N
  N55      1.0000 0.65050  0.55811  0.21330  Biso   1.000  N
  N56      1.0000 0.91290  0.67700  0.21980  Biso   1.000  N
  N57      1.0000 0.56600  0.35016  0.27519  Biso   1.000  N
  N58      1.0000 0.66580  0.35084  0.34480  Biso   1.000  N
  N59      1.0000 0.95020  0.28370  0.36870  Biso   1.000  N
  N60      1.0000 0.55110  0.39823  0.14322  Biso   1.000  N
  N61      1.0000 0.64540  0.34227  0.11100  Biso   1.000  N
  N62      1.0000 0.88150  0.40180  0.05510  Biso   1.000  N
  N63      1.0000 0.94240  0.43640  0.53540  Biso   1.000  N
  C173     1.0000 0.25550  0.46630  0.21860  Biso   1.000  C
  H151     1.0000 0.18670  0.46770  0.20710  Biso   1.000  H
  H152     1.0000 0.26570  0.47780  0.25280  Biso   1.000  H
  C174     1.0000 0.30760  0.50090  0.18846  Biso   1.000  C
  C175     1.0000 0.41430  0.52870  0.14602  Biso   1.000  C
  C176     1.0000 0.49190  0.53470  0.12080  Biso   1.000  C
  H153     1.0000 0.53480  0.50710  0.11780  Biso   1.000  H
  C177     1.0000 0.50360  0.58300  0.10030  Biso   1.000  C
  H154     1.0000 0.55630  0.58880  0.08330  Biso   1.000  H
  C178     1.0000 0.43840  0.62330  0.10420  Biso   1.000  C
  H155     1.0000 0.44860  0.65590  0.08980  Biso   1.000  H
  C179     1.0000 0.36150  0.61710  0.12790  Biso   1.000  C
  H156     1.0000 0.31780  0.64450  0.13020  Biso   1.000  H
  C180     1.0000 0.34960  0.56840  0.14876  Biso   1.000  C
  C181     1.0000 0.20660  0.57980  0.19280  Biso   1.000  C
  H157     1.0000 0.18780  0.56260  0.22190  Biso   1.000  H
  H158     1.0000 0.23150  0.61450  0.20290  Biso   1.000  H
  C182     1.0000 0.11850  0.58670  0.15570  Biso   1.000  C
  C183     1.0000 0.09080  0.63430  0.13910  Biso   1.000  C
  H159     1.0000 0.12710  0.66410  0.14950  Biso   1.000  H
  C184     1.0000 0.00750  0.63900  0.10640  Biso   1.000  C
  H160     1.0000 0.98690  0.67210  0.09440  Biso   1.000  H
  C185     1.0000 0.95750  0.59690  0.09230  Biso   1.000  C
  H161     1.0000 0.89980  0.60090  0.07130  Biso   1.000  H
  C186     1.0000 0.06590  0.54640  0.13810  Biso   1.000  C
  H162     1.0000 0.08690  0.51280  0.14850  Biso   1.000  H
  C187     1.0000 0.26480  0.38190  0.25578  Biso   1.000  C
  H163     1.0000 0.19880  0.38940  0.26110  Biso   1.000  H
  H164     1.0000 0.26990  0.34450  0.24870  Biso   1.000  H
  C188     1.0000 0.33180  0.39610  0.29980  Biso   1.000  C
  C189     1.0000 0.45230  0.42810  0.34577  Biso   1.000  C
  C190     1.0000 0.53560  0.45250  0.36530  Biso   1.000  C
  H165     1.0000 0.57380  0.47060  0.34540  Biso   1.000  H
  C191     1.0000 0.56090  0.44940  0.41530  Biso   1.000  C
  H166     1.0000 0.61740  0.46570  0.42980  Biso   1.000  H
  C192     1.0000 0.50390  0.42250  0.44460  Biso   1.000  C
  H167     1.0000 0.52400  0.42040  0.47840  Biso   1.000  H
  C193     1.0000 0.42060  0.39930  0.42600  Biso   1.000  C
  H168     1.0000 0.38170  0.38180  0.44590  Biso   1.000  H
  C194     1.0000 0.39620  0.40300  0.37596  Biso   1.000  C
  C195     1.0000 0.24620  0.34860  0.36070  Biso   1.000  C
  H169     1.0000 0.21650  0.32900  0.33210  Biso   1.000  H
  H170     1.0000 0.27630  0.32340  0.38470  Biso   1.000  H
  C196     1.0000 0.17030  0.37810  0.38250  Biso   1.000  C
  C197     1.0000 0.10510  0.40920  0.35460  Biso   1.000  C
  H171     1.0000 0.10730  0.41310  0.32090  Biso   1.000  H
  C198     1.0000 0.03750  0.43400  0.37650  Biso   1.000  C
  H172     1.0000 0.99390  0.45660  0.35820  Biso   1.000  H
  C199     1.0000 0.03270  0.42640  0.42430  Biso   1.000  C
  H173     1.0000 0.98280  0.44240  0.43840  Biso   1.000  H
  C200     1.0000 0.16140  0.37360  0.43070  Biso   1.000  C
  H174     1.0000 0.20530  0.35210  0.45020  Biso   1.000  H
  C201     1.0000 0.24800  0.39020  0.16810  Biso   1.000  C
  H175     1.0000 0.24190  0.41700  0.14240  Biso   1.000  H
  H176     1.0000 0.18410  0.37670  0.17120  Biso   1.000  H
  C202     1.0000 0.30960  0.34780  0.15515  Biso   1.000  C
  C203     1.0000 0.42870  0.29580  0.15570  Biso   1.000  C
  C204     1.0000 0.51240  0.26790  0.16680  Biso   1.000  C
  H177     1.0000 0.55420  0.27410  0.19580  Biso   1.000  H
  C205     1.0000 0.53210  0.23060  0.13380  Biso   1.000  C
  H178     1.0000 0.58840  0.21060  0.14020  Biso   1.000  H
  C206     1.0000 0.47080  0.22200  0.09130  Biso   1.000  C
  H179     1.0000 0.48780  0.19710  0.06880  Biso   1.000  H
  C207     1.0000 0.38610  0.24830  0.08070  Biso   1.000  C
  H180     1.0000 0.34420  0.24190  0.05180  Biso   1.000  H
  C208     1.0000 0.36590  0.28410  0.11420  Biso   1.000  C
  C209     1.0000 0.20470  0.31970  0.07900  Biso   1.000  C
  H181     1.0000 0.17560  0.35440  0.07980  Biso   1.000  H
  H182     1.0000 0.22400  0.31480  0.04640  Biso   1.000  H
  C210     1.0000 0.13220  0.27910  0.08720  Biso   1.000  C
  C211     1.0000 0.06260  0.28850  0.11680  Biso   1.000  C
  H183     1.0000 0.05870  0.32110  0.13230  Biso   1.000  H
  C212     1.0000 0.99930  0.24920  0.12310  Biso   1.000  C
  H184     1.0000 0.95120  0.25450  0.14320  Biso   1.000  H
  C213     1.0000 0.00630  0.20280  0.10040  Biso   1.000  C
  H185     1.0000 0.96220  0.17630  0.10520  Biso   1.000  H
  C214     1.0000 0.13270  0.23130  0.06480  Biso   1.000  C
  H186     1.0000 0.17830  0.22550  0.04330  Biso   1.000  H
  C215     1.0000 0.69820  0.46560  0.20842  Biso   1.000  C
  H187     1.0000 0.76460  0.47200  0.22260  Biso   1.000  H
  H188     1.0000 0.69560  0.46460  0.17270  Biso   1.000  H
  C216     1.0000 0.63650  0.50790  0.22244  Biso   1.000  C
  C217     1.0000 0.52500  0.54800  0.25245  Biso   1.000  C
  C218     1.0000 0.44620  0.56280  0.27480  Biso   1.000  C
  H189     1.0000 0.41000  0.53810  0.28970  Biso   1.000  H
  C219     1.0000 0.42400  0.61450  0.27410  Biso   1.000  C
  H190     1.0000 0.37190  0.62580  0.28950  Biso   1.000  H
  C220     1.0000 0.47540  0.65100  0.25170  Biso   1.000  C
  H191     1.0000 0.45560  0.68610  0.25090  Biso   1.000  H
  C221     1.0000 0.55430  0.63780  0.23040  Biso   1.000  C
  H192     1.0000 0.59010  0.66290  0.21580  Biso   1.000  H
  C222     1.0000 0.57840  0.58530  0.23170  Biso   1.000  C
  C223     1.0000 0.71870  0.58000  0.18340  Biso   1.000  C
  H193     1.0000 0.74320  0.55190  0.16430  Biso   1.000  H
  H194     1.0000 0.68560  0.60520  0.16030  Biso   1.000  H
  C224     1.0000 0.80220  0.60700  0.21370  Biso   1.000  C
  C225     1.0000 0.84570  0.58770  0.25600  Biso   1.000  C
  H195     1.0000 0.82410  0.55660  0.26900  Biso   1.000  H
  C226     1.0000 0.92400  0.61470  0.28040  Biso   1.000  C
  H196     1.0000 0.95400  0.60320  0.31100  Biso   1.000  H
  C227     1.0000 0.95490  0.65720  0.25940  Biso   1.000  C
  H197     1.0000 0.01090  0.67340  0.27450  Biso   1.000  H
  C228     1.0000 0.83430  0.65260  0.19770  Biso   1.000  C
  H198     1.0000 0.80020  0.66810  0.16970  Biso   1.000  H
  C229     1.0000 0.70490  0.40820  0.27759  Biso   1.000  C
  H199     1.0000 0.70400  0.44140  0.29530  Biso   1.000  H
  H200     1.0000 0.77120  0.39590  0.28020  Biso   1.000  H
  C230     1.0000 0.64580  0.36940  0.29890  Biso   1.000  C
  C231     1.0000 0.53210  0.31650  0.30870  Biso   1.000  C
  C232     1.0000 0.44930  0.28640  0.30430  Biso   1.000  C
  H201     1.0000 0.40860  0.28400  0.27450  Biso   1.000  H
  C233     1.0000 0.42980  0.26050  0.34500  Biso   1.000  C
  H202     1.0000 0.37420  0.23990  0.34340  Biso   1.000  H
  C234     1.0000 0.49100  0.26400  0.38900  Biso   1.000  C
  H203     1.0000 0.47400  0.24650  0.41670  Biso   1.000  H
  C235     1.0000 0.57490  0.29190  0.39370  Biso   1.000  C
  H204     1.0000 0.61680  0.29320  0.42320  Biso   1.000  H
  C236     1.0000 0.59330  0.31760  0.35250  Biso   1.000  C
  C237     1.0000 0.73980  0.37020  0.38150  Biso   1.000  C
  H205     1.0000 0.76240  0.40390  0.37040  Biso   1.000  H
  H206     1.0000 0.71170  0.37670  0.41160  Biso   1.000  H
  C238     1.0000 0.82420  0.33500  0.39350  Biso   1.000  C
  C239     1.0000 0.85990  0.32690  0.44120  Biso   1.000  C
  H207     1.0000 0.82950  0.34180  0.46630  Biso   1.000  H
  C240     1.0000 0.93970  0.29710  0.45260  Biso   1.000  C
  H208     1.0000 0.96390  0.29020  0.48540  Biso   1.000  H
  C241     1.0000 0.98290  0.27770  0.41600  Biso   1.000  C
  H209     1.0000 0.04000  0.25880  0.42420  Biso   1.000  H
  C242     1.0000 0.87060  0.31310  0.35900  Biso   1.000  C
  H210     1.0000 0.84580  0.31860  0.32600  Biso   1.000  H
  C243     1.0000 0.69530  0.37290  0.19605  Biso   1.000  C
  H211     1.0000 0.76120  0.37850  0.18940  Biso   1.000  H
  H212     1.0000 0.69280  0.33960  0.21350  Biso   1.000  H
  C244     1.0000 0.63030  0.37130  0.14988  Biso   1.000  C
  C245     1.0000 0.51000  0.38570  0.09555  Biso   1.000  C
  C246     1.0000 0.42540  0.40280  0.06921  Biso   1.000  C
  H213     1.0000 0.38630  0.42750  0.08210  Biso   1.000  H
  C247     1.0000 0.40130  0.38190  0.02330  Biso   1.000  C
  H214     1.0000 0.34450  0.39270  0.00420  Biso   1.000  H
  C248     1.0000 0.45960  0.34510  0.00461  Biso   1.000  C
  H215     1.0000 0.43980  0.33070  0.97350  Biso   1.000  H
  C249     1.0000 0.54460  0.32930  0.02998  Biso   1.000  C
  H216     1.0000 0.58460  0.30510  0.01690  Biso   1.000  H
  C250     1.0000 0.56800  0.35060  0.07549  Biso   1.000  C
  C251     1.0000 0.72360  0.30680  0.10590  Biso   1.000  C
  H217     1.0000 0.75940  0.29970  0.13820  Biso   1.000  H
  H218     1.0000 0.69810  0.27360  0.09210  Biso   1.000  H
  C252     1.0000 0.78940  0.32990  0.07330  Biso   1.000  C
  C253     1.0000 0.81330  0.30390  0.03370  Biso   1.000  C
  H219     1.0000 0.78890  0.27020  0.02600  Biso   1.000  H
  C254     1.0000 0.87310  0.32720  0.00510  Biso   1.000  C
  H220     1.0000 0.89190  0.30950  0.97800  Biso   1.000  H
  C255     1.0000 0.90500  0.37610  0.01640  Biso   1.000  C
  H221     1.0000 0.94510  0.39250  0.99630  Biso   1.000  H
  C256     1.0000 0.82580  0.37780  0.08260  Biso   1.000  C
  H222     1.0000 0.81060  0.39530  0.11060  Biso   1.000  H
  C257     1.0000 0.87400  0.45860  0.53220  Biso   1.000  C
  C258     1.0000 0.78440  0.48670  0.52980  Biso   1.000  C
  H223     1.0000 0.78140  0.51310  0.50430  Biso   1.000  H
  H224     1.0000 0.73150  0.46250  0.52240  Biso   1.000  H
  H225     1.0000 0.78020  0.50350  0.56100  Biso   1.000  H
  Eu4      1.0000 0.52224  0.91514  0.28094  Biso   1.000  Eu
  Ag10     1.0000 0.07392  0.97980  0.42649  Biso   1.000  Ag
  Ag11     1.0000 0.91786  0.88502  0.96745  Biso   1.000  Ag
  Ag12     1.0000 0.01572  0.23947  0.31619  Biso   1.000  Ag
  N64      1.0000 0.70940  0.91311  0.28529  Biso   1.000  N
  N65      1.0000 0.61340  0.98582  0.32851  Biso   1.000  N
  N66      1.0000 0.71710  0.04969  0.32428  Biso   1.000  N
  N67      1.0000 0.01510  0.04960  0.39340  Biso   1.000  N
  N68      1.0000 0.58940  0.92308  0.20225  Biso   1.000  N
  N69      1.0000 0.68080  0.88295  0.15413  Biso   1.000  N
  N70      1.0000 0.90560  0.89780  0.04798  Biso   1.000  N
  N71      1.0000 0.60750  0.83705  0.31972  Biso   1.000  N
  N72      1.0000 0.71080  0.81731  0.38448  Biso   1.000  N
  N73      1.0000 0.92720  0.69290  0.42849  Biso   1.000  N
  N74      1.0000 0.33400  0.91562  0.27409  Biso   1.000  N
  N75      1.0000 0.43750  0.99912  0.25496  Biso   1.000  N
  N76      1.0000 0.34950  0.05811  0.28670  Biso   1.000  N
  N77      1.0000 0.08710  0.17700  0.28020  Biso   1.000  N
  N78      1.0000 0.43400  0.85016  0.22481  Biso   1.000  N
  N79      1.0000 0.33420  0.85084  0.15520  Biso   1.000  N
  N80      1.0000 0.04980  0.78370  0.13130  Biso   1.000  N
  N81      1.0000 0.44890  0.89823  0.35678  Biso   1.000  N
  N82      1.0000 0.35460  0.84227  0.38900  Biso   1.000  N
  N83      1.0000 0.11850  0.90180  0.44490  Biso   1.000  N
  N84      1.0000 0.05760  0.93640  0.96460  Biso   1.000  N
  C259     1.0000 0.74450  0.96630  0.28140  Biso   1.000  C
  H226     1.0000 0.81330  0.96770  0.29290  Biso   1.000  H
  H227     1.0000 0.73430  0.97780  0.24720  Biso   1.000  H
  C260     1.0000 0.69240  0.00090  0.31154  Biso   1.000  C
  C261     1.0000 0.58570  0.02870  0.35398  Biso   1.000  C
  C262     1.0000 0.50810  0.03470  0.37920  Biso   1.000  C
  H228     1.0000 0.46520  0.00710  0.38220  Biso   1.000  H
  C263     1.0000 0.49640  0.08300  0.39970  Biso   1.000  C
  H229     1.0000 0.44370  0.08880  0.41670  Biso   1.000  H
  C264     1.0000 0.56160  0.12330  0.39580  Biso   1.000  C
  H230     1.0000 0.55140  0.15590  0.41020  Biso   1.000  H
  C265     1.0000 0.63850  0.11710  0.37210  Biso   1.000  C
  H231     1.0000 0.68220  0.14450  0.36980  Biso   1.000  H
  C266     1.0000 0.65040  0.06840  0.35124  Biso   1.000  C
  C267     1.0000 0.79340  0.07980  0.30720  Biso   1.000  C
  H232     1.0000 0.81220  0.06260  0.27810  Biso   1.000  H
  H233     1.0000 0.76850  0.11450  0.29710  Biso   1.000  H
  C268     1.0000 0.88150  0.08670  0.34430  Biso   1.000  C
  C269     1.0000 0.90920  0.13430  0.36090  Biso   1.000  C
  H234     1.0000 0.87290  0.16410  0.35050  Biso   1.000  H
  C270     1.0000 0.99250  0.13900  0.39360  Biso   1.000  C
  H235     1.0000 0.01310  0.17210  0.40560  Biso   1.000  H
  C271     1.0000 0.04250  0.09690  0.40770  Biso   1.000  C
  H236     1.0000 0.10020  0.10090  0.42870  Biso   1.000  H
  C272     1.0000 0.93410  0.04640  0.36190  Biso   1.000  C
  H237     1.0000 0.91310  0.01280  0.35150  Biso   1.000  H
  C273     1.0000 0.73520  0.88190  0.24422  Biso   1.000  C
  H238     1.0000 0.80120  0.88940  0.23890  Biso   1.000  H
  H239     1.0000 0.73010  0.84450  0.25130  Biso   1.000  H
  C274     1.0000 0.66820  0.89610  0.20020  Biso   1.000  C
  C275     1.0000 0.54770  0.92810  0.15423  Biso   1.000  C
  C276     1.0000 0.46440  0.95250  0.13470  Biso   1.000  C
  H240     1.0000 0.42620  0.97060  0.15460  Biso   1.000  H
  C277     1.0000 0.43910  0.94940  0.08470  Biso   1.000  C
  H241     1.0000 0.38260  0.96570  0.07020  Biso   1.000  H
  C278     1.0000 0.49610  0.92250  0.05540  Biso   1.000  C
  H242     1.0000 0.47600  0.92040  0.02160  Biso   1.000  H
  C279     1.0000 0.57940  0.89930  0.07400  Biso   1.000  C
  H243     1.0000 0.61830  0.88180  0.05410  Biso   1.000  H
  C280     1.0000 0.60380  0.90300  0.12404  Biso   1.000  C
  C281     1.0000 0.75380  0.84860  0.13930  Biso   1.000  C
  H244     1.0000 0.78350  0.82900  0.16790  Biso   1.000  H
  H245     1.0000 0.72370  0.82340  0.11530  Biso   1.000  H
  C282     1.0000 0.82970  0.87810  0.11750  Biso   1.000  C
  C283     1.0000 0.89490  0.90920  0.14540  Biso   1.000  C
  H246     1.0000 0.89270  0.91310  0.17910  Biso   1.000  H
  C284     1.0000 0.96250  0.93400  0.12350  Biso   1.000  C
  H247     1.0000 0.00610  0.95660  0.14180  Biso   1.000  H
  C285     1.0000 0.96730  0.92640  0.07570  Biso   1.000  C
  H248     1.0000 0.01720  0.94240  0.06160  Biso   1.000  H
  C286     1.0000 0.83860  0.87360  0.06930  Biso   1.000  C
  H249     1.0000 0.79470  0.85210  0.04980  Biso   1.000  H
  C287     1.0000 0.75200  0.89020  0.33190  Biso   1.000  C
  H250     1.0000 0.75810  0.91700  0.35760  Biso   1.000  H
  H251     1.0000 0.81590  0.87670  0.32880  Biso   1.000  H
  C288     1.0000 0.69040  0.84780  0.34485  Biso   1.000  C
  C289     1.0000 0.57130  0.79580  0.34430  Biso   1.000  C
  C290     1.0000 0.48760  0.76790  0.33320  Biso   1.000  C
  H252     1.0000 0.44580  0.77410  0.30420  Biso   1.000  H
  C291     1.0000 0.46790  0.73060  0.36620  Biso   1.000  C
  H253     1.0000 0.41160  0.71060  0.35980  Biso   1.000  H
  C292     1.0000 0.52920  0.72200  0.40870  Biso   1.000  C
  H254     1.0000 0.51220  0.69710  0.43120  Biso   1.000  H
  C293     1.0000 0.61390  0.74830  0.41930  Biso   1.000  C
  H255     1.0000 0.65580  0.74190  0.44820  Biso   1.000  H
  C294     1.0000 0.63410  0.78410  0.38580  Biso   1.000  C
  C295     1.0000 0.79530  0.81970  0.42100  Biso   1.000  C
  H256     1.0000 0.82440  0.85440  0.42020  Biso   1.000  H
  H257     1.0000 0.77600  0.81480  0.45360  Biso   1.000  H
  C296     1.0000 0.86780  0.77910  0.41280  Biso   1.000  C
  C297     1.0000 0.93740  0.78850  0.38320  Biso   1.000  C
  H258     1.0000 0.94130  0.82110  0.36770  Biso   1.000  H
  C298     1.0000 0.00070  0.74920  0.37690  Biso   1.000  C
  H259     1.0000 0.04880  0.75450  0.35680  Biso   1.000  H
  C299     1.0000 0.99370  0.70280  0.39960  Biso   1.000  C
  H260     1.0000 0.03780  0.67630  0.39480  Biso   1.000  H
  C300     1.0000 0.86730  0.73130  0.43520  Biso   1.000  C
  H261     1.0000 0.82170  0.72550  0.45670  Biso   1.000  H
  C301     1.0000 0.30180  0.96560  0.29158  Biso   1.000  C
  H262     1.0000 0.23540  0.97200  0.27740  Biso   1.000  H
  H263     1.0000 0.30440  0.96460  0.32730  Biso   1.000  H
  C302     1.0000 0.36350  0.00790  0.27756  Biso   1.000  C
  C303     1.0000 0.47500  0.04800  0.24755  Biso   1.000  C
  C304     1.0000 0.55380  0.06280  0.22520  Biso   1.000  C
  H264     1.0000 0.59000  0.03810  0.21030  Biso   1.000  H
  C305     1.0000 0.57600  0.11450  0.22590  Biso   1.000  C
  H265     1.0000 0.62810  0.12580  0.21050  Biso   1.000  H
  C306     1.0000 0.52460  0.15100  0.24830  Biso   1.000  C
  H266     1.0000 0.54440  0.18610  0.24910  Biso   1.000  H
  C307     1.0000 0.44570  0.13780  0.26960  Biso   1.000  C
  H267     1.0000 0.40990  0.16290  0.28420  Biso   1.000  H
  C308     1.0000 0.42160  0.08530  0.26830  Biso   1.000  C
  C309     1.0000 0.28130  0.08000  0.31660  Biso   1.000  C
  H268     1.0000 0.25680  0.05190  0.33570  Biso   1.000  H
  H269     1.0000 0.31440  0.10520  0.33970  Biso   1.000  H
  C310     1.0000 0.19780  0.10700  0.28630  Biso   1.000  C
  C311     1.0000 0.15430  0.08770  0.24400  Biso   1.000  C
  H270     1.0000 0.17590  0.05660  0.23100  Biso   1.000  H
  C312     1.0000 0.07600  0.11470  0.21960  Biso   1.000  C
  H271     1.0000 0.04600  0.10320  0.18900  Biso   1.000  H
  C313     1.0000 0.04510  0.15720  0.24060  Biso   1.000  C
  H272     1.0000 0.98910  0.17340  0.22550  Biso   1.000  H
  C314     1.0000 0.16570  0.15260  0.30230  Biso   1.000  C
  H273     1.0000 0.19980  0.16810  0.33030  Biso   1.000  H
  C315     1.0000 0.29510  0.90820  0.22241  Biso   1.000  C
  H274     1.0000 0.29600  0.94140  0.20470  Biso   1.000  H
  H275     1.0000 0.22880  0.89590  0.21980  Biso   1.000  H
  C316     1.0000 0.35420  0.86940  0.20110  Biso   1.000  C
  C317     1.0000 0.46790  0.81650  0.19130  Biso   1.000  C
  C318     1.0000 0.55070  0.78640  0.19570  Biso   1.000  C
  H276     1.0000 0.59140  0.78400  0.22550  Biso   1.000  H
  C319     1.0000 0.57020  0.76050  0.15500  Biso   1.000  C
  H277     1.0000 0.62580  0.73990  0.15660  Biso   1.000  H
  C320     1.0000 0.50900  0.76400  0.11100  Biso   1.000  C
  H278     1.0000 0.52600  0.74650  0.08330  Biso   1.000  H
  C321     1.0000 0.42510  0.79190  0.10630  Biso   1.000  C
  H279     1.0000 0.38320  0.79320  0.07680  Biso   1.000  H
  C322     1.0000 0.40670  0.81760  0.14750  Biso   1.000  C
  C323     1.0000 0.26020  0.87020  0.11850  Biso   1.000  C
  H280     1.0000 0.23760  0.90390  0.12960  Biso   1.000  H
  H281     1.0000 0.28830  0.87670  0.08840  Biso   1.000  H
  C324     1.0000 0.17580  0.83500  0.10650  Biso   1.000  C
  C325     1.0000 0.14010  0.82690  0.05880  Biso   1.000  C
  H282     1.0000 0.17050  0.84180  0.03370  Biso   1.000  H
  C326     1.0000 0.06030  0.79710  0.04740  Biso   1.000  C
  H283     1.0000 0.03610  0.79020  0.01460  Biso   1.000  H
  C327     1.0000 0.01710  0.77770  0.08400  Biso   1.000  C
  H284     1.0000 0.96000  0.75880  0.07580  Biso   1.000  H
  C328     1.0000 0.12940  0.81310  0.14100  Biso   1.000  C
  H285     1.0000 0.15420  0.81860  0.17400  Biso   1.000  H
  C329     1.0000 0.30470  0.87290  0.30395  Biso   1.000  C
  H286     1.0000 0.23880  0.87850  0.31060  Biso   1.000  H
  H287     1.0000 0.30720  0.83960  0.28650  Biso   1.000  H
  C330     1.0000 0.36970  0.87130  0.35012  Biso   1.000  C
  C331     1.0000 0.49000  0.88570  0.40445  Biso   1.000  C
  C332     1.0000 0.57460  0.90280  0.43079  Biso   1.000  C
  H288     1.0000 0.61370  0.92750  0.41790  Biso   1.000  H
  C333     1.0000 0.59870  0.88190  0.47670  Biso   1.000  C
  H289     1.0000 0.65550  0.89270  0.49580  Biso   1.000  H
  C334     1.0000 0.54040  0.84510  0.49539  Biso   1.000  C
  H290     1.0000 0.56020  0.83070  0.52650  Biso   1.000  H
  C335     1.0000 0.45540  0.82930  0.47002  Biso   1.000  C
  H291     1.0000 0.41540  0.80510  0.48310  Biso   1.000  H
  C336     1.0000 0.43200  0.85060  0.42451  Biso   1.000  C
  C337     1.0000 0.27640  0.80680  0.39410  Biso   1.000  C
  H292     1.0000 0.24060  0.79970  0.36180  Biso   1.000  H
  H293     1.0000 0.30190  0.77360  0.40790  Biso   1.000  H
  C338     1.0000 0.21060  0.82990  0.42670  Biso   1.000  C
  C339     1.0000 0.18670  0.80390  0.46630  Biso   1.000  C
  H294     1.0000 0.21110  0.77020  0.47400  Biso   1.000  H
  C340     1.0000 0.12690  0.82720  0.49490  Biso   1.000  C
  H295     1.0000 0.10810  0.80950  0.52200  Biso   1.000  H
  C341     1.0000 0.09500  0.87610  0.48360  Biso   1.000  C
  H296     1.0000 0.05490  0.89250  0.50370  Biso   1.000  H
  C342     1.0000 0.17420  0.87780  0.41740  Biso   1.000  C
  H297     1.0000 0.18940  0.89530  0.38940  Biso   1.000  H
  C343     1.0000 0.12600  0.95860  0.96780  Biso   1.000  C
  C344     1.0000 0.21560  0.98670  0.97020  Biso   1.000  C
  H298     1.0000 0.21860  0.01310  0.99570  Biso   1.000  H
  H299     1.0000 0.26850  0.96250  0.97760  Biso   1.000  H
  H300     1.0000 0.21980  0.00350  0.93900  Biso   1.000  H
