data_GESBOW_charged
_audit_creation_date              2014-07-02
_audit_creation_method            'Materials Studio'
_symmetry_space_group_name_H-M    'P1'
_symmetry_Int_Tables_number       1
_symmetry_cell_setting            triclinic
loop_
_symmetry_equiv_pos_as_xyz
  x,y,z
_cell_length_a                    24.4332
_cell_length_b                    24.4332
_cell_length_c                    24.4332
_cell_angle_alpha                 90.0000
_cell_angle_beta                  90.0000
_cell_angle_gamma                 90.0000
loop_
_atom_site_label
_atom_site_type_symbol
_atom_site_fract_x
_atom_site_fract_y
_atom_site_fract_z
_atom_site_U_iso_or_equiv
_atom_site_adp_type
_atom_site_occupancy
Na1    Na    0.59698   0.90302   0.09698   0.01267  Uiso   1.00
Na2    Na    0.90302   0.09698   0.59698   0.01267  Uiso   1.00
Na3    Na    0.40302   0.40302   0.40302   0.01267  Uiso   1.00
Na4    Na    0.09698   0.59698   0.90302   0.01267  Uiso   1.00
Mn1    Mn    0.73683   0.91008   0.89389   0.01267  Uiso   1.00
Mn2    Mn    0.79383   0.95274   0.79444   0.01267  Uiso   1.00
Mn3    Mn    0.72788   0.84495   0.78305   0.01267  Uiso   1.00
Mn4    Mn    0.65615   0.98834   0.18743   0.01267  Uiso   1.00
Mn5    Mn    0.68174   0.79133   0.88799   0.01267  Uiso   1.00
Mn6    Mn    0.77545   0.22292   0.16702   0.01267  Uiso   1.00
Mn7    Mn    0.76317   0.08992   0.39389   0.01267  Uiso   1.00
Mn8    Mn    0.70617   0.04726   0.29444   0.01267  Uiso   1.00
Mn9    Mn    0.77212   0.15505   0.28305   0.01267  Uiso   1.00
Mn10   Mn    0.84385   0.01166   0.68743   0.01267  Uiso   1.00
Mn11   Mn    0.81826   0.20867   0.38799   0.01267  Uiso   1.00
Mn12   Mn    0.72455   0.77708   0.66702   0.01267  Uiso   1.00
Mn13   Mn    0.26317   0.41008   0.60611   0.01267  Uiso   1.00
Mn14   Mn    0.20617   0.45274   0.70556   0.01267  Uiso   1.00
Mn15   Mn    0.27212   0.34495   0.71695   0.01267  Uiso   1.00
Mn16   Mn    0.34385   0.48834   0.31257   0.01267  Uiso   1.00
Mn17   Mn    0.31826   0.29133   0.61201   0.01267  Uiso   1.00
Mn18   Mn    0.22455   0.72292   0.33298   0.01267  Uiso   1.00
Mn19   Mn    0.23683   0.58992   0.10611   0.01267  Uiso   1.00
Mn20   Mn    0.29383   0.54726   0.20556   0.01267  Uiso   1.00
Mn21   Mn    0.22788   0.65505   0.21695   0.01267  Uiso   1.00
Mn22   Mn    0.15615   0.51166   0.81257   0.01267  Uiso   1.00
Mn23   Mn    0.18174   0.70867   0.11201   0.01267  Uiso   1.00
Mn24   Mn    0.27545   0.27708   0.83298   0.01267  Uiso   1.00
Mn25   Mn    0.89389   0.73683   0.91008   0.01267  Uiso   1.00
Mn26   Mn    0.79444   0.79383   0.95274   0.01267  Uiso   1.00
Mn27   Mn    0.78305   0.72788   0.84495   0.01267  Uiso   1.00
Mn28   Mn    0.18743   0.65615   0.98834   0.01267  Uiso   1.00
Mn29   Mn    0.88799   0.68174   0.79133   0.01267  Uiso   1.00
Mn30   Mn    0.16702   0.77545   0.22292   0.01267  Uiso   1.00
Mn31   Mn    0.39389   0.76317   0.08992   0.01267  Uiso   1.00
Mn32   Mn    0.29444   0.70617   0.04726   0.01267  Uiso   1.00
Mn33   Mn    0.28305   0.77212   0.15505   0.01267  Uiso   1.00
Mn34   Mn    0.68743   0.84385   0.01166   0.01267  Uiso   1.00
Mn35   Mn    0.38799   0.81826   0.20867   0.01267  Uiso   1.00
Mn36   Mn    0.66702   0.72455   0.77708   0.01267  Uiso   1.00
Mn37   Mn    0.60611   0.26317   0.41008   0.01267  Uiso   1.00
Mn38   Mn    0.70556   0.20617   0.45274   0.01267  Uiso   1.00
Mn39   Mn    0.71695   0.27212   0.34495   0.01267  Uiso   1.00
Mn40   Mn    0.31257   0.34385   0.48834   0.01267  Uiso   1.00
Mn41   Mn    0.61201   0.31826   0.29133   0.01267  Uiso   1.00
Mn42   Mn    0.33298   0.22455   0.72292   0.01267  Uiso   1.00
Mn43   Mn    0.10611   0.23683   0.58992   0.01267  Uiso   1.00
Mn44   Mn    0.20556   0.29383   0.54726   0.01267  Uiso   1.00
Mn45   Mn    0.21695   0.22788   0.65505   0.01267  Uiso   1.00
Mn46   Mn    0.81257   0.15615   0.51166   0.01267  Uiso   1.00
Mn47   Mn    0.11201   0.18174   0.70867   0.01267  Uiso   1.00
Mn48   Mn    0.83298   0.27545   0.27708   0.01267  Uiso   1.00
Mn49   Mn    0.91008   0.89389   0.73683   0.01267  Uiso   1.00
Mn50   Mn    0.95274   0.79444   0.79383   0.01267  Uiso   1.00
Mn51   Mn    0.84495   0.78305   0.72788   0.01267  Uiso   1.00
Mn52   Mn    0.98834   0.18743   0.65615   0.01267  Uiso   1.00
Mn53   Mn    0.79133   0.88799   0.68174   0.01267  Uiso   1.00
Mn54   Mn    0.22292   0.16702   0.77545   0.01267  Uiso   1.00
Mn55   Mn    0.08992   0.39389   0.76317   0.01267  Uiso   1.00
Mn56   Mn    0.04726   0.29444   0.70617   0.01267  Uiso   1.00
Mn57   Mn    0.15505   0.28305   0.77212   0.01267  Uiso   1.00
Mn58   Mn    0.01166   0.68743   0.84385   0.01267  Uiso   1.00
Mn59   Mn    0.20867   0.38799   0.81826   0.01267  Uiso   1.00
Mn60   Mn    0.77708   0.66702   0.72455   0.01267  Uiso   1.00
Mn61   Mn    0.41008   0.60611   0.26317   0.01267  Uiso   1.00
Mn62   Mn    0.45274   0.70556   0.20617   0.01267  Uiso   1.00
Mn63   Mn    0.34495   0.71695   0.27212   0.01267  Uiso   1.00
Mn64   Mn    0.48834   0.31257   0.34385   0.01267  Uiso   1.00
Mn65   Mn    0.29133   0.61201   0.31826   0.01267  Uiso   1.00
Mn66   Mn    0.72292   0.33298   0.22455   0.01267  Uiso   1.00
Mn67   Mn    0.58992   0.10611   0.23683   0.01267  Uiso   1.00
Mn68   Mn    0.54726   0.20556   0.29383   0.01267  Uiso   1.00
Mn69   Mn    0.65505   0.21695   0.22788   0.01267  Uiso   1.00
Mn70   Mn    0.51166   0.81257   0.15615   0.01267  Uiso   1.00
Mn71   Mn    0.70867   0.11201   0.18174   0.01267  Uiso   1.00
Mn72   Mn    0.27708   0.83298   0.27545   0.01267  Uiso   1.00
Mn73   Mn    0.86125   0.86125   0.86125   0.01267  Uiso   1.00
Mn74   Mn    0.63875   0.13875   0.36125   0.01267  Uiso   1.00
Mn75   Mn    0.13875   0.36125   0.63875   0.01267  Uiso   1.00
Mn76   Mn    0.36125   0.63875   0.13875   0.01267  Uiso   1.00
H1     H     0.60300   0.87020   0.79760   0.01267  Uiso   1.00
H2     H     0.60490   0.90760   0.84980   0.01267  Uiso   1.00
H3     H     0.65150   0.97570   0.80420   0.01267  Uiso   1.00
H4     H     0.67960   0.97410   0.71450   0.01267  Uiso   1.00
H5     H     0.65310   0.91650   0.70410   0.01267  Uiso   1.00
H6     H     0.55400   0.97030   0.78180   0.01267  Uiso   1.00
H7     H     0.58640   0.99620   0.73290   0.01267  Uiso   1.00
H8     H     0.56820   0.93480   0.73030   0.01267  Uiso   1.00
H9     H     0.81090   0.08090   0.79910   0.01267  Uiso   1.00
H10    H     0.76720   0.09320   0.75470   0.01267  Uiso   1.00
H11    H     0.69730   0.07180   0.81210   0.01267  Uiso   1.00
H12    H     0.74440   0.15810   0.83260   0.01267  Uiso   1.00
H13    H     0.72350   0.13240   0.88760   0.01267  Uiso   1.00
H14    H     0.78520   0.12650   0.87080   0.01267  Uiso   1.00
H15    H     0.71410   0.03490   0.89690   0.01267  Uiso   1.00
H16    H     0.77750   0.04220   0.89000   0.01267  Uiso   1.00
H17    H     0.71240   0.01420   0.06750   0.01267  Uiso   1.00
H18    H     0.67000   0.06210   0.06450   0.01267  Uiso   1.00
H19    H     0.78100   0.06930   0.07170   0.01267  Uiso   1.00
H20    H     0.73150   0.16740   0.05980   0.01267  Uiso   1.00
H21    H     0.79380   0.15410   0.06710   0.01267  Uiso   1.00
H22    H     0.78740   0.08430   0.98400   0.01267  Uiso   1.00
H23    H     0.73940   0.04190   0.98800   0.01267  Uiso   1.00
H24    H     0.72660   0.10400   0.97830   0.01267  Uiso   1.00
H25    H     0.88300   0.92060   0.03330   0.01267  Uiso   1.00
H26    H     0.89740   0.96360   0.98800   0.01267  Uiso   1.00
H27    H     0.84720   0.97340   0.02670   0.01267  Uiso   1.00
H28    H     0.80510   0.95010   0.12160   0.01267  Uiso   1.00
H29    H     0.76920   0.95350   0.17460   0.01267  Uiso   1.00
H30    H     0.79570   0.89760   0.15730   0.01267  Uiso   1.00
H31    H     0.57100   0.98820   0.98950   0.01267  Uiso   1.00
H32    H     0.61970   0.02780   0.97610   0.01267  Uiso   1.00
H33    H     0.58720   0.99960   0.92850   0.01267  Uiso   1.00
H34    H     0.89700   0.12980   0.29760   0.01267  Uiso   1.00
H35    H     0.89510   0.09240   0.34980   0.01267  Uiso   1.00
H36    H     0.84850   0.02430   0.30420   0.01267  Uiso   1.00
H37    H     0.82040   0.02590   0.21450   0.01267  Uiso   1.00
H38    H     0.84690   0.08350   0.20410   0.01267  Uiso   1.00
H39    H     0.94600   0.02970   0.28180   0.01267  Uiso   1.00
H40    H     0.91360   0.00380   0.23290   0.01267  Uiso   1.00
H41    H     0.93180   0.06520   0.23030   0.01267  Uiso   1.00
H42    H     0.68910   0.91910   0.29910   0.01267  Uiso   1.00
H43    H     0.73280   0.90680   0.25470   0.01267  Uiso   1.00
H44    H     0.80270   0.92820   0.31210   0.01267  Uiso   1.00
H45    H     0.75560   0.84190   0.33260   0.01267  Uiso   1.00
H46    H     0.77650   0.86760   0.38760   0.01267  Uiso   1.00
H47    H     0.71480   0.87350   0.37080   0.01267  Uiso   1.00
H48    H     0.78590   0.96510   0.39690   0.01267  Uiso   1.00
H49    H     0.72250   0.95780   0.39000   0.01267  Uiso   1.00
H50    H     0.78760   0.98580   0.56750   0.01267  Uiso   1.00
H51    H     0.83000   0.93790   0.56450   0.01267  Uiso   1.00
H52    H     0.71900   0.93070   0.57170   0.01267  Uiso   1.00
H53    H     0.76850   0.83260   0.55980   0.01267  Uiso   1.00
H54    H     0.70620   0.84590   0.56710   0.01267  Uiso   1.00
H55    H     0.71260   0.91570   0.48400   0.01267  Uiso   1.00
H56    H     0.76060   0.95810   0.48800   0.01267  Uiso   1.00
H57    H     0.77340   0.89600   0.47830   0.01267  Uiso   1.00
H58    H     0.61700   0.07940   0.53330   0.01267  Uiso   1.00
H59    H     0.60260   0.03640   0.48800   0.01267  Uiso   1.00
H60    H     0.65280   0.02660   0.52670   0.01267  Uiso   1.00
H61    H     0.69490   0.04990   0.62160   0.01267  Uiso   1.00
H62    H     0.73080   0.04650   0.67460   0.01267  Uiso   1.00
H63    H     0.70430   0.10240   0.65730   0.01267  Uiso   1.00
H64    H     0.92900   0.01180   0.48950   0.01267  Uiso   1.00
H65    H     0.88030   0.97220   0.47610   0.01267  Uiso   1.00
H66    H     0.91280   0.00040   0.42850   0.01267  Uiso   1.00
H67    H     0.39700   0.37020   0.70240   0.01267  Uiso   1.00
H68    H     0.39510   0.40760   0.65020   0.01267  Uiso   1.00
H69    H     0.34850   0.47570   0.69580   0.01267  Uiso   1.00
H70    H     0.32040   0.47410   0.78550   0.01267  Uiso   1.00
H71    H     0.34690   0.41650   0.79590   0.01267  Uiso   1.00
H72    H     0.44600   0.47030   0.71820   0.01267  Uiso   1.00
H73    H     0.41360   0.49620   0.76710   0.01267  Uiso   1.00
H74    H     0.43180   0.43480   0.76970   0.01267  Uiso   1.00
H75    H     0.18910   0.58090   0.70090   0.01267  Uiso   1.00
H76    H     0.23280   0.59320   0.74530   0.01267  Uiso   1.00
H77    H     0.30270   0.57180   0.68790   0.01267  Uiso   1.00
H78    H     0.25560   0.65810   0.66740   0.01267  Uiso   1.00
H79    H     0.27650   0.63240   0.61240   0.01267  Uiso   1.00
H80    H     0.21480   0.62650   0.62920   0.01267  Uiso   1.00
H81    H     0.28590   0.53490   0.60310   0.01267  Uiso   1.00
H82    H     0.22250   0.54220   0.61000   0.01267  Uiso   1.00
H83    H     0.28760   0.51420   0.43250   0.01267  Uiso   1.00
H84    H     0.33000   0.56210   0.43550   0.01267  Uiso   1.00
H85    H     0.21900   0.56930   0.42830   0.01267  Uiso   1.00
H86    H     0.26850   0.66740   0.44020   0.01267  Uiso   1.00
H87    H     0.20620   0.65410   0.43290   0.01267  Uiso   1.00
H88    H     0.21260   0.58430   0.51600   0.01267  Uiso   1.00
H89    H     0.26060   0.54190   0.51200   0.01267  Uiso   1.00
H90    H     0.27340   0.60400   0.52170   0.01267  Uiso   1.00
H91    H     0.11700   0.42060   0.46670   0.01267  Uiso   1.00
H92    H     0.10260   0.46360   0.51200   0.01267  Uiso   1.00
H93    H     0.15280   0.47340   0.47330   0.01267  Uiso   1.00
H94    H     0.19490   0.45010   0.37840   0.01267  Uiso   1.00
H95    H     0.23080   0.45350   0.32540   0.01267  Uiso   1.00
H96    H     0.20430   0.39760   0.34270   0.01267  Uiso   1.00
H97    H     0.42900   0.48820   0.51050   0.01267  Uiso   1.00
H98    H     0.38030   0.52780   0.52390   0.01267  Uiso   1.00
H99    H     0.41280   0.49960   0.57150   0.01267  Uiso   1.00
H100   H     0.10300   0.62980   0.20240   0.01267  Uiso   1.00
H101   H     0.10490   0.59240   0.15020   0.01267  Uiso   1.00
H102   H     0.15150   0.52430   0.19580   0.01267  Uiso   1.00
H103   H     0.17960   0.52590   0.28550   0.01267  Uiso   1.00
H104   H     0.15310   0.58350   0.29590   0.01267  Uiso   1.00
H105   H     0.05400   0.52970   0.21820   0.01267  Uiso   1.00
H106   H     0.08640   0.50380   0.26710   0.01267  Uiso   1.00
H107   H     0.06820   0.56520   0.26970   0.01267  Uiso   1.00
H108   H     0.31090   0.41910   0.20090   0.01267  Uiso   1.00
H109   H     0.26720   0.40680   0.24530   0.01267  Uiso   1.00
H110   H     0.19730   0.42820   0.18790   0.01267  Uiso   1.00
H111   H     0.24440   0.34190   0.16740   0.01267  Uiso   1.00
H112   H     0.22350   0.36760   0.11240   0.01267  Uiso   1.00
H113   H     0.28520   0.37350   0.12920   0.01267  Uiso   1.00
H114   H     0.21410   0.46510   0.10310   0.01267  Uiso   1.00
H115   H     0.27750   0.45780   0.11000   0.01267  Uiso   1.00
H116   H     0.21240   0.48580   0.93250   0.01267  Uiso   1.00
H117   H     0.17000   0.43790   0.93550   0.01267  Uiso   1.00
H118   H     0.28100   0.43070   0.92830   0.01267  Uiso   1.00
H119   H     0.23150   0.33260   0.94020   0.01267  Uiso   1.00
H120   H     0.29380   0.34590   0.93290   0.01267  Uiso   1.00
H121   H     0.28740   0.41570   0.01600   0.01267  Uiso   1.00
H122   H     0.23940   0.45810   0.01200   0.01267  Uiso   1.00
H123   H     0.22660   0.39600   0.02170   0.01267  Uiso   1.00
H124   H     0.38300   0.57940   0.96670   0.01267  Uiso   1.00
H125   H     0.39740   0.53640   0.01200   0.01267  Uiso   1.00
H126   H     0.34720   0.52660   0.97330   0.01267  Uiso   1.00
H127   H     0.30510   0.54990   0.87840   0.01267  Uiso   1.00
H128   H     0.26920   0.54650   0.82540   0.01267  Uiso   1.00
H129   H     0.29570   0.60240   0.84270   0.01267  Uiso   1.00
H130   H     0.07100   0.51180   0.01050   0.01267  Uiso   1.00
H131   H     0.11970   0.47220   0.02390   0.01267  Uiso   1.00
H132   H     0.08720   0.50040   0.07150   0.01267  Uiso   1.00
H133   H     0.79760   0.60300   0.87020   0.01267  Uiso   1.00
H134   H     0.84980   0.60490   0.90760   0.01267  Uiso   1.00
H135   H     0.80420   0.65150   0.97570   0.01267  Uiso   1.00
H136   H     0.71450   0.67960   0.97410   0.01267  Uiso   1.00
H137   H     0.70410   0.65310   0.91650   0.01267  Uiso   1.00
H138   H     0.78180   0.55400   0.97030   0.01267  Uiso   1.00
H139   H     0.73290   0.58640   0.99620   0.01267  Uiso   1.00
H140   H     0.73030   0.56820   0.93480   0.01267  Uiso   1.00
H141   H     0.79910   0.81090   0.08090   0.01267  Uiso   1.00
H142   H     0.75470   0.76720   0.09320   0.01267  Uiso   1.00
H143   H     0.81210   0.69730   0.07180   0.01267  Uiso   1.00
H144   H     0.83260   0.74440   0.15810   0.01267  Uiso   1.00
H145   H     0.88760   0.72350   0.13240   0.01267  Uiso   1.00
H146   H     0.87080   0.78520   0.12650   0.01267  Uiso   1.00
H147   H     0.89690   0.71410   0.03490   0.01267  Uiso   1.00
H148   H     0.89000   0.77750   0.04220   0.01267  Uiso   1.00
H149   H     0.06750   0.71240   0.01420   0.01267  Uiso   1.00
H150   H     0.06450   0.67000   0.06210   0.01267  Uiso   1.00
H151   H     0.07170   0.78100   0.06930   0.01267  Uiso   1.00
H152   H     0.05980   0.73150   0.16740   0.01267  Uiso   1.00
H153   H     0.06710   0.79380   0.15410   0.01267  Uiso   1.00
H154   H     0.98400   0.78740   0.08430   0.01267  Uiso   1.00
H155   H     0.98800   0.73940   0.04190   0.01267  Uiso   1.00
H156   H     0.97830   0.72660   0.10400   0.01267  Uiso   1.00
H157   H     0.03330   0.88300   0.92060   0.01267  Uiso   1.00
H158   H     0.98800   0.89740   0.96360   0.01267  Uiso   1.00
H159   H     0.02670   0.84720   0.97340   0.01267  Uiso   1.00
H160   H     0.12160   0.80510   0.95010   0.01267  Uiso   1.00
H161   H     0.17460   0.76920   0.95350   0.01267  Uiso   1.00
H162   H     0.15730   0.79570   0.89760   0.01267  Uiso   1.00
H163   H     0.98950   0.57100   0.98820   0.01267  Uiso   1.00
H164   H     0.97610   0.61970   0.02780   0.01267  Uiso   1.00
H165   H     0.92850   0.58720   0.99960   0.01267  Uiso   1.00
H166   H     0.29760   0.89700   0.12980   0.01267  Uiso   1.00
H167   H     0.34980   0.89510   0.09240   0.01267  Uiso   1.00
H168   H     0.30420   0.84850   0.02430   0.01267  Uiso   1.00
H169   H     0.21450   0.82040   0.02590   0.01267  Uiso   1.00
H170   H     0.20410   0.84690   0.08350   0.01267  Uiso   1.00
H171   H     0.28180   0.94600   0.02970   0.01267  Uiso   1.00
H172   H     0.23290   0.91360   0.00380   0.01267  Uiso   1.00
H173   H     0.23030   0.93180   0.06520   0.01267  Uiso   1.00
H174   H     0.29910   0.68910   0.91910   0.01267  Uiso   1.00
H175   H     0.25470   0.73280   0.90680   0.01267  Uiso   1.00
H176   H     0.31210   0.80270   0.92820   0.01267  Uiso   1.00
H177   H     0.33260   0.75560   0.84190   0.01267  Uiso   1.00
H178   H     0.38760   0.77650   0.86760   0.01267  Uiso   1.00
H179   H     0.37080   0.71480   0.87350   0.01267  Uiso   1.00
H180   H     0.39690   0.78590   0.96510   0.01267  Uiso   1.00
H181   H     0.39000   0.72250   0.95780   0.01267  Uiso   1.00
H182   H     0.56750   0.78760   0.98580   0.01267  Uiso   1.00
H183   H     0.56450   0.83000   0.93790   0.01267  Uiso   1.00
H184   H     0.57170   0.71900   0.93070   0.01267  Uiso   1.00
H185   H     0.55980   0.76850   0.83260   0.01267  Uiso   1.00
H186   H     0.56710   0.70620   0.84590   0.01267  Uiso   1.00
H187   H     0.48400   0.71260   0.91570   0.01267  Uiso   1.00
H188   H     0.48800   0.76060   0.95810   0.01267  Uiso   1.00
H189   H     0.47830   0.77340   0.89600   0.01267  Uiso   1.00
H190   H     0.53330   0.61700   0.07940   0.01267  Uiso   1.00
H191   H     0.48800   0.60260   0.03640   0.01267  Uiso   1.00
H192   H     0.52670   0.65280   0.02660   0.01267  Uiso   1.00
H193   H     0.62160   0.69490   0.04990   0.01267  Uiso   1.00
H194   H     0.67460   0.73080   0.04650   0.01267  Uiso   1.00
H195   H     0.65730   0.70430   0.10240   0.01267  Uiso   1.00
H196   H     0.48950   0.92900   0.01180   0.01267  Uiso   1.00
H197   H     0.47610   0.88030   0.97220   0.01267  Uiso   1.00
H198   H     0.42850   0.91280   0.00040   0.01267  Uiso   1.00
H199   H     0.70240   0.39700   0.37020   0.01267  Uiso   1.00
H200   H     0.65020   0.39510   0.40760   0.01267  Uiso   1.00
H201   H     0.69580   0.34850   0.47570   0.01267  Uiso   1.00
H202   H     0.78550   0.32040   0.47410   0.01267  Uiso   1.00
H203   H     0.79590   0.34690   0.41650   0.01267  Uiso   1.00
H204   H     0.71820   0.44600   0.47030   0.01267  Uiso   1.00
H205   H     0.76710   0.41360   0.49620   0.01267  Uiso   1.00
H206   H     0.76970   0.43180   0.43480   0.01267  Uiso   1.00
H207   H     0.70090   0.18910   0.58090   0.01267  Uiso   1.00
H208   H     0.74530   0.23280   0.59320   0.01267  Uiso   1.00
H209   H     0.68790   0.30270   0.57180   0.01267  Uiso   1.00
H210   H     0.66740   0.25560   0.65810   0.01267  Uiso   1.00
H211   H     0.61240   0.27650   0.63240   0.01267  Uiso   1.00
H212   H     0.62920   0.21480   0.62650   0.01267  Uiso   1.00
H213   H     0.60310   0.28590   0.53490   0.01267  Uiso   1.00
H214   H     0.61000   0.22250   0.54220   0.01267  Uiso   1.00
H215   H     0.43250   0.28760   0.51420   0.01267  Uiso   1.00
H216   H     0.43550   0.33000   0.56210   0.01267  Uiso   1.00
H217   H     0.42830   0.21900   0.56930   0.01267  Uiso   1.00
H218   H     0.44020   0.26850   0.66740   0.01267  Uiso   1.00
H219   H     0.43290   0.20620   0.65410   0.01267  Uiso   1.00
H220   H     0.51600   0.21260   0.58430   0.01267  Uiso   1.00
H221   H     0.51200   0.26060   0.54190   0.01267  Uiso   1.00
H222   H     0.52170   0.27340   0.60400   0.01267  Uiso   1.00
H223   H     0.46670   0.11700   0.42060   0.01267  Uiso   1.00
H224   H     0.51200   0.10260   0.46360   0.01267  Uiso   1.00
H225   H     0.47330   0.15280   0.47340   0.01267  Uiso   1.00
H226   H     0.37840   0.19490   0.45010   0.01267  Uiso   1.00
H227   H     0.32540   0.23080   0.45350   0.01267  Uiso   1.00
H228   H     0.34270   0.20430   0.39760   0.01267  Uiso   1.00
H229   H     0.51050   0.42900   0.48820   0.01267  Uiso   1.00
H230   H     0.52390   0.38030   0.52780   0.01267  Uiso   1.00
H231   H     0.57150   0.41280   0.49960   0.01267  Uiso   1.00
H232   H     0.20240   0.10300   0.62980   0.01267  Uiso   1.00
H233   H     0.15020   0.10490   0.59240   0.01267  Uiso   1.00
H234   H     0.19580   0.15150   0.52430   0.01267  Uiso   1.00
H235   H     0.28550   0.17960   0.52590   0.01267  Uiso   1.00
H236   H     0.29590   0.15310   0.58350   0.01267  Uiso   1.00
H237   H     0.21820   0.05400   0.52970   0.01267  Uiso   1.00
H238   H     0.26710   0.08640   0.50380   0.01267  Uiso   1.00
H239   H     0.26970   0.06820   0.56520   0.01267  Uiso   1.00
H240   H     0.20090   0.31090   0.41910   0.01267  Uiso   1.00
H241   H     0.24530   0.26720   0.40680   0.01267  Uiso   1.00
H242   H     0.18790   0.19730   0.42820   0.01267  Uiso   1.00
H243   H     0.16740   0.24440   0.34190   0.01267  Uiso   1.00
H244   H     0.11240   0.22350   0.36760   0.01267  Uiso   1.00
H245   H     0.12920   0.28520   0.37350   0.01267  Uiso   1.00
H246   H     0.10310   0.21410   0.46510   0.01267  Uiso   1.00
H247   H     0.11000   0.27750   0.45780   0.01267  Uiso   1.00
H248   H     0.93250   0.21240   0.48580   0.01267  Uiso   1.00
H249   H     0.93550   0.17000   0.43790   0.01267  Uiso   1.00
H250   H     0.92830   0.28100   0.43070   0.01267  Uiso   1.00
H251   H     0.94020   0.23150   0.33260   0.01267  Uiso   1.00
H252   H     0.93290   0.29380   0.34590   0.01267  Uiso   1.00
H253   H     0.01600   0.28740   0.41570   0.01267  Uiso   1.00
H254   H     0.01200   0.23940   0.45810   0.01267  Uiso   1.00
H255   H     0.02170   0.22660   0.39600   0.01267  Uiso   1.00
H256   H     0.96670   0.38300   0.57940   0.01267  Uiso   1.00
H257   H     0.01200   0.39740   0.53640   0.01267  Uiso   1.00
H258   H     0.97330   0.34720   0.52660   0.01267  Uiso   1.00
H259   H     0.87840   0.30510   0.54990   0.01267  Uiso   1.00
H260   H     0.82540   0.26920   0.54650   0.01267  Uiso   1.00
H261   H     0.84270   0.29570   0.60240   0.01267  Uiso   1.00
H262   H     0.01050   0.07100   0.51180   0.01267  Uiso   1.00
H263   H     0.02390   0.11970   0.47220   0.01267  Uiso   1.00
H264   H     0.07150   0.08720   0.50040   0.01267  Uiso   1.00
H265   H     0.87020   0.79760   0.60300   0.01267  Uiso   1.00
H266   H     0.90760   0.84980   0.60490   0.01267  Uiso   1.00
H267   H     0.97570   0.80420   0.65150   0.01267  Uiso   1.00
H268   H     0.97410   0.71450   0.67960   0.01267  Uiso   1.00
H269   H     0.91650   0.70410   0.65310   0.01267  Uiso   1.00
H270   H     0.97030   0.78180   0.55400   0.01267  Uiso   1.00
H271   H     0.99620   0.73290   0.58640   0.01267  Uiso   1.00
H272   H     0.93480   0.73030   0.56820   0.01267  Uiso   1.00
H273   H     0.08090   0.79910   0.81090   0.01267  Uiso   1.00
H274   H     0.09320   0.75470   0.76720   0.01267  Uiso   1.00
H275   H     0.07180   0.81210   0.69730   0.01267  Uiso   1.00
H276   H     0.15810   0.83260   0.74440   0.01267  Uiso   1.00
H277   H     0.13240   0.88760   0.72350   0.01267  Uiso   1.00
H278   H     0.12650   0.87080   0.78520   0.01267  Uiso   1.00
H279   H     0.03490   0.89690   0.71410   0.01267  Uiso   1.00
H280   H     0.04220   0.89000   0.77750   0.01267  Uiso   1.00
H281   H     0.01420   0.06750   0.71240   0.01267  Uiso   1.00
H282   H     0.06210   0.06450   0.67000   0.01267  Uiso   1.00
H283   H     0.06930   0.07170   0.78100   0.01267  Uiso   1.00
H284   H     0.16740   0.05980   0.73150   0.01267  Uiso   1.00
H285   H     0.15410   0.06710   0.79380   0.01267  Uiso   1.00
H286   H     0.08430   0.98400   0.78740   0.01267  Uiso   1.00
H287   H     0.04190   0.98800   0.73940   0.01267  Uiso   1.00
H288   H     0.10400   0.97830   0.72660   0.01267  Uiso   1.00
H289   H     0.92060   0.03330   0.88300   0.01267  Uiso   1.00
H290   H     0.96360   0.98800   0.89740   0.01267  Uiso   1.00
H291   H     0.97340   0.02670   0.84720   0.01267  Uiso   1.00
H292   H     0.95010   0.12160   0.80510   0.01267  Uiso   1.00
H293   H     0.95350   0.17460   0.76920   0.01267  Uiso   1.00
H294   H     0.89760   0.15730   0.79570   0.01267  Uiso   1.00
H295   H     0.98820   0.98950   0.57100   0.01267  Uiso   1.00
H296   H     0.02780   0.97610   0.61970   0.01267  Uiso   1.00
H297   H     0.99960   0.92850   0.58720   0.01267  Uiso   1.00
H298   H     0.12980   0.29760   0.89700   0.01267  Uiso   1.00
H299   H     0.09240   0.34980   0.89510   0.01267  Uiso   1.00
H300   H     0.02430   0.30420   0.84850   0.01267  Uiso   1.00
H301   H     0.02590   0.21450   0.82040   0.01267  Uiso   1.00
H302   H     0.08350   0.20410   0.84690   0.01267  Uiso   1.00
H303   H     0.02970   0.28180   0.94600   0.01267  Uiso   1.00
H304   H     0.00380   0.23290   0.91360   0.01267  Uiso   1.00
H305   H     0.06520   0.23030   0.93180   0.01267  Uiso   1.00
H306   H     0.91910   0.29910   0.68910   0.01267  Uiso   1.00
H307   H     0.90680   0.25470   0.73280   0.01267  Uiso   1.00
H308   H     0.92820   0.31210   0.80270   0.01267  Uiso   1.00
H309   H     0.84190   0.33260   0.75560   0.01267  Uiso   1.00
H310   H     0.86760   0.38760   0.77650   0.01267  Uiso   1.00
H311   H     0.87350   0.37080   0.71480   0.01267  Uiso   1.00
H312   H     0.96510   0.39690   0.78590   0.01267  Uiso   1.00
H313   H     0.95780   0.39000   0.72250   0.01267  Uiso   1.00
H314   H     0.98580   0.56750   0.78760   0.01267  Uiso   1.00
H315   H     0.93790   0.56450   0.83000   0.01267  Uiso   1.00
H316   H     0.93070   0.57170   0.71900   0.01267  Uiso   1.00
H317   H     0.83260   0.55980   0.76850   0.01267  Uiso   1.00
H318   H     0.84590   0.56710   0.70620   0.01267  Uiso   1.00
H319   H     0.91570   0.48400   0.71260   0.01267  Uiso   1.00
H320   H     0.95810   0.48800   0.76060   0.01267  Uiso   1.00
H321   H     0.89600   0.47830   0.77340   0.01267  Uiso   1.00
H322   H     0.07940   0.53330   0.61700   0.01267  Uiso   1.00
H323   H     0.03640   0.48800   0.60260   0.01267  Uiso   1.00
H324   H     0.02660   0.52670   0.65280   0.01267  Uiso   1.00
H325   H     0.04990   0.62160   0.69490   0.01267  Uiso   1.00
H326   H     0.04650   0.67460   0.73080   0.01267  Uiso   1.00
H327   H     0.10240   0.65730   0.70430   0.01267  Uiso   1.00
H328   H     0.01180   0.48950   0.92900   0.01267  Uiso   1.00
H329   H     0.97220   0.47610   0.88030   0.01267  Uiso   1.00
H330   H     0.00040   0.42850   0.91280   0.01267  Uiso   1.00
H331   H     0.37020   0.70240   0.39700   0.01267  Uiso   1.00
H332   H     0.40760   0.65020   0.39510   0.01267  Uiso   1.00
H333   H     0.47570   0.69580   0.34850   0.01267  Uiso   1.00
H334   H     0.47410   0.78550   0.32040   0.01267  Uiso   1.00
H335   H     0.41650   0.79590   0.34690   0.01267  Uiso   1.00
H336   H     0.47030   0.71820   0.44600   0.01267  Uiso   1.00
H337   H     0.49620   0.76710   0.41360   0.01267  Uiso   1.00
H338   H     0.43480   0.76970   0.43180   0.01267  Uiso   1.00
H339   H     0.58090   0.70090   0.18910   0.01267  Uiso   1.00
H340   H     0.59320   0.74530   0.23280   0.01267  Uiso   1.00
H341   H     0.57180   0.68790   0.30270   0.01267  Uiso   1.00
H342   H     0.65810   0.66740   0.25560   0.01267  Uiso   1.00
H343   H     0.63240   0.61240   0.27650   0.01267  Uiso   1.00
H344   H     0.62650   0.62920   0.21480   0.01267  Uiso   1.00
H345   H     0.53490   0.60310   0.28590   0.01267  Uiso   1.00
H346   H     0.54220   0.61000   0.22250   0.01267  Uiso   1.00
H347   H     0.51420   0.43250   0.28760   0.01267  Uiso   1.00
H348   H     0.56210   0.43550   0.33000   0.01267  Uiso   1.00
H349   H     0.56930   0.42830   0.21900   0.01267  Uiso   1.00
H350   H     0.66740   0.44020   0.26850   0.01267  Uiso   1.00
H351   H     0.65410   0.43290   0.20620   0.01267  Uiso   1.00
H352   H     0.58430   0.51600   0.21260   0.01267  Uiso   1.00
H353   H     0.54190   0.51200   0.26060   0.01267  Uiso   1.00
H354   H     0.60400   0.52170   0.27340   0.01267  Uiso   1.00
H355   H     0.42060   0.46670   0.11700   0.01267  Uiso   1.00
H356   H     0.46360   0.51200   0.10260   0.01267  Uiso   1.00
H357   H     0.47340   0.47330   0.15280   0.01267  Uiso   1.00
H358   H     0.45010   0.37840   0.19490   0.01267  Uiso   1.00
H359   H     0.45350   0.32540   0.23080   0.01267  Uiso   1.00
H360   H     0.39760   0.34270   0.20430   0.01267  Uiso   1.00
H361   H     0.48820   0.51050   0.42900   0.01267  Uiso   1.00
H362   H     0.52780   0.52390   0.38030   0.01267  Uiso   1.00
H363   H     0.49960   0.57150   0.41280   0.01267  Uiso   1.00
H364   H     0.62980   0.20240   0.10300   0.01267  Uiso   1.00
H365   H     0.59240   0.15020   0.10490   0.01267  Uiso   1.00
H366   H     0.52430   0.19580   0.15150   0.01267  Uiso   1.00
H367   H     0.52590   0.28550   0.17960   0.01267  Uiso   1.00
H368   H     0.58350   0.29590   0.15310   0.01267  Uiso   1.00
H369   H     0.52970   0.21820   0.05400   0.01267  Uiso   1.00
H370   H     0.50380   0.26710   0.08640   0.01267  Uiso   1.00
H371   H     0.56520   0.26970   0.06820   0.01267  Uiso   1.00
H372   H     0.41910   0.20090   0.31090   0.01267  Uiso   1.00
H373   H     0.40680   0.24530   0.26720   0.01267  Uiso   1.00
H374   H     0.42820   0.18790   0.19730   0.01267  Uiso   1.00
H375   H     0.34190   0.16740   0.24440   0.01267  Uiso   1.00
H376   H     0.36760   0.11240   0.22350   0.01267  Uiso   1.00
H377   H     0.37350   0.12920   0.28520   0.01267  Uiso   1.00
H378   H     0.46510   0.10310   0.21410   0.01267  Uiso   1.00
H379   H     0.45780   0.11000   0.27750   0.01267  Uiso   1.00
H380   H     0.48580   0.93250   0.21240   0.01267  Uiso   1.00
H381   H     0.43790   0.93550   0.17000   0.01267  Uiso   1.00
H382   H     0.43070   0.92830   0.28100   0.01267  Uiso   1.00
H383   H     0.33260   0.94020   0.23150   0.01267  Uiso   1.00
H384   H     0.34590   0.93290   0.29380   0.01267  Uiso   1.00
H385   H     0.41570   0.01600   0.28740   0.01267  Uiso   1.00
H386   H     0.45810   0.01200   0.23940   0.01267  Uiso   1.00
H387   H     0.39600   0.02170   0.22660   0.01267  Uiso   1.00
H388   H     0.57940   0.96670   0.38300   0.01267  Uiso   1.00
H389   H     0.53640   0.01200   0.39740   0.01267  Uiso   1.00
H390   H     0.52660   0.97330   0.34720   0.01267  Uiso   1.00
H391   H     0.54990   0.87840   0.30510   0.01267  Uiso   1.00
H392   H     0.54650   0.82540   0.26920   0.01267  Uiso   1.00
H393   H     0.60240   0.84270   0.29570   0.01267  Uiso   1.00
H394   H     0.51180   0.01050   0.07100   0.01267  Uiso   1.00
H395   H     0.47220   0.02390   0.11970   0.01267  Uiso   1.00
H396   H     0.50040   0.07150   0.08720   0.01267  Uiso   1.00
C1     C     0.62550   0.89590   0.81790   0.01267  Uiso   1.00
C2     C     0.63720   0.94560   0.78180   0.01267  Uiso   1.00
C3     C     0.67270   0.93860   0.73070   0.01267  Uiso   1.00
C4     C     0.58080   0.96350   0.75390   0.01267  Uiso   1.00
C5     C     0.77720   0.06730   0.78310   0.01267  Uiso   1.00
C6     C     0.73470   0.07280   0.82650   0.01267  Uiso   1.00
C7     C     0.74830   0.12780   0.85740   0.01267  Uiso   1.00
C8     C     0.74410   0.03260   0.87090   0.01267  Uiso   1.00
C9     C     0.70480   0.05110   0.08010   0.01267  Uiso   1.00
C10    C     0.74770   0.08790   0.05920   0.01267  Uiso   1.00
C11    C     0.75720   0.14320   0.07790   0.01267  Uiso   1.00
C12    C     0.75060   0.07870   0.99640   0.01267  Uiso   1.00
C13    C     0.83370   0.91820   0.97000   0.01267  Uiso   1.00
C14    C     0.86810   0.94620   0.00760   0.01267  Uiso   1.00
C15    C     0.72900   0.91730   0.11100   0.01267  Uiso   1.00
C16    C     0.77930   0.93090   0.14420   0.01267  Uiso   1.00
C17    C     0.63950   0.94820   0.96650   0.01267  Uiso   1.00
C18    C     0.60090   0.99510   0.96500   0.01267  Uiso   1.00
C19    C     0.87450   0.10410   0.31790   0.01267  Uiso   1.00
C20    C     0.86280   0.05440   0.28180   0.01267  Uiso   1.00
C21    C     0.82730   0.06140   0.23070   0.01267  Uiso   1.00
C22    C     0.91920   0.03650   0.25390   0.01267  Uiso   1.00
C23    C     0.72280   0.93270   0.28310   0.01267  Uiso   1.00
C24    C     0.76530   0.92720   0.32650   0.01267  Uiso   1.00
C25    C     0.75170   0.87220   0.35740   0.01267  Uiso   1.00
C26    C     0.75590   0.96740   0.37090   0.01267  Uiso   1.00
C27    C     0.79520   0.94890   0.58010   0.01267  Uiso   1.00
C28    C     0.75230   0.91210   0.55920   0.01267  Uiso   1.00
C29    C     0.74280   0.85680   0.57790   0.01267  Uiso   1.00
C30    C     0.74940   0.92130   0.49640   0.01267  Uiso   1.00
C31    C     0.66630   0.08180   0.47000   0.01267  Uiso   1.00
C32    C     0.63190   0.05380   0.50760   0.01267  Uiso   1.00
C33    C     0.77100   0.08270   0.61100   0.01267  Uiso   1.00
C34    C     0.72070   0.06910   0.64420   0.01267  Uiso   1.00
C35    C     0.86050   0.05180   0.46650   0.01267  Uiso   1.00
C36    C     0.89910   0.00490   0.46500   0.01267  Uiso   1.00
C37    C     0.37450   0.39590   0.68210   0.01267  Uiso   1.00
C38    C     0.36280   0.44560   0.71820   0.01267  Uiso   1.00
C39    C     0.32730   0.43860   0.76930   0.01267  Uiso   1.00
C40    C     0.41920   0.46350   0.74610   0.01267  Uiso   1.00
C41    C     0.22280   0.56730   0.71690   0.01267  Uiso   1.00
C42    C     0.26530   0.57280   0.67350   0.01267  Uiso   1.00
C43    C     0.25170   0.62780   0.64260   0.01267  Uiso   1.00
C44    C     0.25590   0.53260   0.62910   0.01267  Uiso   1.00
C45    C     0.29520   0.55110   0.41990   0.01267  Uiso   1.00
C46    C     0.25230   0.58790   0.44080   0.01267  Uiso   1.00
C47    C     0.24280   0.64320   0.42210   0.01267  Uiso   1.00
C48    C     0.24940   0.57870   0.50360   0.01267  Uiso   1.00
C49    C     0.16630   0.41820   0.53000   0.01267  Uiso   1.00
C50    C     0.13190   0.44620   0.49240   0.01267  Uiso   1.00
C51    C     0.27100   0.41730   0.38900   0.01267  Uiso   1.00
C52    C     0.22070   0.43090   0.35580   0.01267  Uiso   1.00
C53    C     0.36050   0.44820   0.53350   0.01267  Uiso   1.00
C54    C     0.39910   0.49510   0.53500   0.01267  Uiso   1.00
C55    C     0.12550   0.60410   0.18210   0.01267  Uiso   1.00
C56    C     0.13720   0.55440   0.21820   0.01267  Uiso   1.00
C57    C     0.17270   0.56140   0.26930   0.01267  Uiso   1.00
C58    C     0.08080   0.53650   0.24610   0.01267  Uiso   1.00
C59    C     0.27720   0.43270   0.21690   0.01267  Uiso   1.00
C60    C     0.23470   0.42720   0.17350   0.01267  Uiso   1.00
C61    C     0.24830   0.37220   0.14260   0.01267  Uiso   1.00
C62    C     0.24410   0.46740   0.12910   0.01267  Uiso   1.00
C63    C     0.20480   0.44890   0.91990   0.01267  Uiso   1.00
C64    C     0.24770   0.41210   0.94080   0.01267  Uiso   1.00
C65    C     0.25720   0.35680   0.92210   0.01267  Uiso   1.00
C66    C     0.25060   0.42130   0.00360   0.01267  Uiso   1.00
C67    C     0.33370   0.58180   0.03000   0.01267  Uiso   1.00
C68    C     0.36810   0.55380   0.99240   0.01267  Uiso   1.00
C69    C     0.22900   0.58270   0.88900   0.01267  Uiso   1.00
C70    C     0.27930   0.56910   0.85580   0.01267  Uiso   1.00
C71    C     0.13950   0.55180   0.03350   0.01267  Uiso   1.00
C72    C     0.10090   0.50490   0.03500   0.01267  Uiso   1.00
C73    C     0.81790   0.62550   0.89590   0.01267  Uiso   1.00
C74    C     0.78180   0.63720   0.94560   0.01267  Uiso   1.00
C75    C     0.73070   0.67270   0.93860   0.01267  Uiso   1.00
C76    C     0.75390   0.58080   0.96350   0.01267  Uiso   1.00
C77    C     0.78310   0.77720   0.06730   0.01267  Uiso   1.00
C78    C     0.82650   0.73470   0.07280   0.01267  Uiso   1.00
C79    C     0.85740   0.74830   0.12780   0.01267  Uiso   1.00
C80    C     0.87090   0.74410   0.03260   0.01267  Uiso   1.00
C81    C     0.08010   0.70480   0.05110   0.01267  Uiso   1.00
C82    C     0.05920   0.74770   0.08790   0.01267  Uiso   1.00
C83    C     0.07790   0.75720   0.14320   0.01267  Uiso   1.00
C84    C     0.99640   0.75060   0.07870   0.01267  Uiso   1.00
C85    C     0.97000   0.83370   0.91820   0.01267  Uiso   1.00
C86    C     0.00760   0.86810   0.94620   0.01267  Uiso   1.00
C87    C     0.11100   0.72900   0.91730   0.01267  Uiso   1.00
C88    C     0.14420   0.77930   0.93090   0.01267  Uiso   1.00
C89    C     0.96650   0.63950   0.94820   0.01267  Uiso   1.00
C90    C     0.96500   0.60090   0.99510   0.01267  Uiso   1.00
C91    C     0.31790   0.87450   0.10410   0.01267  Uiso   1.00
C92    C     0.28180   0.86280   0.05440   0.01267  Uiso   1.00
C93    C     0.23070   0.82730   0.06140   0.01267  Uiso   1.00
C94    C     0.25390   0.91920   0.03650   0.01267  Uiso   1.00
C95    C     0.28310   0.72280   0.93270   0.01267  Uiso   1.00
C96    C     0.32650   0.76530   0.92720   0.01267  Uiso   1.00
C97    C     0.35740   0.75170   0.87220   0.01267  Uiso   1.00
C98    C     0.37090   0.75590   0.96740   0.01267  Uiso   1.00
C99    C     0.58010   0.79520   0.94890   0.01267  Uiso   1.00
C100   C     0.55920   0.75230   0.91210   0.01267  Uiso   1.00
C101   C     0.57790   0.74280   0.85680   0.01267  Uiso   1.00
C102   C     0.49640   0.74940   0.92130   0.01267  Uiso   1.00
C103   C     0.47000   0.66630   0.08180   0.01267  Uiso   1.00
C104   C     0.50760   0.63190   0.05380   0.01267  Uiso   1.00
C105   C     0.61100   0.77100   0.08270   0.01267  Uiso   1.00
C106   C     0.64420   0.72070   0.06910   0.01267  Uiso   1.00
C107   C     0.46650   0.86050   0.05180   0.01267  Uiso   1.00
C108   C     0.46500   0.89910   0.00490   0.01267  Uiso   1.00
C109   C     0.68210   0.37450   0.39590   0.01267  Uiso   1.00
C110   C     0.71820   0.36280   0.44560   0.01267  Uiso   1.00
C111   C     0.76930   0.32730   0.43860   0.01267  Uiso   1.00
C112   C     0.74610   0.41920   0.46350   0.01267  Uiso   1.00
C113   C     0.71690   0.22280   0.56730   0.01267  Uiso   1.00
C114   C     0.67350   0.26530   0.57280   0.01267  Uiso   1.00
C115   C     0.64260   0.25170   0.62780   0.01267  Uiso   1.00
C116   C     0.62910   0.25590   0.53260   0.01267  Uiso   1.00
C117   C     0.41990   0.29520   0.55110   0.01267  Uiso   1.00
C118   C     0.44080   0.25230   0.58790   0.01267  Uiso   1.00
C119   C     0.42210   0.24280   0.64320   0.01267  Uiso   1.00
C120   C     0.50360   0.24940   0.57870   0.01267  Uiso   1.00
C121   C     0.53000   0.16630   0.41820   0.01267  Uiso   1.00
C122   C     0.49240   0.13190   0.44620   0.01267  Uiso   1.00
C123   C     0.38900   0.27100   0.41730   0.01267  Uiso   1.00
C124   C     0.35580   0.22070   0.43090   0.01267  Uiso   1.00
C125   C     0.53350   0.36050   0.44820   0.01267  Uiso   1.00
C126   C     0.53500   0.39910   0.49510   0.01267  Uiso   1.00
C127   C     0.18210   0.12550   0.60410   0.01267  Uiso   1.00
C128   C     0.21820   0.13720   0.55440   0.01267  Uiso   1.00
C129   C     0.26930   0.17270   0.56140   0.01267  Uiso   1.00
C130   C     0.24610   0.08080   0.53650   0.01267  Uiso   1.00
C131   C     0.21690   0.27720   0.43270   0.01267  Uiso   1.00
C132   C     0.17350   0.23470   0.42720   0.01267  Uiso   1.00
C133   C     0.14260   0.24830   0.37220   0.01267  Uiso   1.00
C134   C     0.12910   0.24410   0.46740   0.01267  Uiso   1.00
C135   C     0.91990   0.20480   0.44890   0.01267  Uiso   1.00
C136   C     0.94080   0.24770   0.41210   0.01267  Uiso   1.00
C137   C     0.92210   0.25720   0.35680   0.01267  Uiso   1.00
C138   C     0.00360   0.25060   0.42130   0.01267  Uiso   1.00
C139   C     0.03000   0.33370   0.58180   0.01267  Uiso   1.00
C140   C     0.99240   0.36810   0.55380   0.01267  Uiso   1.00
C141   C     0.88900   0.22900   0.58270   0.01267  Uiso   1.00
C142   C     0.85580   0.27930   0.56910   0.01267  Uiso   1.00
C143   C     0.03350   0.13950   0.55180   0.01267  Uiso   1.00
C144   C     0.03500   0.10090   0.50490   0.01267  Uiso   1.00
C145   C     0.89590   0.81790   0.62550   0.01267  Uiso   1.00
C146   C     0.94560   0.78180   0.63720   0.01267  Uiso   1.00
C147   C     0.93860   0.73070   0.67270   0.01267  Uiso   1.00
C148   C     0.96350   0.75390   0.58080   0.01267  Uiso   1.00
C149   C     0.06730   0.78310   0.77720   0.01267  Uiso   1.00
C150   C     0.07280   0.82650   0.73470   0.01267  Uiso   1.00
C151   C     0.12780   0.85740   0.74830   0.01267  Uiso   1.00
C152   C     0.03260   0.87090   0.74410   0.01267  Uiso   1.00
C153   C     0.05110   0.08010   0.70480   0.01267  Uiso   1.00
C154   C     0.08790   0.05920   0.74770   0.01267  Uiso   1.00
C155   C     0.14320   0.07790   0.75720   0.01267  Uiso   1.00
C156   C     0.07870   0.99640   0.75060   0.01267  Uiso   1.00
C157   C     0.91820   0.97000   0.83370   0.01267  Uiso   1.00
C158   C     0.94620   0.00760   0.86810   0.01267  Uiso   1.00
C159   C     0.91730   0.11100   0.72900   0.01267  Uiso   1.00
C160   C     0.93090   0.14420   0.77930   0.01267  Uiso   1.00
C161   C     0.94820   0.96650   0.63950   0.01267  Uiso   1.00
C162   C     0.99510   0.96500   0.60090   0.01267  Uiso   1.00
C163   C     0.10410   0.31790   0.87450   0.01267  Uiso   1.00
C164   C     0.05440   0.28180   0.86280   0.01267  Uiso   1.00
C165   C     0.06140   0.23070   0.82730   0.01267  Uiso   1.00
C166   C     0.03650   0.25390   0.91920   0.01267  Uiso   1.00
C167   C     0.93270   0.28310   0.72280   0.01267  Uiso   1.00
C168   C     0.92720   0.32650   0.76530   0.01267  Uiso   1.00
C169   C     0.87220   0.35740   0.75170   0.01267  Uiso   1.00
C170   C     0.96740   0.37090   0.75590   0.01267  Uiso   1.00
C171   C     0.94890   0.58010   0.79520   0.01267  Uiso   1.00
C172   C     0.91210   0.55920   0.75230   0.01267  Uiso   1.00
C173   C     0.85680   0.57790   0.74280   0.01267  Uiso   1.00
C174   C     0.92130   0.49640   0.74940   0.01267  Uiso   1.00
C175   C     0.08180   0.47000   0.66630   0.01267  Uiso   1.00
C176   C     0.05380   0.50760   0.63190   0.01267  Uiso   1.00
C177   C     0.08270   0.61100   0.77100   0.01267  Uiso   1.00
C178   C     0.06910   0.64420   0.72070   0.01267  Uiso   1.00
C179   C     0.05180   0.46650   0.86050   0.01267  Uiso   1.00
C180   C     0.00490   0.46500   0.89910   0.01267  Uiso   1.00
C181   C     0.39590   0.68210   0.37450   0.01267  Uiso   1.00
C182   C     0.44560   0.71820   0.36280   0.01267  Uiso   1.00
C183   C     0.43860   0.76930   0.32730   0.01267  Uiso   1.00
C184   C     0.46350   0.74610   0.41920   0.01267  Uiso   1.00
C185   C     0.56730   0.71690   0.22280   0.01267  Uiso   1.00
C186   C     0.57280   0.67350   0.26530   0.01267  Uiso   1.00
C187   C     0.62780   0.64260   0.25170   0.01267  Uiso   1.00
C188   C     0.53260   0.62910   0.25590   0.01267  Uiso   1.00
C189   C     0.55110   0.41990   0.29520   0.01267  Uiso   1.00
C190   C     0.58790   0.44080   0.25230   0.01267  Uiso   1.00
C191   C     0.64320   0.42210   0.24280   0.01267  Uiso   1.00
C192   C     0.57870   0.50360   0.24940   0.01267  Uiso   1.00
C193   C     0.41820   0.53000   0.16630   0.01267  Uiso   1.00
C194   C     0.44620   0.49240   0.13190   0.01267  Uiso   1.00
C195   C     0.41730   0.38900   0.27100   0.01267  Uiso   1.00
C196   C     0.43090   0.35580   0.22070   0.01267  Uiso   1.00
C197   C     0.44820   0.53350   0.36050   0.01267  Uiso   1.00
C198   C     0.49510   0.53500   0.39910   0.01267  Uiso   1.00
C199   C     0.60410   0.18210   0.12550   0.01267  Uiso   1.00
C200   C     0.55440   0.21820   0.13720   0.01267  Uiso   1.00
C201   C     0.56140   0.26930   0.17270   0.01267  Uiso   1.00
C202   C     0.53650   0.24610   0.08080   0.01267  Uiso   1.00
C203   C     0.43270   0.21690   0.27720   0.01267  Uiso   1.00
C204   C     0.42720   0.17350   0.23470   0.01267  Uiso   1.00
C205   C     0.37220   0.14260   0.24830   0.01267  Uiso   1.00
C206   C     0.46740   0.12910   0.24410   0.01267  Uiso   1.00
C207   C     0.44890   0.91990   0.20480   0.01267  Uiso   1.00
C208   C     0.41210   0.94080   0.24770   0.01267  Uiso   1.00
C209   C     0.35680   0.92210   0.25720   0.01267  Uiso   1.00
C210   C     0.42130   0.00360   0.25060   0.01267  Uiso   1.00
C211   C     0.58180   0.03000   0.33370   0.01267  Uiso   1.00
C212   C     0.55380   0.99240   0.36810   0.01267  Uiso   1.00
C213   C     0.58270   0.88900   0.22900   0.01267  Uiso   1.00
C214   C     0.56910   0.85580   0.27930   0.01267  Uiso   1.00
C215   C     0.55180   0.03350   0.13950   0.01267  Uiso   1.00
C216   C     0.50490   0.03500   0.10090   0.01267  Uiso   1.00
O1     O     0.67300   0.86930   0.83530   0.01267  Uiso   1.00
O2     O     0.72480   0.91240   0.74350   0.01267  Uiso   1.00
O3     O     0.74820   0.97850   0.85200   0.01267  Uiso   1.00
O4     O     0.79110   0.01930   0.75600   0.01267  Uiso   1.00
O5     O     0.69980   0.05020   0.13730   0.01267  Uiso   1.00
O6     O     0.75220   0.14970   0.13240   0.01267  Uiso   1.00
O7     O     0.79010   0.94230   0.95560   0.01267  Uiso   1.00
O8     O     0.84720   0.87240   0.95040   0.01267  Uiso   1.00
O9     O     0.68400   0.92600   0.13290   0.01267  Uiso   1.00
O10    O     0.73460   0.89260   0.06860   0.01267  Uiso   1.00
O11    O     0.63360   0.91350   0.00460   0.01267  Uiso   1.00
O12    O     0.67280   0.94480   0.92840   0.01267  Uiso   1.00
O13    O     0.65920   0.80920   0.72800   0.01267  Uiso   1.00
O14    O     0.73340   0.83780   0.92620   0.01267  Uiso   1.00
O15    O     0.78450   0.88500   0.83320   0.01267  Uiso   1.00
O16    O     0.77820   0.82370   0.72760   0.01267  Uiso   1.00
O17    O     0.85180   0.20910   0.14470   0.01267  Uiso   1.00
O18    O     0.82700   0.13070   0.33530   0.01267  Uiso   1.00
O19    O     0.77520   0.08760   0.24350   0.01267  Uiso   1.00
O20    O     0.75180   0.02150   0.35200   0.01267  Uiso   1.00
O21    O     0.70890   0.98070   0.25600   0.01267  Uiso   1.00
O22    O     0.80020   0.94980   0.63730   0.01267  Uiso   1.00
O23    O     0.74780   0.85030   0.63240   0.01267  Uiso   1.00
O24    O     0.70990   0.05770   0.45560   0.01267  Uiso   1.00
O25    O     0.65280   0.12760   0.45040   0.01267  Uiso   1.00
O26    O     0.81600   0.07400   0.63290   0.01267  Uiso   1.00
O27    O     0.76540   0.10740   0.56860   0.01267  Uiso   1.00
O28    O     0.86640   0.08650   0.50460   0.01267  Uiso   1.00
O29    O     0.82720   0.05520   0.42840   0.01267  Uiso   1.00
O30    O     0.84080   0.19080   0.22800   0.01267  Uiso   1.00
O31    O     0.76660   0.16220   0.42620   0.01267  Uiso   1.00
O32    O     0.71550   0.11500   0.33320   0.01267  Uiso   1.00
O33    O     0.72180   0.17630   0.22760   0.01267  Uiso   1.00
O34    O     0.64820   0.79090   0.64470   0.01267  Uiso   1.00
O35    O     0.32700   0.36930   0.66470   0.01267  Uiso   1.00
O36    O     0.27520   0.41240   0.75650   0.01267  Uiso   1.00
O37    O     0.25180   0.47850   0.64800   0.01267  Uiso   1.00
O38    O     0.20890   0.51930   0.74400   0.01267  Uiso   1.00
O39    O     0.30020   0.55020   0.36270   0.01267  Uiso   1.00
O40    O     0.24780   0.64970   0.36760   0.01267  Uiso   1.00
O41    O     0.20990   0.44230   0.54440   0.01267  Uiso   1.00
O42    O     0.15280   0.37240   0.54960   0.01267  Uiso   1.00
O43    O     0.31600   0.42600   0.36710   0.01267  Uiso   1.00
O44    O     0.26540   0.39260   0.43140   0.01267  Uiso   1.00
O45    O     0.36640   0.41350   0.49540   0.01267  Uiso   1.00
O46    O     0.32720   0.44480   0.57160   0.01267  Uiso   1.00
O47    O     0.34080   0.30920   0.77200   0.01267  Uiso   1.00
O48    O     0.26660   0.33780   0.57380   0.01267  Uiso   1.00
O49    O     0.21550   0.38500   0.66680   0.01267  Uiso   1.00
O50    O     0.22180   0.32370   0.77240   0.01267  Uiso   1.00
O51    O     0.14820   0.70910   0.35530   0.01267  Uiso   1.00
O52    O     0.17300   0.63070   0.16470   0.01267  Uiso   1.00
O53    O     0.22480   0.58760   0.25650   0.01267  Uiso   1.00
O54    O     0.24820   0.52150   0.14800   0.01267  Uiso   1.00
O55    O     0.29110   0.48070   0.24400   0.01267  Uiso   1.00
O56    O     0.19980   0.44980   0.86270   0.01267  Uiso   1.00
O57    O     0.25220   0.35030   0.86760   0.01267  Uiso   1.00
O58    O     0.29010   0.55770   0.04440   0.01267  Uiso   1.00
O59    O     0.34720   0.62760   0.04960   0.01267  Uiso   1.00
O60    O     0.18400   0.57400   0.86710   0.01267  Uiso   1.00
O61    O     0.23460   0.60740   0.93140   0.01267  Uiso   1.00
O62    O     0.13360   0.58650   0.99540   0.01267  Uiso   1.00
O63    O     0.17280   0.55520   0.07160   0.01267  Uiso   1.00
O64    O     0.15920   0.69080   0.27200   0.01267  Uiso   1.00
O65    O     0.23340   0.66220   0.07380   0.01267  Uiso   1.00
O66    O     0.28450   0.61500   0.16680   0.01267  Uiso   1.00
O67    O     0.27820   0.67630   0.27240   0.01267  Uiso   1.00
O68    O     0.35180   0.29090   0.85530   0.01267  Uiso   1.00
O69    O     0.83530   0.67300   0.86930   0.01267  Uiso   1.00
O70    O     0.74350   0.72480   0.91240   0.01267  Uiso   1.00
O71    O     0.85200   0.74820   0.97850   0.01267  Uiso   1.00
O72    O     0.75600   0.79110   0.01930   0.01267  Uiso   1.00
O73    O     0.13730   0.69980   0.05020   0.01267  Uiso   1.00
O74    O     0.13240   0.75220   0.14970   0.01267  Uiso   1.00
O75    O     0.95560   0.79010   0.94230   0.01267  Uiso   1.00
O76    O     0.95040   0.84720   0.87240   0.01267  Uiso   1.00
O77    O     0.13290   0.68400   0.92600   0.01267  Uiso   1.00
O78    O     0.06860   0.73460   0.89260   0.01267  Uiso   1.00
O79    O     0.00460   0.63360   0.91350   0.01267  Uiso   1.00
O80    O     0.92840   0.67280   0.94480   0.01267  Uiso   1.00
O81    O     0.72800   0.65920   0.80920   0.01267  Uiso   1.00
O82    O     0.92620   0.73340   0.83780   0.01267  Uiso   1.00
O83    O     0.83320   0.78450   0.88500   0.01267  Uiso   1.00
O84    O     0.72760   0.77820   0.82370   0.01267  Uiso   1.00
O85    O     0.14470   0.85180   0.20910   0.01267  Uiso   1.00
O86    O     0.33530   0.82700   0.13070   0.01267  Uiso   1.00
O87    O     0.24350   0.77520   0.08760   0.01267  Uiso   1.00
O88    O     0.35200   0.75180   0.02150   0.01267  Uiso   1.00
O89    O     0.25600   0.70890   0.98070   0.01267  Uiso   1.00
O90    O     0.63730   0.80020   0.94980   0.01267  Uiso   1.00
O91    O     0.63240   0.74780   0.85030   0.01267  Uiso   1.00
O92    O     0.45560   0.70990   0.05770   0.01267  Uiso   1.00
O93    O     0.45040   0.65280   0.12760   0.01267  Uiso   1.00
O94    O     0.63290   0.81600   0.07400   0.01267  Uiso   1.00
O95    O     0.56860   0.76540   0.10740   0.01267  Uiso   1.00
O96    O     0.50460   0.86640   0.08650   0.01267  Uiso   1.00
O97    O     0.42840   0.82720   0.05520   0.01267  Uiso   1.00
O98    O     0.22800   0.84080   0.19080   0.01267  Uiso   1.00
O99    O     0.42620   0.76660   0.16220   0.01267  Uiso   1.00
O100   O     0.33320   0.71550   0.11500   0.01267  Uiso   1.00
O101   O     0.22760   0.72180   0.17630   0.01267  Uiso   1.00
O102   O     0.64470   0.64820   0.79090   0.01267  Uiso   1.00
O103   O     0.66470   0.32700   0.36930   0.01267  Uiso   1.00
O104   O     0.75650   0.27520   0.41240   0.01267  Uiso   1.00
O105   O     0.64800   0.25180   0.47850   0.01267  Uiso   1.00
O106   O     0.74400   0.20890   0.51930   0.01267  Uiso   1.00
O107   O     0.36270   0.30020   0.55020   0.01267  Uiso   1.00
O108   O     0.36760   0.24780   0.64970   0.01267  Uiso   1.00
O109   O     0.54440   0.20990   0.44230   0.01267  Uiso   1.00
O110   O     0.54960   0.15280   0.37240   0.01267  Uiso   1.00
O111   O     0.36710   0.31600   0.42600   0.01267  Uiso   1.00
O112   O     0.43140   0.26540   0.39260   0.01267  Uiso   1.00
O113   O     0.49540   0.36640   0.41350   0.01267  Uiso   1.00
O114   O     0.57160   0.32720   0.44480   0.01267  Uiso   1.00
O115   O     0.77200   0.34080   0.30920   0.01267  Uiso   1.00
O116   O     0.57380   0.26660   0.33780   0.01267  Uiso   1.00
O117   O     0.66680   0.21550   0.38500   0.01267  Uiso   1.00
O118   O     0.77240   0.22180   0.32370   0.01267  Uiso   1.00
O119   O     0.35530   0.14820   0.70910   0.01267  Uiso   1.00
O120   O     0.16470   0.17300   0.63070   0.01267  Uiso   1.00
O121   O     0.25650   0.22480   0.58760   0.01267  Uiso   1.00
O122   O     0.14800   0.24820   0.52150   0.01267  Uiso   1.00
O123   O     0.24400   0.29110   0.48070   0.01267  Uiso   1.00
O124   O     0.86270   0.19980   0.44980   0.01267  Uiso   1.00
O125   O     0.86760   0.25220   0.35030   0.01267  Uiso   1.00
O126   O     0.04440   0.29010   0.55770   0.01267  Uiso   1.00
O127   O     0.04960   0.34720   0.62760   0.01267  Uiso   1.00
O128   O     0.86710   0.18400   0.57400   0.01267  Uiso   1.00
O129   O     0.93140   0.23460   0.60740   0.01267  Uiso   1.00
O130   O     0.99540   0.13360   0.58650   0.01267  Uiso   1.00
O131   O     0.07160   0.17280   0.55520   0.01267  Uiso   1.00
O132   O     0.27200   0.15920   0.69080   0.01267  Uiso   1.00
O133   O     0.07380   0.23340   0.66220   0.01267  Uiso   1.00
O134   O     0.16680   0.28450   0.61500   0.01267  Uiso   1.00
O135   O     0.27240   0.27820   0.67630   0.01267  Uiso   1.00
O136   O     0.85530   0.35180   0.29090   0.01267  Uiso   1.00
O137   O     0.86930   0.83530   0.67300   0.01267  Uiso   1.00
O138   O     0.91240   0.74350   0.72480   0.01267  Uiso   1.00
O139   O     0.97850   0.85200   0.74820   0.01267  Uiso   1.00
O140   O     0.01930   0.75600   0.79110   0.01267  Uiso   1.00
O141   O     0.05020   0.13730   0.69980   0.01267  Uiso   1.00
O142   O     0.14970   0.13240   0.75220   0.01267  Uiso   1.00
O143   O     0.94230   0.95560   0.79010   0.01267  Uiso   1.00
O144   O     0.87240   0.95040   0.84720   0.01267  Uiso   1.00
O145   O     0.92600   0.13290   0.68400   0.01267  Uiso   1.00
O146   O     0.89260   0.06860   0.73460   0.01267  Uiso   1.00
O147   O     0.91350   0.00460   0.63360   0.01267  Uiso   1.00
O148   O     0.94480   0.92840   0.67280   0.01267  Uiso   1.00
O149   O     0.80920   0.72800   0.65920   0.01267  Uiso   1.00
O150   O     0.83780   0.92620   0.73340   0.01267  Uiso   1.00
O151   O     0.88500   0.83320   0.78450   0.01267  Uiso   1.00
O152   O     0.82370   0.72760   0.77820   0.01267  Uiso   1.00
O153   O     0.20910   0.14470   0.85180   0.01267  Uiso   1.00
O154   O     0.13070   0.33530   0.82700   0.01267  Uiso   1.00
O155   O     0.08760   0.24350   0.77520   0.01267  Uiso   1.00
O156   O     0.02150   0.35200   0.75180   0.01267  Uiso   1.00
O157   O     0.98070   0.25600   0.70890   0.01267  Uiso   1.00
O158   O     0.94980   0.63730   0.80020   0.01267  Uiso   1.00
O159   O     0.85030   0.63240   0.74780   0.01267  Uiso   1.00
O160   O     0.05770   0.45560   0.70990   0.01267  Uiso   1.00
O161   O     0.12760   0.45040   0.65280   0.01267  Uiso   1.00
O162   O     0.07400   0.63290   0.81600   0.01267  Uiso   1.00
O163   O     0.10740   0.56860   0.76540   0.01267  Uiso   1.00
O164   O     0.08650   0.50460   0.86640   0.01267  Uiso   1.00
O165   O     0.05520   0.42840   0.82720   0.01267  Uiso   1.00
O166   O     0.19080   0.22800   0.84080   0.01267  Uiso   1.00
O167   O     0.16220   0.42620   0.76660   0.01267  Uiso   1.00
O168   O     0.11500   0.33320   0.71550   0.01267  Uiso   1.00
O169   O     0.17630   0.22760   0.72180   0.01267  Uiso   1.00
O170   O     0.79090   0.64470   0.64820   0.01267  Uiso   1.00
O171   O     0.36930   0.66470   0.32700   0.01267  Uiso   1.00
O172   O     0.41240   0.75650   0.27520   0.01267  Uiso   1.00
O173   O     0.47850   0.64800   0.25180   0.01267  Uiso   1.00
O174   O     0.51930   0.74400   0.20890   0.01267  Uiso   1.00
O175   O     0.55020   0.36270   0.30020   0.01267  Uiso   1.00
O176   O     0.64970   0.36760   0.24780   0.01267  Uiso   1.00
O177   O     0.44230   0.54440   0.20990   0.01267  Uiso   1.00
O178   O     0.37240   0.54960   0.15280   0.01267  Uiso   1.00
O179   O     0.42600   0.36710   0.31600   0.01267  Uiso   1.00
O180   O     0.39260   0.43140   0.26540   0.01267  Uiso   1.00
O181   O     0.41350   0.49540   0.36640   0.01267  Uiso   1.00
O182   O     0.44480   0.57160   0.32720   0.01267  Uiso   1.00
O183   O     0.30920   0.77200   0.34080   0.01267  Uiso   1.00
O184   O     0.33780   0.57380   0.26660   0.01267  Uiso   1.00
O185   O     0.38500   0.66680   0.21550   0.01267  Uiso   1.00
O186   O     0.32370   0.77240   0.22180   0.01267  Uiso   1.00
O187   O     0.70910   0.35530   0.14820   0.01267  Uiso   1.00
O188   O     0.63070   0.16470   0.17300   0.01267  Uiso   1.00
O189   O     0.58760   0.25650   0.22480   0.01267  Uiso   1.00
O190   O     0.52150   0.14800   0.24820   0.01267  Uiso   1.00
O191   O     0.48070   0.24400   0.29110   0.01267  Uiso   1.00
O192   O     0.44980   0.86270   0.19980   0.01267  Uiso   1.00
O193   O     0.35030   0.86760   0.25220   0.01267  Uiso   1.00
O194   O     0.55770   0.04440   0.29010   0.01267  Uiso   1.00
O195   O     0.62760   0.04960   0.34720   0.01267  Uiso   1.00
O196   O     0.57400   0.86710   0.18400   0.01267  Uiso   1.00
O197   O     0.60740   0.93140   0.23460   0.01267  Uiso   1.00
O198   O     0.58650   0.99540   0.13360   0.01267  Uiso   1.00
O199   O     0.55520   0.07160   0.17280   0.01267  Uiso   1.00
O200   O     0.69080   0.27200   0.15920   0.01267  Uiso   1.00
O201   O     0.66220   0.07380   0.23340   0.01267  Uiso   1.00
O202   O     0.61500   0.16680   0.28450   0.01267  Uiso   1.00
O203   O     0.67630   0.27240   0.27820   0.01267  Uiso   1.00
O204   O     0.29090   0.85530   0.35180   0.01267  Uiso   1.00
O205   O     0.78800   0.28800   0.21200   0.01267  Uiso   1.00
O206   O     0.71200   0.71200   0.71200   0.01267  Uiso   1.00
O207   O     0.21200   0.78800   0.28800   0.01267  Uiso   1.00
O208   O     0.28800   0.21200   0.78800   0.01267  Uiso   1.00
