data_GEZRAG_clean
_audit_creation_date              2014-07-02
_audit_creation_method            'Materials Studio'
_symmetry_space_group_name_H-M    'P1'
_symmetry_Int_Tables_number       1
_symmetry_cell_setting            triclinic
loop_
_symmetry_equiv_pos_as_xyz
  x,y,z
_cell_length_a                    26.4529
_cell_length_b                    26.4529
_cell_length_c                    26.4529
_cell_angle_alpha                 90.0000
_cell_angle_beta                  90.0000
_cell_angle_gamma                 90.0000
loop_
_atom_site_label
_atom_site_type_symbol
_atom_site_fract_x
_atom_site_fract_y
_atom_site_fract_z
_atom_site_U_iso_or_equiv
_atom_site_adp_type
_atom_site_occupancy
Co1    Co    0.83851   0.86800   0.77524   0.01267  Uiso   1.00
Co2    Co    0.82465   0.76018   0.73207   0.01267  Uiso   1.00
Co3    Co    0.78948   0.85631   0.66836   0.01267  Uiso   1.00
Co4    Co    0.66149   0.13200   0.27524   0.01267  Uiso   1.00
Co5    Co    0.67535   0.23982   0.23207   0.01267  Uiso   1.00
Co6    Co    0.71052   0.14369   0.16836   0.01267  Uiso   1.00
Co7    Co    0.16149   0.36800   0.72476   0.01267  Uiso   1.00
Co8    Co    0.17535   0.26018   0.76793   0.01267  Uiso   1.00
Co9    Co    0.21052   0.35631   0.83164   0.01267  Uiso   1.00
Co10   Co    0.33851   0.63200   0.22476   0.01267  Uiso   1.00
Co11   Co    0.32465   0.73982   0.26793   0.01267  Uiso   1.00
Co12   Co    0.28948   0.64369   0.33164   0.01267  Uiso   1.00
Co13   Co    0.77524   0.83851   0.86800   0.01267  Uiso   1.00
Co14   Co    0.73207   0.82465   0.76018   0.01267  Uiso   1.00
Co15   Co    0.66836   0.78948   0.85631   0.01267  Uiso   1.00
Co16   Co    0.27524   0.66149   0.13200   0.01267  Uiso   1.00
Co17   Co    0.23207   0.67535   0.23982   0.01267  Uiso   1.00
Co18   Co    0.16836   0.71052   0.14369   0.01267  Uiso   1.00
Co19   Co    0.72476   0.16149   0.36800   0.01267  Uiso   1.00
Co20   Co    0.76793   0.17535   0.26018   0.01267  Uiso   1.00
Co21   Co    0.83164   0.21052   0.35631   0.01267  Uiso   1.00
Co22   Co    0.22476   0.33851   0.63200   0.01267  Uiso   1.00
Co23   Co    0.26793   0.32465   0.73982   0.01267  Uiso   1.00
Co24   Co    0.33164   0.28948   0.64369   0.01267  Uiso   1.00
Co25   Co    0.86800   0.77524   0.83851   0.01267  Uiso   1.00
Co26   Co    0.76018   0.73207   0.82465   0.01267  Uiso   1.00
Co27   Co    0.85631   0.66836   0.78948   0.01267  Uiso   1.00
Co28   Co    0.13200   0.27524   0.66149   0.01267  Uiso   1.00
Co29   Co    0.23982   0.23207   0.67535   0.01267  Uiso   1.00
Co30   Co    0.14369   0.16836   0.71052   0.01267  Uiso   1.00
Co31   Co    0.36800   0.72476   0.16149   0.01267  Uiso   1.00
Co32   Co    0.26018   0.76793   0.17535   0.01267  Uiso   1.00
Co33   Co    0.35631   0.83164   0.21052   0.01267  Uiso   1.00
Co34   Co    0.63200   0.22476   0.33851   0.01267  Uiso   1.00
Co35   Co    0.73982   0.26793   0.32465   0.01267  Uiso   1.00
Co36   Co    0.64369   0.33164   0.28948   0.01267  Uiso   1.00
Co37   Co    0.16149   0.13200   0.22476   0.01267  Uiso   1.00
Co38   Co    0.17535   0.23982   0.26793   0.01267  Uiso   1.00
Co39   Co    0.21052   0.14369   0.33164   0.01267  Uiso   1.00
Co40   Co    0.33851   0.86800   0.72476   0.01267  Uiso   1.00
Co41   Co    0.32465   0.76018   0.76793   0.01267  Uiso   1.00
Co42   Co    0.28948   0.85631   0.83164   0.01267  Uiso   1.00
Co43   Co    0.83851   0.63200   0.27524   0.01267  Uiso   1.00
Co44   Co    0.82465   0.73982   0.23207   0.01267  Uiso   1.00
Co45   Co    0.78948   0.64369   0.16836   0.01267  Uiso   1.00
Co46   Co    0.66149   0.36800   0.77524   0.01267  Uiso   1.00
Co47   Co    0.67535   0.26018   0.73207   0.01267  Uiso   1.00
Co48   Co    0.71052   0.35631   0.66836   0.01267  Uiso   1.00
Co49   Co    0.22476   0.16149   0.13200   0.01267  Uiso   1.00
Co50   Co    0.26793   0.17535   0.23982   0.01267  Uiso   1.00
Co51   Co    0.33164   0.21052   0.14369   0.01267  Uiso   1.00
Co52   Co    0.72476   0.33851   0.86800   0.01267  Uiso   1.00
Co53   Co    0.76793   0.32465   0.76018   0.01267  Uiso   1.00
Co54   Co    0.83164   0.28948   0.85631   0.01267  Uiso   1.00
Co55   Co    0.27524   0.83851   0.63200   0.01267  Uiso   1.00
Co56   Co    0.23207   0.82465   0.73982   0.01267  Uiso   1.00
Co57   Co    0.16836   0.78948   0.64369   0.01267  Uiso   1.00
Co58   Co    0.77524   0.66149   0.36800   0.01267  Uiso   1.00
Co59   Co    0.73207   0.67535   0.26018   0.01267  Uiso   1.00
Co60   Co    0.66836   0.71052   0.35631   0.01267  Uiso   1.00
Co61   Co    0.13200   0.22476   0.16149   0.01267  Uiso   1.00
Co62   Co    0.23982   0.26793   0.17535   0.01267  Uiso   1.00
Co63   Co    0.14369   0.33164   0.21052   0.01267  Uiso   1.00
Co64   Co    0.86800   0.72476   0.33851   0.01267  Uiso   1.00
Co65   Co    0.76018   0.76793   0.32465   0.01267  Uiso   1.00
Co66   Co    0.85631   0.83164   0.28948   0.01267  Uiso   1.00
Co67   Co    0.63200   0.27524   0.83851   0.01267  Uiso   1.00
Co68   Co    0.73982   0.23207   0.82465   0.01267  Uiso   1.00
Co69   Co    0.64369   0.16836   0.78948   0.01267  Uiso   1.00
Co70   Co    0.36800   0.77524   0.66149   0.01267  Uiso   1.00
Co71   Co    0.26018   0.73207   0.67535   0.01267  Uiso   1.00
Co72   Co    0.35631   0.66836   0.71052   0.01267  Uiso   1.00
Co73   Co    0.88223   0.88223   0.88223   0.01267  Uiso   1.00
Co74   Co    0.61777   0.11777   0.38223   0.01267  Uiso   1.00
Co75   Co    0.11777   0.38223   0.61777   0.01267  Uiso   1.00
Co76   Co    0.38223   0.61777   0.11777   0.01267  Uiso   1.00
Co77   Co    0.11777   0.11777   0.11777   0.01267  Uiso   1.00
Co78   Co    0.38223   0.88223   0.61777   0.01267  Uiso   1.00
Co79   Co    0.88223   0.61777   0.38223   0.01267  Uiso   1.00
Co80   Co    0.61777   0.38223   0.88223   0.01267  Uiso   1.00
H1     H     0.06040   0.76110   0.62090   0.01267  Uiso   1.00
H2     H     0.98120   0.76310   0.65450   0.01267  Uiso   1.00
H3     H     0.11170   0.84680   0.72640   0.01267  Uiso   1.00
H4     H     0.03360   0.85270   0.76330   0.01267  Uiso   1.00
H5     H     0.96040   0.73960   0.77670   0.01267  Uiso   1.00
H6     H     0.93840   0.72940   0.72270   0.01267  Uiso   1.00
H7     H     0.91140   0.80710   0.66640   0.01267  Uiso   1.00
H8     H     0.91790   0.86170   0.68830   0.01267  Uiso   1.00
H9     H     0.95370   0.87450   0.77670   0.01267  Uiso   1.00
H10    H     0.97110   0.82810   0.80900   0.01267  Uiso   1.00
H11    H     0.70220   0.76870   0.65830   0.01267  Uiso   1.00
H12    H     0.74940   0.73500   0.64680   0.01267  Uiso   1.00
H13    H     0.68940   0.70820   0.60780   0.01267  Uiso   1.00
H14    H     0.63900   0.65710   0.55720   0.01267  Uiso   1.00
H15    H     0.59840   0.58110   0.67910   0.01267  Uiso   1.00
H16    H     0.64970   0.62860   0.73250   0.01267  Uiso   1.00
H17    H     0.88380   0.65890   0.60060   0.01267  Uiso   1.00
H18    H     0.88140   0.60780   0.63050   0.01267  Uiso   1.00
H19    H     0.83140   0.63670   0.61710   0.01267  Uiso   1.00
H20    H     0.43960   0.23890   0.12090   0.01267  Uiso   1.00
H21    H     0.51880   0.23690   0.15450   0.01267  Uiso   1.00
H22    H     0.38830   0.15320   0.22640   0.01267  Uiso   1.00
H23    H     0.46640   0.14730   0.26330   0.01267  Uiso   1.00
H24    H     0.53960   0.26040   0.27670   0.01267  Uiso   1.00
H25    H     0.56160   0.27060   0.22270   0.01267  Uiso   1.00
H26    H     0.58860   0.19290   0.16640   0.01267  Uiso   1.00
H27    H     0.58210   0.13830   0.18830   0.01267  Uiso   1.00
H28    H     0.54630   0.12550   0.27670   0.01267  Uiso   1.00
H29    H     0.52890   0.17190   0.30900   0.01267  Uiso   1.00
H30    H     0.79780   0.23130   0.15830   0.01267  Uiso   1.00
H31    H     0.75060   0.26500   0.14680   0.01267  Uiso   1.00
H32    H     0.81060   0.29180   0.10780   0.01267  Uiso   1.00
H33    H     0.86100   0.34290   0.05720   0.01267  Uiso   1.00
H34    H     0.90160   0.41890   0.17910   0.01267  Uiso   1.00
H35    H     0.85030   0.37140   0.23250   0.01267  Uiso   1.00
H36    H     0.61620   0.34110   0.10060   0.01267  Uiso   1.00
H37    H     0.61860   0.39220   0.13050   0.01267  Uiso   1.00
H38    H     0.66860   0.36330   0.11710   0.01267  Uiso   1.00
H39    H     0.93960   0.26110   0.87910   0.01267  Uiso   1.00
H40    H     0.01880   0.26310   0.84550   0.01267  Uiso   1.00
H41    H     0.88830   0.34680   0.77360   0.01267  Uiso   1.00
H42    H     0.96640   0.35270   0.73670   0.01267  Uiso   1.00
H43    H     0.03960   0.23960   0.72330   0.01267  Uiso   1.00
H44    H     0.06160   0.22940   0.77730   0.01267  Uiso   1.00
H45    H     0.08860   0.30710   0.83360   0.01267  Uiso   1.00
H46    H     0.08210   0.36170   0.81170   0.01267  Uiso   1.00
H47    H     0.04630   0.37450   0.72330   0.01267  Uiso   1.00
H48    H     0.02890   0.32810   0.69100   0.01267  Uiso   1.00
H49    H     0.29780   0.26870   0.84170   0.01267  Uiso   1.00
H50    H     0.25060   0.23500   0.85320   0.01267  Uiso   1.00
H51    H     0.31060   0.20820   0.89220   0.01267  Uiso   1.00
H52    H     0.36100   0.15710   0.94280   0.01267  Uiso   1.00
H53    H     0.40160   0.08110   0.82090   0.01267  Uiso   1.00
H54    H     0.35030   0.12860   0.76750   0.01267  Uiso   1.00
H55    H     0.11620   0.15890   0.89940   0.01267  Uiso   1.00
H56    H     0.11860   0.10780   0.86950   0.01267  Uiso   1.00
H57    H     0.16860   0.13670   0.88290   0.01267  Uiso   1.00
H58    H     0.56040   0.73890   0.37910   0.01267  Uiso   1.00
H59    H     0.48120   0.73690   0.34550   0.01267  Uiso   1.00
H60    H     0.61170   0.65320   0.27360   0.01267  Uiso   1.00
H61    H     0.53360   0.64730   0.23670   0.01267  Uiso   1.00
H62    H     0.46040   0.76040   0.22330   0.01267  Uiso   1.00
H63    H     0.43840   0.77060   0.27730   0.01267  Uiso   1.00
H64    H     0.41140   0.69290   0.33360   0.01267  Uiso   1.00
H65    H     0.41790   0.63830   0.31170   0.01267  Uiso   1.00
H66    H     0.45370   0.62550   0.22330   0.01267  Uiso   1.00
H67    H     0.47110   0.67190   0.19100   0.01267  Uiso   1.00
H68    H     0.20220   0.73130   0.34170   0.01267  Uiso   1.00
H69    H     0.24940   0.76500   0.35320   0.01267  Uiso   1.00
H70    H     0.18940   0.79180   0.39220   0.01267  Uiso   1.00
H71    H     0.13900   0.84290   0.44280   0.01267  Uiso   1.00
H72    H     0.09840   0.91890   0.32090   0.01267  Uiso   1.00
H73    H     0.14970   0.87140   0.26750   0.01267  Uiso   1.00
H74    H     0.38380   0.84110   0.39940   0.01267  Uiso   1.00
H75    H     0.38140   0.89220   0.36950   0.01267  Uiso   1.00
H76    H     0.33140   0.86330   0.38290   0.01267  Uiso   1.00
H77    H     0.62090   0.06040   0.76110   0.01267  Uiso   1.00
H78    H     0.65450   0.98120   0.76310   0.01267  Uiso   1.00
H79    H     0.72640   0.11170   0.84680   0.01267  Uiso   1.00
H80    H     0.76330   0.03360   0.85270   0.01267  Uiso   1.00
H81    H     0.77670   0.96040   0.73960   0.01267  Uiso   1.00
H82    H     0.72270   0.93840   0.72940   0.01267  Uiso   1.00
H83    H     0.66640   0.91140   0.80710   0.01267  Uiso   1.00
H84    H     0.68830   0.91790   0.86170   0.01267  Uiso   1.00
H85    H     0.77670   0.95370   0.87450   0.01267  Uiso   1.00
H86    H     0.80900   0.97110   0.82810   0.01267  Uiso   1.00
H87    H     0.65830   0.70220   0.76870   0.01267  Uiso   1.00
H88    H     0.64680   0.74940   0.73500   0.01267  Uiso   1.00
H89    H     0.60780   0.68940   0.70820   0.01267  Uiso   1.00
H90    H     0.55720   0.63900   0.65710   0.01267  Uiso   1.00
H91    H     0.67910   0.59840   0.58110   0.01267  Uiso   1.00
H92    H     0.73250   0.64970   0.62860   0.01267  Uiso   1.00
H93    H     0.60060   0.88380   0.65890   0.01267  Uiso   1.00
H94    H     0.63050   0.88140   0.60780   0.01267  Uiso   1.00
H95    H     0.61710   0.83140   0.63670   0.01267  Uiso   1.00
H96    H     0.12090   0.43960   0.23890   0.01267  Uiso   1.00
H97    H     0.15450   0.51880   0.23690   0.01267  Uiso   1.00
H98    H     0.22640   0.38830   0.15320   0.01267  Uiso   1.00
H99    H     0.26330   0.46640   0.14730   0.01267  Uiso   1.00
H100   H     0.27670   0.53960   0.26040   0.01267  Uiso   1.00
H101   H     0.22270   0.56160   0.27060   0.01267  Uiso   1.00
H102   H     0.16640   0.58860   0.19290   0.01267  Uiso   1.00
H103   H     0.18830   0.58210   0.13830   0.01267  Uiso   1.00
H104   H     0.27670   0.54630   0.12550   0.01267  Uiso   1.00
H105   H     0.30900   0.52890   0.17190   0.01267  Uiso   1.00
H106   H     0.15830   0.79780   0.23130   0.01267  Uiso   1.00
H107   H     0.14680   0.75060   0.26500   0.01267  Uiso   1.00
H108   H     0.10780   0.81060   0.29180   0.01267  Uiso   1.00
H109   H     0.05720   0.86100   0.34290   0.01267  Uiso   1.00
H110   H     0.17910   0.90160   0.41890   0.01267  Uiso   1.00
H111   H     0.23250   0.85030   0.37140   0.01267  Uiso   1.00
H112   H     0.10060   0.61620   0.34110   0.01267  Uiso   1.00
H113   H     0.13050   0.61860   0.39220   0.01267  Uiso   1.00
H114   H     0.11710   0.66860   0.36330   0.01267  Uiso   1.00
H115   H     0.87910   0.93960   0.26110   0.01267  Uiso   1.00
H116   H     0.84550   0.01880   0.26310   0.01267  Uiso   1.00
H117   H     0.77360   0.88830   0.34680   0.01267  Uiso   1.00
H118   H     0.73670   0.96640   0.35270   0.01267  Uiso   1.00
H119   H     0.72330   0.03960   0.23960   0.01267  Uiso   1.00
H120   H     0.77730   0.06160   0.22940   0.01267  Uiso   1.00
H121   H     0.83360   0.08860   0.30710   0.01267  Uiso   1.00
H122   H     0.81170   0.08210   0.36170   0.01267  Uiso   1.00
H123   H     0.72330   0.04630   0.37450   0.01267  Uiso   1.00
H124   H     0.69100   0.02890   0.32810   0.01267  Uiso   1.00
H125   H     0.84170   0.29780   0.26870   0.01267  Uiso   1.00
H126   H     0.85320   0.25060   0.23500   0.01267  Uiso   1.00
H127   H     0.89220   0.31060   0.20820   0.01267  Uiso   1.00
H128   H     0.94280   0.36100   0.15710   0.01267  Uiso   1.00
H129   H     0.82090   0.40160   0.08110   0.01267  Uiso   1.00
H130   H     0.76750   0.35030   0.12860   0.01267  Uiso   1.00
H131   H     0.89940   0.11620   0.15890   0.01267  Uiso   1.00
H132   H     0.86950   0.11860   0.10780   0.01267  Uiso   1.00
H133   H     0.88290   0.16860   0.13670   0.01267  Uiso   1.00
H134   H     0.37910   0.56040   0.73890   0.01267  Uiso   1.00
H135   H     0.34550   0.48120   0.73690   0.01267  Uiso   1.00
H136   H     0.27360   0.61170   0.65320   0.01267  Uiso   1.00
H137   H     0.23670   0.53360   0.64730   0.01267  Uiso   1.00
H138   H     0.22330   0.46040   0.76040   0.01267  Uiso   1.00
H139   H     0.27730   0.43840   0.77060   0.01267  Uiso   1.00
H140   H     0.33360   0.41140   0.69290   0.01267  Uiso   1.00
H141   H     0.31170   0.41790   0.63830   0.01267  Uiso   1.00
H142   H     0.22330   0.45370   0.62550   0.01267  Uiso   1.00
H143   H     0.19100   0.47110   0.67190   0.01267  Uiso   1.00
H144   H     0.34170   0.20220   0.73130   0.01267  Uiso   1.00
H145   H     0.35320   0.24940   0.76500   0.01267  Uiso   1.00
H146   H     0.39220   0.18940   0.79180   0.01267  Uiso   1.00
H147   H     0.44280   0.13900   0.84290   0.01267  Uiso   1.00
H148   H     0.32090   0.09840   0.91890   0.01267  Uiso   1.00
H149   H     0.26750   0.14970   0.87140   0.01267  Uiso   1.00
H150   H     0.39940   0.38380   0.84110   0.01267  Uiso   1.00
H151   H     0.36950   0.38140   0.89220   0.01267  Uiso   1.00
H152   H     0.38290   0.33140   0.86330   0.01267  Uiso   1.00
H153   H     0.76110   0.62090   0.06040   0.01267  Uiso   1.00
H154   H     0.76310   0.65450   0.98120   0.01267  Uiso   1.00
H155   H     0.84680   0.72640   0.11170   0.01267  Uiso   1.00
H156   H     0.85270   0.76330   0.03360   0.01267  Uiso   1.00
H157   H     0.73960   0.77670   0.96040   0.01267  Uiso   1.00
H158   H     0.72940   0.72270   0.93840   0.01267  Uiso   1.00
H159   H     0.80710   0.66640   0.91140   0.01267  Uiso   1.00
H160   H     0.86170   0.68830   0.91790   0.01267  Uiso   1.00
H161   H     0.87450   0.77670   0.95370   0.01267  Uiso   1.00
H162   H     0.82810   0.80900   0.97110   0.01267  Uiso   1.00
H163   H     0.76870   0.65830   0.70220   0.01267  Uiso   1.00
H164   H     0.73500   0.64680   0.74940   0.01267  Uiso   1.00
H165   H     0.70820   0.60780   0.68940   0.01267  Uiso   1.00
H166   H     0.65710   0.55720   0.63900   0.01267  Uiso   1.00
H167   H     0.58110   0.67910   0.59840   0.01267  Uiso   1.00
H168   H     0.62860   0.73250   0.64970   0.01267  Uiso   1.00
H169   H     0.65890   0.60060   0.88380   0.01267  Uiso   1.00
H170   H     0.60780   0.63050   0.88140   0.01267  Uiso   1.00
H171   H     0.63670   0.61710   0.83140   0.01267  Uiso   1.00
H172   H     0.23890   0.12090   0.43960   0.01267  Uiso   1.00
H173   H     0.23690   0.15450   0.51880   0.01267  Uiso   1.00
H174   H     0.15320   0.22640   0.38830   0.01267  Uiso   1.00
H175   H     0.14730   0.26330   0.46640   0.01267  Uiso   1.00
H176   H     0.26040   0.27670   0.53960   0.01267  Uiso   1.00
H177   H     0.27060   0.22270   0.56160   0.01267  Uiso   1.00
H178   H     0.19290   0.16640   0.58860   0.01267  Uiso   1.00
H179   H     0.13830   0.18830   0.58210   0.01267  Uiso   1.00
H180   H     0.12550   0.27670   0.54630   0.01267  Uiso   1.00
H181   H     0.17190   0.30900   0.52890   0.01267  Uiso   1.00
H182   H     0.23130   0.15830   0.79780   0.01267  Uiso   1.00
H183   H     0.26500   0.14680   0.75060   0.01267  Uiso   1.00
H184   H     0.29180   0.10780   0.81060   0.01267  Uiso   1.00
H185   H     0.34290   0.05720   0.86100   0.01267  Uiso   1.00
H186   H     0.41890   0.17910   0.90160   0.01267  Uiso   1.00
H187   H     0.37140   0.23250   0.85030   0.01267  Uiso   1.00
H188   H     0.34110   0.10060   0.61620   0.01267  Uiso   1.00
H189   H     0.39220   0.13050   0.61860   0.01267  Uiso   1.00
H190   H     0.36330   0.11710   0.66860   0.01267  Uiso   1.00
H191   H     0.26110   0.87910   0.93960   0.01267  Uiso   1.00
H192   H     0.26310   0.84550   0.01880   0.01267  Uiso   1.00
H193   H     0.34680   0.77360   0.88830   0.01267  Uiso   1.00
H194   H     0.35270   0.73670   0.96640   0.01267  Uiso   1.00
H195   H     0.23960   0.72330   0.03960   0.01267  Uiso   1.00
H196   H     0.22940   0.77730   0.06160   0.01267  Uiso   1.00
H197   H     0.30710   0.83360   0.08860   0.01267  Uiso   1.00
H198   H     0.36170   0.81170   0.08210   0.01267  Uiso   1.00
H199   H     0.37450   0.72330   0.04630   0.01267  Uiso   1.00
H200   H     0.32810   0.69100   0.02890   0.01267  Uiso   1.00
H201   H     0.26870   0.84170   0.29780   0.01267  Uiso   1.00
H202   H     0.23500   0.85320   0.25060   0.01267  Uiso   1.00
H203   H     0.20820   0.89220   0.31060   0.01267  Uiso   1.00
H204   H     0.15710   0.94280   0.36100   0.01267  Uiso   1.00
H205   H     0.08110   0.82090   0.40160   0.01267  Uiso   1.00
H206   H     0.12860   0.76750   0.35030   0.01267  Uiso   1.00
H207   H     0.15890   0.89940   0.11620   0.01267  Uiso   1.00
H208   H     0.10780   0.86950   0.11860   0.01267  Uiso   1.00
H209   H     0.13670   0.88290   0.16860   0.01267  Uiso   1.00
H210   H     0.73890   0.37910   0.56040   0.01267  Uiso   1.00
H211   H     0.73690   0.34550   0.48120   0.01267  Uiso   1.00
H212   H     0.65320   0.27360   0.61170   0.01267  Uiso   1.00
H213   H     0.64730   0.23670   0.53360   0.01267  Uiso   1.00
H214   H     0.76040   0.22330   0.46040   0.01267  Uiso   1.00
H215   H     0.77060   0.27730   0.43840   0.01267  Uiso   1.00
H216   H     0.69290   0.33360   0.41140   0.01267  Uiso   1.00
H217   H     0.63830   0.31170   0.41790   0.01267  Uiso   1.00
H218   H     0.62550   0.22330   0.45370   0.01267  Uiso   1.00
H219   H     0.67190   0.19100   0.47110   0.01267  Uiso   1.00
H220   H     0.73130   0.34170   0.20220   0.01267  Uiso   1.00
H221   H     0.76500   0.35320   0.24940   0.01267  Uiso   1.00
H222   H     0.79180   0.39220   0.18940   0.01267  Uiso   1.00
H223   H     0.84290   0.44280   0.13900   0.01267  Uiso   1.00
H224   H     0.91890   0.32090   0.09840   0.01267  Uiso   1.00
H225   H     0.87140   0.26750   0.14970   0.01267  Uiso   1.00
H226   H     0.84110   0.39940   0.38380   0.01267  Uiso   1.00
H227   H     0.89220   0.36950   0.38140   0.01267  Uiso   1.00
H228   H     0.86330   0.38290   0.33140   0.01267  Uiso   1.00
H229   H     0.93960   0.23890   0.37910   0.01267  Uiso   1.00
H230   H     0.01880   0.23690   0.34550   0.01267  Uiso   1.00
H231   H     0.88830   0.15320   0.27360   0.01267  Uiso   1.00
H232   H     0.96640   0.14730   0.23670   0.01267  Uiso   1.00
H233   H     0.03960   0.26040   0.22330   0.01267  Uiso   1.00
H234   H     0.06160   0.27060   0.27730   0.01267  Uiso   1.00
H235   H     0.08860   0.19290   0.33360   0.01267  Uiso   1.00
H236   H     0.08210   0.13830   0.31170   0.01267  Uiso   1.00
H237   H     0.04630   0.12550   0.22330   0.01267  Uiso   1.00
H238   H     0.02890   0.17190   0.19100   0.01267  Uiso   1.00
H239   H     0.29780   0.23130   0.34170   0.01267  Uiso   1.00
H240   H     0.25060   0.26500   0.35320   0.01267  Uiso   1.00
H241   H     0.31060   0.29180   0.39220   0.01267  Uiso   1.00
H242   H     0.36100   0.34290   0.44280   0.01267  Uiso   1.00
H243   H     0.40160   0.41890   0.32090   0.01267  Uiso   1.00
H244   H     0.35030   0.37140   0.26750   0.01267  Uiso   1.00
H245   H     0.11620   0.34110   0.39940   0.01267  Uiso   1.00
H246   H     0.11860   0.39220   0.36950   0.01267  Uiso   1.00
H247   H     0.16860   0.36330   0.38290   0.01267  Uiso   1.00
H248   H     0.56040   0.76110   0.87910   0.01267  Uiso   1.00
H249   H     0.48120   0.76310   0.84550   0.01267  Uiso   1.00
H250   H     0.61170   0.84680   0.77360   0.01267  Uiso   1.00
H251   H     0.53360   0.85270   0.73670   0.01267  Uiso   1.00
H252   H     0.46040   0.73960   0.72330   0.01267  Uiso   1.00
H253   H     0.43840   0.72940   0.77730   0.01267  Uiso   1.00
H254   H     0.41140   0.80710   0.83360   0.01267  Uiso   1.00
H255   H     0.41790   0.86170   0.81170   0.01267  Uiso   1.00
H256   H     0.45370   0.87450   0.72330   0.01267  Uiso   1.00
H257   H     0.47110   0.82810   0.69100   0.01267  Uiso   1.00
H258   H     0.20220   0.76870   0.84170   0.01267  Uiso   1.00
H259   H     0.24940   0.73500   0.85320   0.01267  Uiso   1.00
H260   H     0.18940   0.70820   0.89220   0.01267  Uiso   1.00
H261   H     0.13900   0.65710   0.94280   0.01267  Uiso   1.00
H262   H     0.09840   0.58110   0.82090   0.01267  Uiso   1.00
H263   H     0.14970   0.62860   0.76750   0.01267  Uiso   1.00
H264   H     0.38380   0.65890   0.89940   0.01267  Uiso   1.00
H265   H     0.38140   0.60780   0.86950   0.01267  Uiso   1.00
H266   H     0.33140   0.63670   0.88290   0.01267  Uiso   1.00
H267   H     0.06040   0.73890   0.12090   0.01267  Uiso   1.00
H268   H     0.98120   0.73690   0.15450   0.01267  Uiso   1.00
H269   H     0.11170   0.65320   0.22640   0.01267  Uiso   1.00
H270   H     0.03360   0.64730   0.26330   0.01267  Uiso   1.00
H271   H     0.96040   0.76040   0.27670   0.01267  Uiso   1.00
H272   H     0.93840   0.77060   0.22270   0.01267  Uiso   1.00
H273   H     0.91140   0.69290   0.16640   0.01267  Uiso   1.00
H274   H     0.91790   0.63830   0.18830   0.01267  Uiso   1.00
H275   H     0.95370   0.62550   0.27670   0.01267  Uiso   1.00
H276   H     0.97110   0.67190   0.30900   0.01267  Uiso   1.00
H277   H     0.70220   0.73130   0.15830   0.01267  Uiso   1.00
H278   H     0.74940   0.76500   0.14680   0.01267  Uiso   1.00
H279   H     0.68940   0.79180   0.10780   0.01267  Uiso   1.00
H280   H     0.63900   0.84290   0.05720   0.01267  Uiso   1.00
H281   H     0.59840   0.91890   0.17910   0.01267  Uiso   1.00
H282   H     0.64970   0.87140   0.23250   0.01267  Uiso   1.00
H283   H     0.88380   0.84110   0.10060   0.01267  Uiso   1.00
H284   H     0.88140   0.89220   0.13050   0.01267  Uiso   1.00
H285   H     0.83140   0.86330   0.11710   0.01267  Uiso   1.00
H286   H     0.43960   0.26110   0.62090   0.01267  Uiso   1.00
H287   H     0.51880   0.26310   0.65450   0.01267  Uiso   1.00
H288   H     0.38830   0.34680   0.72640   0.01267  Uiso   1.00
H289   H     0.46640   0.35270   0.76330   0.01267  Uiso   1.00
H290   H     0.53960   0.23960   0.77670   0.01267  Uiso   1.00
H291   H     0.56160   0.22940   0.72270   0.01267  Uiso   1.00
H292   H     0.58860   0.30710   0.66640   0.01267  Uiso   1.00
H293   H     0.58210   0.36170   0.68830   0.01267  Uiso   1.00
H294   H     0.54630   0.37450   0.77670   0.01267  Uiso   1.00
H295   H     0.52890   0.32810   0.80900   0.01267  Uiso   1.00
H296   H     0.79780   0.26870   0.65830   0.01267  Uiso   1.00
H297   H     0.75060   0.23500   0.64680   0.01267  Uiso   1.00
H298   H     0.81060   0.20820   0.60780   0.01267  Uiso   1.00
H299   H     0.86100   0.15710   0.55720   0.01267  Uiso   1.00
H300   H     0.90160   0.08110   0.67910   0.01267  Uiso   1.00
H301   H     0.85030   0.12860   0.73250   0.01267  Uiso   1.00
H302   H     0.61620   0.15890   0.60060   0.01267  Uiso   1.00
H303   H     0.61860   0.10780   0.63050   0.01267  Uiso   1.00
H304   H     0.66860   0.13670   0.61710   0.01267  Uiso   1.00
H305   H     0.37910   0.93960   0.23890   0.01267  Uiso   1.00
H306   H     0.34550   0.01880   0.23690   0.01267  Uiso   1.00
H307   H     0.27360   0.88830   0.15320   0.01267  Uiso   1.00
H308   H     0.23670   0.96640   0.14730   0.01267  Uiso   1.00
H309   H     0.22330   0.03960   0.26040   0.01267  Uiso   1.00
H310   H     0.27730   0.06160   0.27060   0.01267  Uiso   1.00
H311   H     0.33360   0.08860   0.19290   0.01267  Uiso   1.00
H312   H     0.31170   0.08210   0.13830   0.01267  Uiso   1.00
H313   H     0.22330   0.04630   0.12550   0.01267  Uiso   1.00
H314   H     0.19100   0.02890   0.17190   0.01267  Uiso   1.00
H315   H     0.34170   0.29780   0.23130   0.01267  Uiso   1.00
H316   H     0.35320   0.25060   0.26500   0.01267  Uiso   1.00
H317   H     0.39220   0.31060   0.29180   0.01267  Uiso   1.00
H318   H     0.44280   0.36100   0.34290   0.01267  Uiso   1.00
H319   H     0.32090   0.40160   0.41890   0.01267  Uiso   1.00
H320   H     0.26750   0.35030   0.37140   0.01267  Uiso   1.00
H321   H     0.39940   0.11620   0.34110   0.01267  Uiso   1.00
H322   H     0.36950   0.11860   0.39220   0.01267  Uiso   1.00
H323   H     0.38290   0.16860   0.36330   0.01267  Uiso   1.00
H324   H     0.87910   0.56040   0.76110   0.01267  Uiso   1.00
H325   H     0.84550   0.48120   0.76310   0.01267  Uiso   1.00
H326   H     0.77360   0.61170   0.84680   0.01267  Uiso   1.00
H327   H     0.73670   0.53360   0.85270   0.01267  Uiso   1.00
H328   H     0.72330   0.46040   0.73960   0.01267  Uiso   1.00
H329   H     0.77730   0.43840   0.72940   0.01267  Uiso   1.00
H330   H     0.83360   0.41140   0.80710   0.01267  Uiso   1.00
H331   H     0.81170   0.41790   0.86170   0.01267  Uiso   1.00
H332   H     0.72330   0.45370   0.87450   0.01267  Uiso   1.00
H333   H     0.69100   0.47110   0.82810   0.01267  Uiso   1.00
H334   H     0.84170   0.20220   0.76870   0.01267  Uiso   1.00
H335   H     0.85320   0.24940   0.73500   0.01267  Uiso   1.00
H336   H     0.89220   0.18940   0.70820   0.01267  Uiso   1.00
H337   H     0.94280   0.13900   0.65710   0.01267  Uiso   1.00
H338   H     0.82090   0.09840   0.58110   0.01267  Uiso   1.00
H339   H     0.76750   0.14970   0.62860   0.01267  Uiso   1.00
H340   H     0.89940   0.38380   0.65890   0.01267  Uiso   1.00
H341   H     0.86950   0.38140   0.60780   0.01267  Uiso   1.00
H342   H     0.88290   0.33140   0.63670   0.01267  Uiso   1.00
H343   H     0.12090   0.06040   0.73890   0.01267  Uiso   1.00
H344   H     0.15450   0.98120   0.73690   0.01267  Uiso   1.00
H345   H     0.22640   0.11170   0.65320   0.01267  Uiso   1.00
H346   H     0.26330   0.03360   0.64730   0.01267  Uiso   1.00
H347   H     0.27670   0.96040   0.76040   0.01267  Uiso   1.00
H348   H     0.22270   0.93840   0.77060   0.01267  Uiso   1.00
H349   H     0.16640   0.91140   0.69290   0.01267  Uiso   1.00
H350   H     0.18830   0.91790   0.63830   0.01267  Uiso   1.00
H351   H     0.27670   0.95370   0.62550   0.01267  Uiso   1.00
H352   H     0.30900   0.97110   0.67190   0.01267  Uiso   1.00
H353   H     0.15830   0.70220   0.73130   0.01267  Uiso   1.00
H354   H     0.14680   0.74940   0.76500   0.01267  Uiso   1.00
H355   H     0.10780   0.68940   0.79180   0.01267  Uiso   1.00
H356   H     0.05720   0.63900   0.84290   0.01267  Uiso   1.00
H357   H     0.17910   0.59840   0.91890   0.01267  Uiso   1.00
H358   H     0.23250   0.64970   0.87140   0.01267  Uiso   1.00
H359   H     0.10060   0.88380   0.84110   0.01267  Uiso   1.00
H360   H     0.13050   0.88140   0.89220   0.01267  Uiso   1.00
H361   H     0.11710   0.83140   0.86330   0.01267  Uiso   1.00
H362   H     0.62090   0.43960   0.26110   0.01267  Uiso   1.00
H363   H     0.65450   0.51880   0.26310   0.01267  Uiso   1.00
H364   H     0.72640   0.38830   0.34680   0.01267  Uiso   1.00
H365   H     0.76330   0.46640   0.35270   0.01267  Uiso   1.00
H366   H     0.77670   0.53960   0.23960   0.01267  Uiso   1.00
H367   H     0.72270   0.56160   0.22940   0.01267  Uiso   1.00
H368   H     0.66640   0.58860   0.30710   0.01267  Uiso   1.00
H369   H     0.68830   0.58210   0.36170   0.01267  Uiso   1.00
H370   H     0.77670   0.54630   0.37450   0.01267  Uiso   1.00
H371   H     0.80900   0.52890   0.32810   0.01267  Uiso   1.00
H372   H     0.65830   0.79780   0.26870   0.01267  Uiso   1.00
H373   H     0.64680   0.75060   0.23500   0.01267  Uiso   1.00
H374   H     0.60780   0.81060   0.20820   0.01267  Uiso   1.00
H375   H     0.55720   0.86100   0.15710   0.01267  Uiso   1.00
H376   H     0.67910   0.90160   0.08110   0.01267  Uiso   1.00
H377   H     0.73250   0.85030   0.12860   0.01267  Uiso   1.00
H378   H     0.60060   0.61620   0.15890   0.01267  Uiso   1.00
H379   H     0.63050   0.61860   0.10780   0.01267  Uiso   1.00
H380   H     0.61710   0.66860   0.13670   0.01267  Uiso   1.00
H381   H     0.23890   0.37910   0.93960   0.01267  Uiso   1.00
H382   H     0.23690   0.34550   0.01880   0.01267  Uiso   1.00
H383   H     0.15320   0.27360   0.88830   0.01267  Uiso   1.00
H384   H     0.14730   0.23670   0.96640   0.01267  Uiso   1.00
H385   H     0.26040   0.22330   0.03960   0.01267  Uiso   1.00
H386   H     0.27060   0.27730   0.06160   0.01267  Uiso   1.00
H387   H     0.19290   0.33360   0.08860   0.01267  Uiso   1.00
H388   H     0.13830   0.31170   0.08210   0.01267  Uiso   1.00
H389   H     0.12550   0.22330   0.04630   0.01267  Uiso   1.00
H390   H     0.17190   0.19100   0.02890   0.01267  Uiso   1.00
H391   H     0.23130   0.34170   0.29780   0.01267  Uiso   1.00
H392   H     0.26500   0.35320   0.25060   0.01267  Uiso   1.00
H393   H     0.29180   0.39220   0.31060   0.01267  Uiso   1.00
H394   H     0.34290   0.44280   0.36100   0.01267  Uiso   1.00
H395   H     0.41890   0.32090   0.40160   0.01267  Uiso   1.00
H396   H     0.37140   0.26750   0.35030   0.01267  Uiso   1.00
H397   H     0.34110   0.39940   0.11620   0.01267  Uiso   1.00
H398   H     0.39220   0.36950   0.11860   0.01267  Uiso   1.00
H399   H     0.36330   0.38290   0.16860   0.01267  Uiso   1.00
H400   H     0.76110   0.87910   0.56040   0.01267  Uiso   1.00
H401   H     0.76310   0.84550   0.48120   0.01267  Uiso   1.00
H402   H     0.84680   0.77360   0.61170   0.01267  Uiso   1.00
H403   H     0.85270   0.73670   0.53360   0.01267  Uiso   1.00
H404   H     0.73960   0.72330   0.46040   0.01267  Uiso   1.00
H405   H     0.72940   0.77730   0.43840   0.01267  Uiso   1.00
H406   H     0.80710   0.83360   0.41140   0.01267  Uiso   1.00
H407   H     0.86170   0.81170   0.41790   0.01267  Uiso   1.00
H408   H     0.87450   0.72330   0.45370   0.01267  Uiso   1.00
H409   H     0.82810   0.69100   0.47110   0.01267  Uiso   1.00
H410   H     0.76870   0.84170   0.20220   0.01267  Uiso   1.00
H411   H     0.73500   0.85320   0.24940   0.01267  Uiso   1.00
H412   H     0.70820   0.89220   0.18940   0.01267  Uiso   1.00
H413   H     0.65710   0.94280   0.13900   0.01267  Uiso   1.00
H414   H     0.58110   0.82090   0.09840   0.01267  Uiso   1.00
H415   H     0.62860   0.76750   0.14970   0.01267  Uiso   1.00
H416   H     0.65890   0.89940   0.38380   0.01267  Uiso   1.00
H417   H     0.60780   0.86950   0.38140   0.01267  Uiso   1.00
H418   H     0.63670   0.88290   0.33140   0.01267  Uiso   1.00
H419   H     0.73890   0.12090   0.06040   0.01267  Uiso   1.00
H420   H     0.73690   0.15450   0.98120   0.01267  Uiso   1.00
H421   H     0.65320   0.22640   0.11170   0.01267  Uiso   1.00
H422   H     0.64730   0.26330   0.03360   0.01267  Uiso   1.00
H423   H     0.76040   0.27670   0.96040   0.01267  Uiso   1.00
H424   H     0.77060   0.22270   0.93840   0.01267  Uiso   1.00
H425   H     0.69290   0.16640   0.91140   0.01267  Uiso   1.00
H426   H     0.63830   0.18830   0.91790   0.01267  Uiso   1.00
H427   H     0.62550   0.27670   0.95370   0.01267  Uiso   1.00
H428   H     0.67190   0.30900   0.97110   0.01267  Uiso   1.00
H429   H     0.73130   0.15830   0.70220   0.01267  Uiso   1.00
H430   H     0.76500   0.14680   0.74940   0.01267  Uiso   1.00
H431   H     0.79180   0.10780   0.68940   0.01267  Uiso   1.00
H432   H     0.84290   0.05720   0.63900   0.01267  Uiso   1.00
H433   H     0.91890   0.17910   0.59840   0.01267  Uiso   1.00
H434   H     0.87140   0.23250   0.64970   0.01267  Uiso   1.00
H435   H     0.84110   0.10060   0.88380   0.01267  Uiso   1.00
H436   H     0.89220   0.13050   0.88140   0.01267  Uiso   1.00
H437   H     0.86330   0.11710   0.83140   0.01267  Uiso   1.00
H438   H     0.26110   0.62090   0.43960   0.01267  Uiso   1.00
H439   H     0.26310   0.65450   0.51880   0.01267  Uiso   1.00
H440   H     0.34680   0.72640   0.38830   0.01267  Uiso   1.00
H441   H     0.35270   0.76330   0.46640   0.01267  Uiso   1.00
H442   H     0.23960   0.77670   0.53960   0.01267  Uiso   1.00
H443   H     0.22940   0.72270   0.56160   0.01267  Uiso   1.00
H444   H     0.30710   0.66640   0.58860   0.01267  Uiso   1.00
H445   H     0.36170   0.68830   0.58210   0.01267  Uiso   1.00
H446   H     0.37450   0.77670   0.54630   0.01267  Uiso   1.00
H447   H     0.32810   0.80900   0.52890   0.01267  Uiso   1.00
H448   H     0.26870   0.65830   0.79780   0.01267  Uiso   1.00
H449   H     0.23500   0.64680   0.75060   0.01267  Uiso   1.00
H450   H     0.20820   0.60780   0.81060   0.01267  Uiso   1.00
H451   H     0.15710   0.55720   0.86100   0.01267  Uiso   1.00
H452   H     0.08110   0.67910   0.90160   0.01267  Uiso   1.00
H453   H     0.12860   0.73250   0.85030   0.01267  Uiso   1.00
H454   H     0.15890   0.60060   0.61620   0.01267  Uiso   1.00
H455   H     0.10780   0.63050   0.61860   0.01267  Uiso   1.00
H456   H     0.13670   0.61710   0.66860   0.01267  Uiso   1.00
C1     C     0.05530   0.77910   0.65070   0.01267  Uiso   1.00
C2     C     0.00720   0.78030   0.67070   0.01267  Uiso   1.00
C3     C     0.08510   0.82900   0.71190   0.01267  Uiso   1.00
C4     C     0.03780   0.83270   0.73470   0.01267  Uiso   1.00
C5     C     0.99700   0.80680   0.71480   0.01267  Uiso   1.00
C6     C     0.94360   0.80640   0.73840   0.01267  Uiso   1.00
C7     C     0.93470   0.75000   0.75270   0.01267  Uiso   1.00
C8     C     0.90750   0.82750   0.69660   0.01267  Uiso   1.00
C9     C     0.94480   0.84030   0.78660   0.01267  Uiso   1.00
C10    C     0.73040   0.75100   0.67370   0.01267  Uiso   1.00
C11    C     0.67060   0.68140   0.62340   0.01267  Uiso   1.00
C12    C     0.64040   0.65140   0.59300   0.01267  Uiso   1.00
C13    C     0.61810   0.60780   0.66430   0.01267  Uiso   1.00
C14    C     0.64760   0.63610   0.69700   0.01267  Uiso   1.00
C15    C     0.86970   0.67000   0.67720   0.01267  Uiso   1.00
C16    C     0.86600   0.64050   0.62650   0.01267  Uiso   1.00
C17    C     0.44470   0.22090   0.15070   0.01267  Uiso   1.00
C18    C     0.49280   0.21970   0.17070   0.01267  Uiso   1.00
C19    C     0.41490   0.17100   0.21190   0.01267  Uiso   1.00
C20    C     0.46220   0.16730   0.23470   0.01267  Uiso   1.00
C21    C     0.50300   0.19320   0.21480   0.01267  Uiso   1.00
C22    C     0.55640   0.19360   0.23840   0.01267  Uiso   1.00
C23    C     0.56530   0.25000   0.25270   0.01267  Uiso   1.00
C24    C     0.59250   0.17250   0.19660   0.01267  Uiso   1.00
C25    C     0.55520   0.15970   0.28660   0.01267  Uiso   1.00
C26    C     0.76960   0.24900   0.17370   0.01267  Uiso   1.00
C27    C     0.82940   0.31860   0.12340   0.01267  Uiso   1.00
C28    C     0.85960   0.34860   0.09300   0.01267  Uiso   1.00
C29    C     0.88190   0.39220   0.16430   0.01267  Uiso   1.00
C30    C     0.85240   0.36390   0.19700   0.01267  Uiso   1.00
C31    C     0.63030   0.33000   0.17720   0.01267  Uiso   1.00
C32    C     0.63400   0.35950   0.12650   0.01267  Uiso   1.00
C33    C     0.94470   0.27910   0.84930   0.01267  Uiso   1.00
C34    C     0.99280   0.28030   0.82930   0.01267  Uiso   1.00
C35    C     0.91490   0.32900   0.78810   0.01267  Uiso   1.00
C36    C     0.96220   0.33270   0.76530   0.01267  Uiso   1.00
C37    C     0.00300   0.30680   0.78520   0.01267  Uiso   1.00
C38    C     0.05640   0.30640   0.76160   0.01267  Uiso   1.00
C39    C     0.06530   0.25000   0.74730   0.01267  Uiso   1.00
C40    C     0.09250   0.32750   0.80340   0.01267  Uiso   1.00
C41    C     0.05520   0.34030   0.71340   0.01267  Uiso   1.00
C42    C     0.26960   0.25100   0.82630   0.01267  Uiso   1.00
C43    C     0.32940   0.18140   0.87660   0.01267  Uiso   1.00
C44    C     0.35960   0.15140   0.90700   0.01267  Uiso   1.00
C45    C     0.38190   0.10780   0.83570   0.01267  Uiso   1.00
C46    C     0.35240   0.13610   0.80300   0.01267  Uiso   1.00
C47    C     0.13030   0.17000   0.82280   0.01267  Uiso   1.00
C48    C     0.13400   0.14050   0.87350   0.01267  Uiso   1.00
C49    C     0.55530   0.72090   0.34930   0.01267  Uiso   1.00
C50    C     0.50720   0.71970   0.32930   0.01267  Uiso   1.00
C51    C     0.58510   0.67100   0.28810   0.01267  Uiso   1.00
C52    C     0.53780   0.66730   0.26530   0.01267  Uiso   1.00
C53    C     0.49700   0.69320   0.28520   0.01267  Uiso   1.00
C54    C     0.44360   0.69360   0.26160   0.01267  Uiso   1.00
C55    C     0.43470   0.75000   0.24730   0.01267  Uiso   1.00
C56    C     0.40750   0.67250   0.30340   0.01267  Uiso   1.00
C57    C     0.44480   0.65970   0.21340   0.01267  Uiso   1.00
C58    C     0.23040   0.74900   0.32630   0.01267  Uiso   1.00
C59    C     0.17060   0.81860   0.37660   0.01267  Uiso   1.00
C60    C     0.14040   0.84860   0.40700   0.01267  Uiso   1.00
C61    C     0.11810   0.89220   0.33570   0.01267  Uiso   1.00
C62    C     0.14760   0.86390   0.30300   0.01267  Uiso   1.00
C63    C     0.36970   0.83000   0.32280   0.01267  Uiso   1.00
C64    C     0.36600   0.85950   0.37350   0.01267  Uiso   1.00
C65    C     0.65070   0.05530   0.77910   0.01267  Uiso   1.00
C66    C     0.67070   0.00720   0.78030   0.01267  Uiso   1.00
C67    C     0.71190   0.08510   0.82900   0.01267  Uiso   1.00
C68    C     0.73470   0.03780   0.83270   0.01267  Uiso   1.00
C69    C     0.71480   0.99700   0.80680   0.01267  Uiso   1.00
C70    C     0.73840   0.94360   0.80640   0.01267  Uiso   1.00
C71    C     0.75270   0.93470   0.75000   0.01267  Uiso   1.00
C72    C     0.69660   0.90750   0.82750   0.01267  Uiso   1.00
C73    C     0.78660   0.94480   0.84030   0.01267  Uiso   1.00
C74    C     0.67370   0.73040   0.75100   0.01267  Uiso   1.00
C75    C     0.62340   0.67060   0.68140   0.01267  Uiso   1.00
C76    C     0.59300   0.64040   0.65140   0.01267  Uiso   1.00
C77    C     0.66430   0.61810   0.60780   0.01267  Uiso   1.00
C78    C     0.69700   0.64760   0.63610   0.01267  Uiso   1.00
C79    C     0.67720   0.86970   0.67000   0.01267  Uiso   1.00
C80    C     0.62650   0.86600   0.64050   0.01267  Uiso   1.00
C81    C     0.15070   0.44470   0.22090   0.01267  Uiso   1.00
C82    C     0.17070   0.49280   0.21970   0.01267  Uiso   1.00
C83    C     0.21190   0.41490   0.17100   0.01267  Uiso   1.00
C84    C     0.23470   0.46220   0.16730   0.01267  Uiso   1.00
C85    C     0.21480   0.50300   0.19320   0.01267  Uiso   1.00
C86    C     0.23840   0.55640   0.19360   0.01267  Uiso   1.00
C87    C     0.25270   0.56530   0.25000   0.01267  Uiso   1.00
C88    C     0.19660   0.59250   0.17250   0.01267  Uiso   1.00
C89    C     0.28660   0.55520   0.15970   0.01267  Uiso   1.00
C90    C     0.17370   0.76960   0.24900   0.01267  Uiso   1.00
C91    C     0.12340   0.82940   0.31860   0.01267  Uiso   1.00
C92    C     0.09300   0.85960   0.34860   0.01267  Uiso   1.00
C93    C     0.16430   0.88190   0.39220   0.01267  Uiso   1.00
C94    C     0.19700   0.85240   0.36390   0.01267  Uiso   1.00
C95    C     0.17720   0.63030   0.33000   0.01267  Uiso   1.00
C96    C     0.12650   0.63400   0.35950   0.01267  Uiso   1.00
C97    C     0.84930   0.94470   0.27910   0.01267  Uiso   1.00
C98    C     0.82930   0.99280   0.28030   0.01267  Uiso   1.00
C99    C     0.78810   0.91490   0.32900   0.01267  Uiso   1.00
C100   C     0.76530   0.96220   0.33270   0.01267  Uiso   1.00
C101   C     0.78520   0.00300   0.30680   0.01267  Uiso   1.00
C102   C     0.76160   0.05640   0.30640   0.01267  Uiso   1.00
C103   C     0.74730   0.06530   0.25000   0.01267  Uiso   1.00
C104   C     0.80340   0.09250   0.32750   0.01267  Uiso   1.00
C105   C     0.71340   0.05520   0.34030   0.01267  Uiso   1.00
C106   C     0.82630   0.26960   0.25100   0.01267  Uiso   1.00
C107   C     0.87660   0.32940   0.18140   0.01267  Uiso   1.00
C108   C     0.90700   0.35960   0.15140   0.01267  Uiso   1.00
C109   C     0.83570   0.38190   0.10780   0.01267  Uiso   1.00
C110   C     0.80300   0.35240   0.13610   0.01267  Uiso   1.00
C111   C     0.82280   0.13030   0.17000   0.01267  Uiso   1.00
C112   C     0.87350   0.13400   0.14050   0.01267  Uiso   1.00
C113   C     0.34930   0.55530   0.72090   0.01267  Uiso   1.00
C114   C     0.32930   0.50720   0.71970   0.01267  Uiso   1.00
C115   C     0.28810   0.58510   0.67100   0.01267  Uiso   1.00
C116   C     0.26530   0.53780   0.66730   0.01267  Uiso   1.00
C117   C     0.28520   0.49700   0.69320   0.01267  Uiso   1.00
C118   C     0.26160   0.44360   0.69360   0.01267  Uiso   1.00
C119   C     0.24730   0.43470   0.75000   0.01267  Uiso   1.00
C120   C     0.30340   0.40750   0.67250   0.01267  Uiso   1.00
C121   C     0.21340   0.44480   0.65970   0.01267  Uiso   1.00
C122   C     0.32630   0.23040   0.74900   0.01267  Uiso   1.00
C123   C     0.37660   0.17060   0.81860   0.01267  Uiso   1.00
C124   C     0.40700   0.14040   0.84860   0.01267  Uiso   1.00
C125   C     0.33570   0.11810   0.89220   0.01267  Uiso   1.00
C126   C     0.30300   0.14760   0.86390   0.01267  Uiso   1.00
C127   C     0.32280   0.36970   0.83000   0.01267  Uiso   1.00
C128   C     0.37350   0.36600   0.85950   0.01267  Uiso   1.00
C129   C     0.77910   0.65070   0.05530   0.01267  Uiso   1.00
C130   C     0.78030   0.67070   0.00720   0.01267  Uiso   1.00
C131   C     0.82900   0.71190   0.08510   0.01267  Uiso   1.00
C132   C     0.83270   0.73470   0.03780   0.01267  Uiso   1.00
C133   C     0.80680   0.71480   0.99700   0.01267  Uiso   1.00
C134   C     0.80640   0.73840   0.94360   0.01267  Uiso   1.00
C135   C     0.75000   0.75270   0.93470   0.01267  Uiso   1.00
C136   C     0.82750   0.69660   0.90750   0.01267  Uiso   1.00
C137   C     0.84030   0.78660   0.94480   0.01267  Uiso   1.00
C138   C     0.75100   0.67370   0.73040   0.01267  Uiso   1.00
C139   C     0.68140   0.62340   0.67060   0.01267  Uiso   1.00
C140   C     0.65140   0.59300   0.64040   0.01267  Uiso   1.00
C141   C     0.60780   0.66430   0.61810   0.01267  Uiso   1.00
C142   C     0.63610   0.69700   0.64760   0.01267  Uiso   1.00
C143   C     0.67000   0.67720   0.86970   0.01267  Uiso   1.00
C144   C     0.64050   0.62650   0.86600   0.01267  Uiso   1.00
C145   C     0.22090   0.15070   0.44470   0.01267  Uiso   1.00
C146   C     0.21970   0.17070   0.49280   0.01267  Uiso   1.00
C147   C     0.17100   0.21190   0.41490   0.01267  Uiso   1.00
C148   C     0.16730   0.23470   0.46220   0.01267  Uiso   1.00
C149   C     0.19320   0.21480   0.50300   0.01267  Uiso   1.00
C150   C     0.19360   0.23840   0.55640   0.01267  Uiso   1.00
C151   C     0.25000   0.25270   0.56530   0.01267  Uiso   1.00
C152   C     0.17250   0.19660   0.59250   0.01267  Uiso   1.00
C153   C     0.15970   0.28660   0.55520   0.01267  Uiso   1.00
C154   C     0.24900   0.17370   0.76960   0.01267  Uiso   1.00
C155   C     0.31860   0.12340   0.82940   0.01267  Uiso   1.00
C156   C     0.34860   0.09300   0.85960   0.01267  Uiso   1.00
C157   C     0.39220   0.16430   0.88190   0.01267  Uiso   1.00
C158   C     0.36390   0.19700   0.85240   0.01267  Uiso   1.00
C159   C     0.33000   0.17720   0.63030   0.01267  Uiso   1.00
C160   C     0.35950   0.12650   0.63400   0.01267  Uiso   1.00
C161   C     0.27910   0.84930   0.94470   0.01267  Uiso   1.00
C162   C     0.28030   0.82930   0.99280   0.01267  Uiso   1.00
C163   C     0.32900   0.78810   0.91490   0.01267  Uiso   1.00
C164   C     0.33270   0.76530   0.96220   0.01267  Uiso   1.00
C165   C     0.30680   0.78520   0.00300   0.01267  Uiso   1.00
C166   C     0.30640   0.76160   0.05640   0.01267  Uiso   1.00
C167   C     0.25000   0.74730   0.06530   0.01267  Uiso   1.00
C168   C     0.32750   0.80340   0.09250   0.01267  Uiso   1.00
C169   C     0.34030   0.71340   0.05520   0.01267  Uiso   1.00
C170   C     0.25100   0.82630   0.26960   0.01267  Uiso   1.00
C171   C     0.18140   0.87660   0.32940   0.01267  Uiso   1.00
C172   C     0.15140   0.90700   0.35960   0.01267  Uiso   1.00
C173   C     0.10780   0.83570   0.38190   0.01267  Uiso   1.00
C174   C     0.13610   0.80300   0.35240   0.01267  Uiso   1.00
C175   C     0.17000   0.82280   0.13030   0.01267  Uiso   1.00
C176   C     0.14050   0.87350   0.13400   0.01267  Uiso   1.00
C177   C     0.72090   0.34930   0.55530   0.01267  Uiso   1.00
C178   C     0.71970   0.32930   0.50720   0.01267  Uiso   1.00
C179   C     0.67100   0.28810   0.58510   0.01267  Uiso   1.00
C180   C     0.66730   0.26530   0.53780   0.01267  Uiso   1.00
C181   C     0.69320   0.28520   0.49700   0.01267  Uiso   1.00
C182   C     0.69360   0.26160   0.44360   0.01267  Uiso   1.00
C183   C     0.75000   0.24730   0.43470   0.01267  Uiso   1.00
C184   C     0.67250   0.30340   0.40750   0.01267  Uiso   1.00
C185   C     0.65970   0.21340   0.44480   0.01267  Uiso   1.00
C186   C     0.74900   0.32630   0.23040   0.01267  Uiso   1.00
C187   C     0.81860   0.37660   0.17060   0.01267  Uiso   1.00
C188   C     0.84860   0.40700   0.14040   0.01267  Uiso   1.00
C189   C     0.89220   0.33570   0.11810   0.01267  Uiso   1.00
C190   C     0.86390   0.30300   0.14760   0.01267  Uiso   1.00
C191   C     0.83000   0.32280   0.36970   0.01267  Uiso   1.00
C192   C     0.85950   0.37350   0.36600   0.01267  Uiso   1.00
C193   C     0.94470   0.22090   0.34930   0.01267  Uiso   1.00
C194   C     0.99280   0.21970   0.32930   0.01267  Uiso   1.00
C195   C     0.91490   0.17100   0.28810   0.01267  Uiso   1.00
C196   C     0.96220   0.16730   0.26530   0.01267  Uiso   1.00
C197   C     0.00300   0.19320   0.28520   0.01267  Uiso   1.00
C198   C     0.05640   0.19360   0.26160   0.01267  Uiso   1.00
C199   C     0.06530   0.25000   0.24730   0.01267  Uiso   1.00
C200   C     0.09250   0.17250   0.30340   0.01267  Uiso   1.00
C201   C     0.05520   0.15970   0.21340   0.01267  Uiso   1.00
C202   C     0.26960   0.24900   0.32630   0.01267  Uiso   1.00
C203   C     0.32940   0.31860   0.37660   0.01267  Uiso   1.00
C204   C     0.35960   0.34860   0.40700   0.01267  Uiso   1.00
C205   C     0.38190   0.39220   0.33570   0.01267  Uiso   1.00
C206   C     0.35240   0.36390   0.30300   0.01267  Uiso   1.00
C207   C     0.13030   0.33000   0.32280   0.01267  Uiso   1.00
C208   C     0.13400   0.35950   0.37350   0.01267  Uiso   1.00
C209   C     0.55530   0.77910   0.84930   0.01267  Uiso   1.00
C210   C     0.50720   0.78030   0.82930   0.01267  Uiso   1.00
C211   C     0.58510   0.82900   0.78810   0.01267  Uiso   1.00
C212   C     0.53780   0.83270   0.76530   0.01267  Uiso   1.00
C213   C     0.49700   0.80680   0.78520   0.01267  Uiso   1.00
C214   C     0.44360   0.80640   0.76160   0.01267  Uiso   1.00
C215   C     0.43470   0.75000   0.74730   0.01267  Uiso   1.00
C216   C     0.40750   0.82750   0.80340   0.01267  Uiso   1.00
C217   C     0.44480   0.84030   0.71340   0.01267  Uiso   1.00
C218   C     0.23040   0.75100   0.82630   0.01267  Uiso   1.00
C219   C     0.17060   0.68140   0.87660   0.01267  Uiso   1.00
C220   C     0.14040   0.65140   0.90700   0.01267  Uiso   1.00
C221   C     0.11810   0.60780   0.83570   0.01267  Uiso   1.00
C222   C     0.14760   0.63610   0.80300   0.01267  Uiso   1.00
C223   C     0.36970   0.67000   0.82280   0.01267  Uiso   1.00
C224   C     0.36600   0.64050   0.87350   0.01267  Uiso   1.00
C225   C     0.05530   0.72090   0.15070   0.01267  Uiso   1.00
C226   C     0.00720   0.71970   0.17070   0.01267  Uiso   1.00
C227   C     0.08510   0.67100   0.21190   0.01267  Uiso   1.00
C228   C     0.03780   0.66730   0.23470   0.01267  Uiso   1.00
C229   C     0.99700   0.69320   0.21480   0.01267  Uiso   1.00
C230   C     0.94360   0.69360   0.23840   0.01267  Uiso   1.00
C231   C     0.93470   0.75000   0.25270   0.01267  Uiso   1.00
C232   C     0.90750   0.67250   0.19660   0.01267  Uiso   1.00
C233   C     0.94480   0.65970   0.28660   0.01267  Uiso   1.00
C234   C     0.73040   0.74900   0.17370   0.01267  Uiso   1.00
C235   C     0.67060   0.81860   0.12340   0.01267  Uiso   1.00
C236   C     0.64040   0.84860   0.09300   0.01267  Uiso   1.00
C237   C     0.61810   0.89220   0.16430   0.01267  Uiso   1.00
C238   C     0.64760   0.86390   0.19700   0.01267  Uiso   1.00
C239   C     0.86970   0.83000   0.17720   0.01267  Uiso   1.00
C240   C     0.86600   0.85950   0.12650   0.01267  Uiso   1.00
C241   C     0.44470   0.27910   0.65070   0.01267  Uiso   1.00
C242   C     0.49280   0.28030   0.67070   0.01267  Uiso   1.00
C243   C     0.41490   0.32900   0.71190   0.01267  Uiso   1.00
C244   C     0.46220   0.33270   0.73470   0.01267  Uiso   1.00
C245   C     0.50300   0.30680   0.71480   0.01267  Uiso   1.00
C246   C     0.55640   0.30640   0.73840   0.01267  Uiso   1.00
C247   C     0.56530   0.25000   0.75270   0.01267  Uiso   1.00
C248   C     0.59250   0.32750   0.69660   0.01267  Uiso   1.00
C249   C     0.55520   0.34030   0.78660   0.01267  Uiso   1.00
C250   C     0.76960   0.25100   0.67370   0.01267  Uiso   1.00
C251   C     0.82940   0.18140   0.62340   0.01267  Uiso   1.00
C252   C     0.85960   0.15140   0.59300   0.01267  Uiso   1.00
C253   C     0.88190   0.10780   0.66430   0.01267  Uiso   1.00
C254   C     0.85240   0.13610   0.69700   0.01267  Uiso   1.00
C255   C     0.63030   0.17000   0.67720   0.01267  Uiso   1.00
C256   C     0.63400   0.14050   0.62650   0.01267  Uiso   1.00
C257   C     0.34930   0.94470   0.22090   0.01267  Uiso   1.00
C258   C     0.32930   0.99280   0.21970   0.01267  Uiso   1.00
C259   C     0.28810   0.91490   0.17100   0.01267  Uiso   1.00
C260   C     0.26530   0.96220   0.16730   0.01267  Uiso   1.00
C261   C     0.28520   0.00300   0.19320   0.01267  Uiso   1.00
C262   C     0.26160   0.05640   0.19360   0.01267  Uiso   1.00
C263   C     0.24730   0.06530   0.25000   0.01267  Uiso   1.00
C264   C     0.30340   0.09250   0.17250   0.01267  Uiso   1.00
C265   C     0.21340   0.05520   0.15970   0.01267  Uiso   1.00
C266   C     0.32630   0.26960   0.24900   0.01267  Uiso   1.00
C267   C     0.37660   0.32940   0.31860   0.01267  Uiso   1.00
C268   C     0.40700   0.35960   0.34860   0.01267  Uiso   1.00
C269   C     0.33570   0.38190   0.39220   0.01267  Uiso   1.00
C270   C     0.30300   0.35240   0.36390   0.01267  Uiso   1.00
C271   C     0.32280   0.13030   0.33000   0.01267  Uiso   1.00
C272   C     0.37350   0.13400   0.35950   0.01267  Uiso   1.00
C273   C     0.84930   0.55530   0.77910   0.01267  Uiso   1.00
C274   C     0.82930   0.50720   0.78030   0.01267  Uiso   1.00
C275   C     0.78810   0.58510   0.82900   0.01267  Uiso   1.00
C276   C     0.76530   0.53780   0.83270   0.01267  Uiso   1.00
C277   C     0.78520   0.49700   0.80680   0.01267  Uiso   1.00
C278   C     0.76160   0.44360   0.80640   0.01267  Uiso   1.00
C279   C     0.74730   0.43470   0.75000   0.01267  Uiso   1.00
C280   C     0.80340   0.40750   0.82750   0.01267  Uiso   1.00
C281   C     0.71340   0.44480   0.84030   0.01267  Uiso   1.00
C282   C     0.82630   0.23040   0.75100   0.01267  Uiso   1.00
C283   C     0.87660   0.17060   0.68140   0.01267  Uiso   1.00
C284   C     0.90700   0.14040   0.65140   0.01267  Uiso   1.00
C285   C     0.83570   0.11810   0.60780   0.01267  Uiso   1.00
C286   C     0.80300   0.14760   0.63610   0.01267  Uiso   1.00
C287   C     0.82280   0.36970   0.67000   0.01267  Uiso   1.00
C288   C     0.87350   0.36600   0.64050   0.01267  Uiso   1.00
C289   C     0.15070   0.05530   0.72090   0.01267  Uiso   1.00
C290   C     0.17070   0.00720   0.71970   0.01267  Uiso   1.00
C291   C     0.21190   0.08510   0.67100   0.01267  Uiso   1.00
C292   C     0.23470   0.03780   0.66730   0.01267  Uiso   1.00
C293   C     0.21480   0.99700   0.69320   0.01267  Uiso   1.00
C294   C     0.23840   0.94360   0.69360   0.01267  Uiso   1.00
C295   C     0.25270   0.93470   0.75000   0.01267  Uiso   1.00
C296   C     0.19660   0.90750   0.67250   0.01267  Uiso   1.00
C297   C     0.28660   0.94480   0.65970   0.01267  Uiso   1.00
C298   C     0.17370   0.73040   0.74900   0.01267  Uiso   1.00
C299   C     0.12340   0.67060   0.81860   0.01267  Uiso   1.00
C300   C     0.09300   0.64040   0.84860   0.01267  Uiso   1.00
C301   C     0.16430   0.61810   0.89220   0.01267  Uiso   1.00
C302   C     0.19700   0.64760   0.86390   0.01267  Uiso   1.00
C303   C     0.17720   0.86970   0.83000   0.01267  Uiso   1.00
C304   C     0.12650   0.86600   0.85950   0.01267  Uiso   1.00
C305   C     0.65070   0.44470   0.27910   0.01267  Uiso   1.00
C306   C     0.67070   0.49280   0.28030   0.01267  Uiso   1.00
C307   C     0.71190   0.41490   0.32900   0.01267  Uiso   1.00
C308   C     0.73470   0.46220   0.33270   0.01267  Uiso   1.00
C309   C     0.71480   0.50300   0.30680   0.01267  Uiso   1.00
C310   C     0.73840   0.55640   0.30640   0.01267  Uiso   1.00
C311   C     0.75270   0.56530   0.25000   0.01267  Uiso   1.00
C312   C     0.69660   0.59250   0.32750   0.01267  Uiso   1.00
C313   C     0.78660   0.55520   0.34030   0.01267  Uiso   1.00
C314   C     0.67370   0.76960   0.25100   0.01267  Uiso   1.00
C315   C     0.62340   0.82940   0.18140   0.01267  Uiso   1.00
C316   C     0.59300   0.85960   0.15140   0.01267  Uiso   1.00
C317   C     0.66430   0.88190   0.10780   0.01267  Uiso   1.00
C318   C     0.69700   0.85240   0.13610   0.01267  Uiso   1.00
C319   C     0.67720   0.63030   0.17000   0.01267  Uiso   1.00
C320   C     0.62650   0.63400   0.14050   0.01267  Uiso   1.00
C321   C     0.22090   0.34930   0.94470   0.01267  Uiso   1.00
C322   C     0.21970   0.32930   0.99280   0.01267  Uiso   1.00
C323   C     0.17100   0.28810   0.91490   0.01267  Uiso   1.00
C324   C     0.16730   0.26530   0.96220   0.01267  Uiso   1.00
C325   C     0.19320   0.28520   0.00300   0.01267  Uiso   1.00
C326   C     0.19360   0.26160   0.05640   0.01267  Uiso   1.00
C327   C     0.25000   0.24730   0.06530   0.01267  Uiso   1.00
C328   C     0.17250   0.30340   0.09250   0.01267  Uiso   1.00
C329   C     0.15970   0.21340   0.05520   0.01267  Uiso   1.00
C330   C     0.24900   0.32630   0.26960   0.01267  Uiso   1.00
C331   C     0.31860   0.37660   0.32940   0.01267  Uiso   1.00
C332   C     0.34860   0.40700   0.35960   0.01267  Uiso   1.00
C333   C     0.39220   0.33570   0.38190   0.01267  Uiso   1.00
C334   C     0.36390   0.30300   0.35240   0.01267  Uiso   1.00
C335   C     0.33000   0.32280   0.13030   0.01267  Uiso   1.00
C336   C     0.35950   0.37350   0.13400   0.01267  Uiso   1.00
C337   C     0.77910   0.84930   0.55530   0.01267  Uiso   1.00
C338   C     0.78030   0.82930   0.50720   0.01267  Uiso   1.00
C339   C     0.82900   0.78810   0.58510   0.01267  Uiso   1.00
C340   C     0.83270   0.76530   0.53780   0.01267  Uiso   1.00
C341   C     0.80680   0.78520   0.49700   0.01267  Uiso   1.00
C342   C     0.80640   0.76160   0.44360   0.01267  Uiso   1.00
C343   C     0.75000   0.74730   0.43470   0.01267  Uiso   1.00
C344   C     0.82750   0.80340   0.40750   0.01267  Uiso   1.00
C345   C     0.84030   0.71340   0.44480   0.01267  Uiso   1.00
C346   C     0.75100   0.82630   0.23040   0.01267  Uiso   1.00
C347   C     0.68140   0.87660   0.17060   0.01267  Uiso   1.00
C348   C     0.65140   0.90700   0.14040   0.01267  Uiso   1.00
C349   C     0.60780   0.83570   0.11810   0.01267  Uiso   1.00
C350   C     0.63610   0.80300   0.14760   0.01267  Uiso   1.00
C351   C     0.67000   0.82280   0.36970   0.01267  Uiso   1.00
C352   C     0.64050   0.87350   0.36600   0.01267  Uiso   1.00
C353   C     0.72090   0.15070   0.05530   0.01267  Uiso   1.00
C354   C     0.71970   0.17070   0.00720   0.01267  Uiso   1.00
C355   C     0.67100   0.21190   0.08510   0.01267  Uiso   1.00
C356   C     0.66730   0.23470   0.03780   0.01267  Uiso   1.00
C357   C     0.69320   0.21480   0.99700   0.01267  Uiso   1.00
C358   C     0.69360   0.23840   0.94360   0.01267  Uiso   1.00
C359   C     0.75000   0.25270   0.93470   0.01267  Uiso   1.00
C360   C     0.67250   0.19660   0.90750   0.01267  Uiso   1.00
C361   C     0.65970   0.28660   0.94480   0.01267  Uiso   1.00
C362   C     0.74900   0.17370   0.73040   0.01267  Uiso   1.00
C363   C     0.81860   0.12340   0.67060   0.01267  Uiso   1.00
C364   C     0.84860   0.09300   0.64040   0.01267  Uiso   1.00
C365   C     0.89220   0.16430   0.61810   0.01267  Uiso   1.00
C366   C     0.86390   0.19700   0.64760   0.01267  Uiso   1.00
C367   C     0.83000   0.17720   0.86970   0.01267  Uiso   1.00
C368   C     0.85950   0.12650   0.86600   0.01267  Uiso   1.00
C369   C     0.27910   0.65070   0.44470   0.01267  Uiso   1.00
C370   C     0.28030   0.67070   0.49280   0.01267  Uiso   1.00
C371   C     0.32900   0.71190   0.41490   0.01267  Uiso   1.00
C372   C     0.33270   0.73470   0.46220   0.01267  Uiso   1.00
C373   C     0.30680   0.71480   0.50300   0.01267  Uiso   1.00
C374   C     0.30640   0.73840   0.55640   0.01267  Uiso   1.00
C375   C     0.25000   0.75270   0.56530   0.01267  Uiso   1.00
C376   C     0.32750   0.69660   0.59250   0.01267  Uiso   1.00
C377   C     0.34030   0.78660   0.55520   0.01267  Uiso   1.00
C378   C     0.25100   0.67370   0.76960   0.01267  Uiso   1.00
C379   C     0.18140   0.62340   0.82940   0.01267  Uiso   1.00
C380   C     0.15140   0.59300   0.85960   0.01267  Uiso   1.00
C381   C     0.10780   0.66430   0.88190   0.01267  Uiso   1.00
C382   C     0.13610   0.69700   0.85240   0.01267  Uiso   1.00
C383   C     0.17000   0.67720   0.63030   0.01267  Uiso   1.00
C384   C     0.14050   0.62650   0.63400   0.01267  Uiso   1.00
C385   C     0.70920   0.70920   0.70920   0.01267  Uiso   1.00
C386   C     0.67530   0.67530   0.67530   0.01267  Uiso   1.00
C387   C     0.79080   0.29080   0.20920   0.01267  Uiso   1.00
C388   C     0.82470   0.32470   0.17530   0.01267  Uiso   1.00
C389   C     0.29080   0.20920   0.79080   0.01267  Uiso   1.00
C390   C     0.32470   0.17530   0.82470   0.01267  Uiso   1.00
C391   C     0.20920   0.79080   0.29080   0.01267  Uiso   1.00
C392   C     0.17530   0.82470   0.32470   0.01267  Uiso   1.00
C393   C     0.29080   0.29080   0.29080   0.01267  Uiso   1.00
C394   C     0.32470   0.32470   0.32470   0.01267  Uiso   1.00
C395   C     0.20920   0.70920   0.79080   0.01267  Uiso   1.00
C396   C     0.17530   0.67530   0.82470   0.01267  Uiso   1.00
C397   C     0.70920   0.79080   0.20920   0.01267  Uiso   1.00
C398   C     0.67530   0.82470   0.17530   0.01267  Uiso   1.00
C399   C     0.79080   0.20920   0.70920   0.01267  Uiso   1.00
C400   C     0.82470   0.17530   0.67530   0.01267  Uiso   1.00
N1     N     0.09450   0.80190   0.67130   0.01267  Uiso   1.00
N2     N     0.40550   0.19810   0.17130   0.01267  Uiso   1.00
N3     N     0.90550   0.30190   0.82870   0.01267  Uiso   1.00
N4     N     0.59450   0.69810   0.32870   0.01267  Uiso   1.00
N5     N     0.67130   0.09450   0.80190   0.01267  Uiso   1.00
N6     N     0.17130   0.40550   0.19810   0.01267  Uiso   1.00
N7     N     0.82870   0.90550   0.30190   0.01267  Uiso   1.00
N8     N     0.32870   0.59450   0.69810   0.01267  Uiso   1.00
N9     N     0.80190   0.67130   0.09450   0.01267  Uiso   1.00
N10    N     0.19810   0.17130   0.40550   0.01267  Uiso   1.00
N11    N     0.30190   0.82870   0.90550   0.01267  Uiso   1.00
N12    N     0.69810   0.32870   0.59450   0.01267  Uiso   1.00
N13    N     0.90550   0.19810   0.32870   0.01267  Uiso   1.00
N14    N     0.59450   0.80190   0.82870   0.01267  Uiso   1.00
N15    N     0.09450   0.69810   0.17130   0.01267  Uiso   1.00
N16    N     0.40550   0.30190   0.67130   0.01267  Uiso   1.00
N17    N     0.32870   0.90550   0.19810   0.01267  Uiso   1.00
N18    N     0.82870   0.59450   0.80190   0.01267  Uiso   1.00
N19    N     0.17130   0.09450   0.69810   0.01267  Uiso   1.00
N20    N     0.67130   0.40550   0.30190   0.01267  Uiso   1.00
N21    N     0.19810   0.32870   0.90550   0.01267  Uiso   1.00
N22    N     0.80190   0.82870   0.59450   0.01267  Uiso   1.00
N23    N     0.69810   0.17130   0.09450   0.01267  Uiso   1.00
N24    N     0.30190   0.67130   0.40550   0.01267  Uiso   1.00
N25    N     0.61400   0.61400   0.61400   0.01267  Uiso   1.00
N26    N     0.88600   0.38600   0.11400   0.01267  Uiso   1.00
N27    N     0.38600   0.11400   0.88600   0.01267  Uiso   1.00
N28    N     0.11400   0.88600   0.38600   0.01267  Uiso   1.00
N29    N     0.38600   0.38600   0.38600   0.01267  Uiso   1.00
N30    N     0.11400   0.61400   0.88600   0.01267  Uiso   1.00
N31    N     0.61400   0.88600   0.11400   0.01267  Uiso   1.00
N32    N     0.88600   0.11400   0.61400   0.01267  Uiso   1.00
O1     O     0.88611   0.74095   0.77425   0.01267  Uiso   1.00
O2     O     0.85574   0.82812   0.71058   0.01267  Uiso   1.00
O3     O     0.89845   0.84167   0.81346   0.01267  Uiso   1.00
O4     O     0.76193   0.78674   0.69832   0.01267  Uiso   1.00
O5     O     0.85150   0.71420   0.67360   0.01267  Uiso   1.00
O6     O     0.87740   0.64610   0.71710   0.01267  Uiso   1.00
O7     O     0.61389   0.25905   0.27425   0.01267  Uiso   1.00
O8     O     0.64426   0.17188   0.21058   0.01267  Uiso   1.00
O9     O     0.60155   0.15833   0.31346   0.01267  Uiso   1.00
O10    O     0.73807   0.21326   0.19832   0.01267  Uiso   1.00
O11    O     0.64850   0.28580   0.17360   0.01267  Uiso   1.00
O12    O     0.62260   0.35390   0.21710   0.01267  Uiso   1.00
O13    O     0.11389   0.24095   0.72575   0.01267  Uiso   1.00
O14    O     0.14426   0.32812   0.78942   0.01267  Uiso   1.00
O15    O     0.10155   0.34167   0.68654   0.01267  Uiso   1.00
O16    O     0.23807   0.28674   0.80168   0.01267  Uiso   1.00
O17    O     0.14850   0.21420   0.82640   0.01267  Uiso   1.00
O18    O     0.12260   0.14610   0.78290   0.01267  Uiso   1.00
O19    O     0.38611   0.75905   0.22575   0.01267  Uiso   1.00
O20    O     0.35574   0.67188   0.28942   0.01267  Uiso   1.00
O21    O     0.39845   0.65833   0.18654   0.01267  Uiso   1.00
O22    O     0.26193   0.71326   0.30168   0.01267  Uiso   1.00
O23    O     0.35150   0.78580   0.32640   0.01267  Uiso   1.00
O24    O     0.37740   0.85390   0.28290   0.01267  Uiso   1.00
O25    O     0.77425   0.88611   0.74095   0.01267  Uiso   1.00
O26    O     0.71058   0.85574   0.82812   0.01267  Uiso   1.00
O27    O     0.81346   0.89845   0.84167   0.01267  Uiso   1.00
O28    O     0.69832   0.76193   0.78674   0.01267  Uiso   1.00
O29    O     0.67360   0.85150   0.71420   0.01267  Uiso   1.00
O30    O     0.71710   0.87740   0.64610   0.01267  Uiso   1.00
O31    O     0.27425   0.61389   0.25905   0.01267  Uiso   1.00
O32    O     0.21058   0.64426   0.17188   0.01267  Uiso   1.00
O33    O     0.31346   0.60155   0.15833   0.01267  Uiso   1.00
O34    O     0.19832   0.73807   0.21326   0.01267  Uiso   1.00
O35    O     0.17360   0.64850   0.28580   0.01267  Uiso   1.00
O36    O     0.21710   0.62260   0.35390   0.01267  Uiso   1.00
O37    O     0.72575   0.11389   0.24095   0.01267  Uiso   1.00
O38    O     0.78942   0.14426   0.32812   0.01267  Uiso   1.00
O39    O     0.68654   0.10155   0.34167   0.01267  Uiso   1.00
O40    O     0.80168   0.23807   0.28674   0.01267  Uiso   1.00
O41    O     0.82640   0.14850   0.21420   0.01267  Uiso   1.00
O42    O     0.78290   0.12260   0.14610   0.01267  Uiso   1.00
O43    O     0.22575   0.38611   0.75905   0.01267  Uiso   1.00
O44    O     0.28942   0.35574   0.67188   0.01267  Uiso   1.00
O45    O     0.18654   0.39845   0.65833   0.01267  Uiso   1.00
O46    O     0.30168   0.26193   0.71326   0.01267  Uiso   1.00
O47    O     0.32640   0.35150   0.78580   0.01267  Uiso   1.00
O48    O     0.28290   0.37740   0.85390   0.01267  Uiso   1.00
O49    O     0.74095   0.77425   0.88611   0.01267  Uiso   1.00
O50    O     0.82812   0.71058   0.85574   0.01267  Uiso   1.00
O51    O     0.84167   0.81346   0.89845   0.01267  Uiso   1.00
O52    O     0.78674   0.69832   0.76193   0.01267  Uiso   1.00
O53    O     0.71420   0.67360   0.85150   0.01267  Uiso   1.00
O54    O     0.64610   0.71710   0.87740   0.01267  Uiso   1.00
O55    O     0.25905   0.27425   0.61389   0.01267  Uiso   1.00
O56    O     0.17188   0.21058   0.64426   0.01267  Uiso   1.00
O57    O     0.15833   0.31346   0.60155   0.01267  Uiso   1.00
O58    O     0.21326   0.19832   0.73807   0.01267  Uiso   1.00
O59    O     0.28580   0.17360   0.64850   0.01267  Uiso   1.00
O60    O     0.35390   0.21710   0.62260   0.01267  Uiso   1.00
O61    O     0.24095   0.72575   0.11389   0.01267  Uiso   1.00
O62    O     0.32812   0.78942   0.14426   0.01267  Uiso   1.00
O63    O     0.34167   0.68654   0.10155   0.01267  Uiso   1.00
O64    O     0.28674   0.80168   0.23807   0.01267  Uiso   1.00
O65    O     0.21420   0.82640   0.14850   0.01267  Uiso   1.00
O66    O     0.14610   0.78290   0.12260   0.01267  Uiso   1.00
O67    O     0.75905   0.22575   0.38611   0.01267  Uiso   1.00
O68    O     0.67188   0.28942   0.35574   0.01267  Uiso   1.00
O69    O     0.65833   0.18654   0.39845   0.01267  Uiso   1.00
O70    O     0.71326   0.30168   0.26193   0.01267  Uiso   1.00
O71    O     0.78580   0.32640   0.35150   0.01267  Uiso   1.00
O72    O     0.85390   0.28290   0.37740   0.01267  Uiso   1.00
O73    O     0.11389   0.25905   0.22575   0.01267  Uiso   1.00
O74    O     0.14426   0.17188   0.28942   0.01267  Uiso   1.00
O75    O     0.10155   0.15833   0.18654   0.01267  Uiso   1.00
O76    O     0.23807   0.21326   0.30168   0.01267  Uiso   1.00
O77    O     0.14850   0.28580   0.32640   0.01267  Uiso   1.00
O78    O     0.12260   0.35390   0.28290   0.01267  Uiso   1.00
O79    O     0.38611   0.74095   0.72575   0.01267  Uiso   1.00
O80    O     0.35574   0.82812   0.78942   0.01267  Uiso   1.00
O81    O     0.39845   0.84167   0.68654   0.01267  Uiso   1.00
O82    O     0.26193   0.78674   0.80168   0.01267  Uiso   1.00
O83    O     0.35150   0.71420   0.82640   0.01267  Uiso   1.00
O84    O     0.37740   0.64610   0.78290   0.01267  Uiso   1.00
O85    O     0.88611   0.75905   0.27425   0.01267  Uiso   1.00
O86    O     0.85574   0.67188   0.21058   0.01267  Uiso   1.00
O87    O     0.89845   0.65833   0.31346   0.01267  Uiso   1.00
O88    O     0.76193   0.71326   0.19832   0.01267  Uiso   1.00
O89    O     0.85150   0.78580   0.17360   0.01267  Uiso   1.00
O90    O     0.87740   0.85390   0.21710   0.01267  Uiso   1.00
O91    O     0.61389   0.24095   0.77425   0.01267  Uiso   1.00
O92    O     0.64426   0.32812   0.71058   0.01267  Uiso   1.00
O93    O     0.60155   0.34167   0.81346   0.01267  Uiso   1.00
O94    O     0.73807   0.28674   0.69832   0.01267  Uiso   1.00
O95    O     0.64850   0.21420   0.67360   0.01267  Uiso   1.00
O96    O     0.62260   0.14610   0.71710   0.01267  Uiso   1.00
O97    O     0.22575   0.11389   0.25905   0.01267  Uiso   1.00
O98    O     0.28942   0.14426   0.17188   0.01267  Uiso   1.00
O99    O     0.18654   0.10155   0.15833   0.01267  Uiso   1.00
O100   O     0.30168   0.23807   0.21326   0.01267  Uiso   1.00
O101   O     0.32640   0.14850   0.28580   0.01267  Uiso   1.00
O102   O     0.28290   0.12260   0.35390   0.01267  Uiso   1.00
O103   O     0.72575   0.38611   0.74095   0.01267  Uiso   1.00
O104   O     0.78942   0.35574   0.82812   0.01267  Uiso   1.00
O105   O     0.68654   0.39845   0.84167   0.01267  Uiso   1.00
O106   O     0.80168   0.26193   0.78674   0.01267  Uiso   1.00
O107   O     0.82640   0.35150   0.71420   0.01267  Uiso   1.00
O108   O     0.78290   0.37740   0.64610   0.01267  Uiso   1.00
O109   O     0.27425   0.88611   0.75905   0.01267  Uiso   1.00
O110   O     0.21058   0.85574   0.67188   0.01267  Uiso   1.00
O111   O     0.31346   0.89845   0.65833   0.01267  Uiso   1.00
O112   O     0.19832   0.76193   0.71326   0.01267  Uiso   1.00
O113   O     0.17360   0.85150   0.78580   0.01267  Uiso   1.00
O114   O     0.21710   0.87740   0.85390   0.01267  Uiso   1.00
O115   O     0.77425   0.61389   0.24095   0.01267  Uiso   1.00
O116   O     0.71058   0.64426   0.32812   0.01267  Uiso   1.00
O117   O     0.81346   0.60155   0.34167   0.01267  Uiso   1.00
O118   O     0.69832   0.73807   0.28674   0.01267  Uiso   1.00
O119   O     0.67360   0.64850   0.21420   0.01267  Uiso   1.00
O120   O     0.71710   0.62260   0.14610   0.01267  Uiso   1.00
O121   O     0.25905   0.22575   0.11389   0.01267  Uiso   1.00
O122   O     0.17188   0.28942   0.14426   0.01267  Uiso   1.00
O123   O     0.15833   0.18654   0.10155   0.01267  Uiso   1.00
O124   O     0.21326   0.30168   0.23807   0.01267  Uiso   1.00
O125   O     0.28580   0.32640   0.14850   0.01267  Uiso   1.00
O126   O     0.35390   0.28290   0.12260   0.01267  Uiso   1.00
O127   O     0.74095   0.72575   0.38611   0.01267  Uiso   1.00
O128   O     0.82812   0.78942   0.35574   0.01267  Uiso   1.00
O129   O     0.84167   0.68654   0.39845   0.01267  Uiso   1.00
O130   O     0.78674   0.80168   0.26193   0.01267  Uiso   1.00
O131   O     0.71420   0.82640   0.35150   0.01267  Uiso   1.00
O132   O     0.64610   0.78290   0.37740   0.01267  Uiso   1.00
O133   O     0.75905   0.27425   0.88611   0.01267  Uiso   1.00
O134   O     0.67188   0.21058   0.85574   0.01267  Uiso   1.00
O135   O     0.65833   0.31346   0.89845   0.01267  Uiso   1.00
O136   O     0.71326   0.19832   0.76193   0.01267  Uiso   1.00
O137   O     0.78580   0.17360   0.85150   0.01267  Uiso   1.00
O138   O     0.85390   0.21710   0.87740   0.01267  Uiso   1.00
O139   O     0.24095   0.77425   0.61389   0.01267  Uiso   1.00
O140   O     0.32812   0.71058   0.64426   0.01267  Uiso   1.00
O141   O     0.34167   0.81346   0.60155   0.01267  Uiso   1.00
O142   O     0.28674   0.69832   0.73807   0.01267  Uiso   1.00
O143   O     0.21420   0.67360   0.64850   0.01267  Uiso   1.00
O144   O     0.14610   0.71710   0.62260   0.01267  Uiso   1.00
O145   O     0.79996   0.79996   0.79996   0.01267  Uiso   1.00
O146   O     0.70004   0.20004   0.29996   0.01267  Uiso   1.00
O147   O     0.20004   0.29996   0.70004   0.01267  Uiso   1.00
O148   O     0.29996   0.70004   0.20004   0.01267  Uiso   1.00
O149   O     0.20004   0.20004   0.20004   0.01267  Uiso   1.00
O150   O     0.29996   0.79996   0.70004   0.01267  Uiso   1.00
O151   O     0.79996   0.70004   0.29996   0.01267  Uiso   1.00
O152   O     0.70004   0.29996   0.79996   0.01267  Uiso   1.00
