data_image0
_cell_length_a       23.9647
_cell_length_b       23.9647
_cell_length_c       23.9647
_cell_angle_alpha    90
_cell_angle_beta     90
_cell_angle_gamma    90

_symmetry_space_group_name_H-M    "P 1"
_symmetry_int_tables_number       1

loop_
  _symmetry_equiv_pos_as_xyz
  'x, y, z'

loop_
  _atom_site_label
  _atom_site_occupancy
  _atom_site_fract_x
  _atom_site_fract_y
  _atom_site_fract_z
  _atom_site_thermal_displace_type
  _atom_site_B_iso_or_equiv
  _atom_site_type_symbol
  C1       1.0000 0.89060  0.61070  0.24830  Biso   1.000  C
  C2       1.0000 0.94030  0.64580  0.26920  Biso   1.000  C
  H1       1.0000 0.96370  0.65560  0.23760  Biso   1.000  H
  H2       1.0000 0.92630  0.68020  0.28530  Biso   1.000  H
  O1       1.0000 0.96970  0.62070  0.30530  Biso   1.000  O
  C3       1.0000 0.02640  0.62670  0.31170  Biso   1.000  C
  C4       1.0000 0.05530  0.58150  0.32960  Biso   1.000  C
  H3       1.0000 0.03700  0.54790  0.33640  Biso   1.000  H
  C5       1.0000 0.11480  0.58610  0.33810  Biso   1.000  C
  H4       1.0000 0.13520  0.55510  0.34930  Biso   1.000  H
  C6       1.0000 0.14110  0.63570  0.32990  Biso   1.000  C
  C7       1.0000 0.11220  0.68110  0.31060  Biso   1.000  C
  H5       1.0000 0.13040  0.71470  0.30400  Biso   1.000  H
  C8       1.0000 0.05110  0.67590  0.30050  Biso   1.000  C
  H6       1.0000 0.03050  0.70580  0.28670  Biso   1.000  H
  C9       1.0000 0.20250  0.63880  0.33320  Biso   1.000  C
  O2       1.0000 0.22540  0.59720  0.35310  Biso   1.000  O
  O3       1.0000 0.22460  0.68240  0.31910  Biso   1.000  O
  C10      1.0000 0.91220  0.56080  0.21550  Biso   1.000  C
  H7       1.0000 0.93330  0.57360  0.18340  Biso   1.000  H
  H8       1.0000 0.93680  0.53870  0.23880  Biso   1.000  H
  O4       1.0000 0.87030  0.53000  0.19860  Biso   1.000  O
  C11      1.0000 0.86950  0.47460  0.18780  Biso   1.000  C
  C12      1.0000 0.91560  0.44770  0.17170  Biso   1.000  C
  H9       1.0000 0.94970  0.46600  0.16960  Biso   1.000  H
  C13      1.0000 0.91060  0.38900  0.15770  Biso   1.000  C
  H10      1.0000 0.93990  0.37090  0.13980  Biso   1.000  H
  C14      1.0000 0.86290  0.35970  0.17080  Biso   1.000  C
  C15      1.0000 0.81810  0.38800  0.18970  Biso   1.000  C
  H11      1.0000 0.78470  0.36910  0.19590  Biso   1.000  H
  C16      1.0000 0.82120  0.44740  0.20050  Biso   1.000  C
  H12      1.0000 0.79110  0.46650  0.21580  Biso   1.000  H
  C17      1.0000 0.86200  0.29710  0.16520  Biso   1.000  C
  O5       1.0000 0.90170  0.27430  0.14680  Biso   1.000  O
  O6       1.0000 0.81550  0.27530  0.18060  Biso   1.000  O
  C18      1.0000 0.85780  0.65060  0.20510  Biso   1.000  C
  H13      1.0000 0.82890  0.63050  0.18510  Biso   1.000  H
  H14      1.0000 0.84160  0.68270  0.22370  Biso   1.000  H
  O7       1.0000 0.90010  0.66520  0.17120  Biso   1.000  O
  C19      1.0000 0.88570  0.69940  0.12690  Biso   1.000  C
  C20      1.0000 0.83300  0.71840  0.11890  Biso   1.000  C
  H15      1.0000 0.80490  0.71240  0.14510  Biso   1.000  H
  C21      1.0000 0.82230  0.74980  0.06490  Biso   1.000  C
  H16      1.0000 0.78630  0.75550  0.05140  Biso   1.000  H
  C22      1.0000 0.86830  0.76940  0.03710  Biso   1.000  C
  C23      1.0000 0.92150  0.74990  0.04630  Biso   1.000  C
  H17      1.0000 0.95020  0.75730  0.02130  Biso   1.000  H
  C24      1.0000 0.93130  0.71720  0.09660  Biso   1.000  C
  H18      1.0000 0.96740  0.70850  0.10800  Biso   1.000  H
  C25      1.0000 0.86960  0.80200  0.98290  Biso   1.000  C
  O8       1.0000 0.91380  0.80290  0.95480  Biso   1.000  O
  O9       1.0000 0.81780  0.83060  0.98130  Biso   1.000  O
  C26      1.0000 0.85090  0.59270  0.29270  Biso   1.000  C
  H19      1.0000 0.82210  0.56880  0.27730  Biso   1.000  H
  H20      1.0000 0.87040  0.57240  0.32180  Biso   1.000  H
  O10      1.0000 0.82780  0.64150  0.31380  Biso   1.000  O
  C27      1.0000 0.80060  0.63470  0.36520  Biso   1.000  C
  C28      1.0000 0.77440  0.68140  0.38520  Biso   1.000  C
  H21      1.0000 0.77700  0.71500  0.36600  Biso   1.000  H
  C29      1.0000 0.74200  0.67750  0.43780  Biso   1.000  C
  H22      1.0000 0.72600  0.70930  0.45330  Biso   1.000  H
  C30      1.0000 0.73570  0.62670  0.46360  Biso   1.000  C
  C31      1.0000 0.75660  0.57820  0.43950  Biso   1.000  C
  H23      1.0000 0.74840  0.54330  0.45440  Biso   1.000  H
  C32      1.0000 0.79300  0.58430  0.38850  Biso   1.000  C
  H24      1.0000 0.81020  0.55310  0.37320  Biso   1.000  H
  C33      1.0000 0.70370  0.63100  0.51800  Biso   1.000  C
  O11      1.0000 0.69910  0.58440  0.54870  Biso   1.000  O
  O12      1.0000 0.66720  0.68130  0.51780  Biso   1.000  O
  Zn1      1.0000 0.30362  0.58752  0.37162  Biso   1.000  Zn
  Zn2      1.0000 0.08743  0.80379  0.12868  Biso   1.000  Zn
  C34      1.0000 0.10940  0.38930  0.24830  Biso   1.000  C
  C35      1.0000 0.05970  0.35420  0.26920  Biso   1.000  C
  H25      1.0000 0.03630  0.34440  0.23760  Biso   1.000  H
  H26      1.0000 0.07370  0.31980  0.28530  Biso   1.000  H
  O13      1.0000 0.03030  0.37930  0.30530  Biso   1.000  O
  C36      1.0000 0.97360  0.37330  0.31170  Biso   1.000  C
  C37      1.0000 0.94470  0.41850  0.32960  Biso   1.000  C
  H27      1.0000 0.96300  0.45210  0.33640  Biso   1.000  H
  C38      1.0000 0.88520  0.41390  0.33810  Biso   1.000  C
  H28      1.0000 0.86480  0.44490  0.34930  Biso   1.000  H
  C39      1.0000 0.85890  0.36430  0.32990  Biso   1.000  C
  C40      1.0000 0.88780  0.31890  0.31060  Biso   1.000  C
  H29      1.0000 0.86960  0.28530  0.30400  Biso   1.000  H
  C41      1.0000 0.94890  0.32410  0.30050  Biso   1.000  C
  H30      1.0000 0.96950  0.29420  0.28670  Biso   1.000  H
  C42      1.0000 0.79750  0.36120  0.33320  Biso   1.000  C
  O14      1.0000 0.77460  0.40280  0.35310  Biso   1.000  O
  O15      1.0000 0.77540  0.31760  0.31910  Biso   1.000  O
  C43      1.0000 0.08780  0.43920  0.21550  Biso   1.000  C
  H31      1.0000 0.06670  0.42640  0.18340  Biso   1.000  H
  H32      1.0000 0.06320  0.46130  0.23880  Biso   1.000  H
  O16      1.0000 0.12970  0.47000  0.19860  Biso   1.000  O
  C44      1.0000 0.13050  0.52540  0.18780  Biso   1.000  C
  C45      1.0000 0.08440  0.55230  0.17170  Biso   1.000  C
  H33      1.0000 0.05030  0.53400  0.16960  Biso   1.000  H
  C46      1.0000 0.08940  0.61100  0.15770  Biso   1.000  C
  H34      1.0000 0.06010  0.62910  0.13980  Biso   1.000  H
  C47      1.0000 0.13710  0.64030  0.17080  Biso   1.000  C
  C48      1.0000 0.18190  0.61200  0.18970  Biso   1.000  C
  H35      1.0000 0.21530  0.63090  0.19590  Biso   1.000  H
  C49      1.0000 0.17880  0.55260  0.20050  Biso   1.000  C
  H36      1.0000 0.20890  0.53350  0.21580  Biso   1.000  H
  C50      1.0000 0.13800  0.70290  0.16520  Biso   1.000  C
  O17      1.0000 0.09830  0.72570  0.14680  Biso   1.000  O
  O18      1.0000 0.18450  0.72470  0.18060  Biso   1.000  O
  C51      1.0000 0.14220  0.34940  0.20510  Biso   1.000  C
  H37      1.0000 0.17110  0.36950  0.18510  Biso   1.000  H
  H38      1.0000 0.15840  0.31730  0.22370  Biso   1.000  H
  O19      1.0000 0.09990  0.33480  0.17120  Biso   1.000  O
  C52      1.0000 0.11430  0.30060  0.12690  Biso   1.000  C
  C53      1.0000 0.16700  0.28160  0.11890  Biso   1.000  C
  H39      1.0000 0.19510  0.28760  0.14510  Biso   1.000  H
  C54      1.0000 0.17770  0.25020  0.06490  Biso   1.000  C
  H40      1.0000 0.21370  0.24450  0.05140  Biso   1.000  H
  C55      1.0000 0.13170  0.23060  0.03710  Biso   1.000  C
  C56      1.0000 0.07850  0.25010  0.04630  Biso   1.000  C
  H41      1.0000 0.04980  0.24270  0.02130  Biso   1.000  H
  C57      1.0000 0.06870  0.28280  0.09660  Biso   1.000  C
  H42      1.0000 0.03260  0.29150  0.10800  Biso   1.000  H
  C58      1.0000 0.13040  0.19800  0.98290  Biso   1.000  C
  O20      1.0000 0.08620  0.19710  0.95480  Biso   1.000  O
  O21      1.0000 0.18220  0.16940  0.98130  Biso   1.000  O
  C59      1.0000 0.14910  0.40730  0.29270  Biso   1.000  C
  H43      1.0000 0.17790  0.43120  0.27730  Biso   1.000  H
  H44      1.0000 0.12960  0.42760  0.32180  Biso   1.000  H
  O22      1.0000 0.17220  0.35850  0.31380  Biso   1.000  O
  C60      1.0000 0.19940  0.36530  0.36520  Biso   1.000  C
  C61      1.0000 0.22560  0.31860  0.38520  Biso   1.000  C
  H45      1.0000 0.22300  0.28500  0.36600  Biso   1.000  H
  C62      1.0000 0.25800  0.32250  0.43780  Biso   1.000  C
  H46      1.0000 0.27400  0.29070  0.45330  Biso   1.000  H
  C63      1.0000 0.26430  0.37330  0.46360  Biso   1.000  C
  C64      1.0000 0.24340  0.42180  0.43950  Biso   1.000  C
  H47      1.0000 0.25160  0.45670  0.45440  Biso   1.000  H
  C65      1.0000 0.20700  0.41570  0.38850  Biso   1.000  C
  H48      1.0000 0.18980  0.44690  0.37320  Biso   1.000  H
  C66      1.0000 0.29630  0.36900  0.51800  Biso   1.000  C
  O23      1.0000 0.30090  0.41560  0.54870  Biso   1.000  O
  O24      1.0000 0.33280  0.31870  0.51780  Biso   1.000  O
  Zn3      1.0000 0.69638  0.41248  0.37162  Biso   1.000  Zn
  Zn4      1.0000 0.91257  0.19621  0.12868  Biso   1.000  Zn
  C67      1.0000 0.10940  0.61070  0.75170  Biso   1.000  C
  C68      1.0000 0.05970  0.64580  0.73080  Biso   1.000  C
  H49      1.0000 0.03630  0.65560  0.76240  Biso   1.000  H
  H50      1.0000 0.07370  0.68020  0.71470  Biso   1.000  H
  O25      1.0000 0.03030  0.62070  0.69470  Biso   1.000  O
  C69      1.0000 0.97360  0.62670  0.68830  Biso   1.000  C
  C70      1.0000 0.94470  0.58150  0.67040  Biso   1.000  C
  H51      1.0000 0.96300  0.54790  0.66360  Biso   1.000  H
  C71      1.0000 0.88520  0.58610  0.66190  Biso   1.000  C
  H52      1.0000 0.86480  0.55510  0.65070  Biso   1.000  H
  C72      1.0000 0.85890  0.63570  0.67010  Biso   1.000  C
  C73      1.0000 0.88780  0.68110  0.68940  Biso   1.000  C
  H53      1.0000 0.86960  0.71470  0.69600  Biso   1.000  H
  C74      1.0000 0.94890  0.67590  0.69950  Biso   1.000  C
  H54      1.0000 0.96950  0.70580  0.71330  Biso   1.000  H
  C75      1.0000 0.79750  0.63880  0.66680  Biso   1.000  C
  O26      1.0000 0.77460  0.59720  0.64690  Biso   1.000  O
  O27      1.0000 0.77540  0.68240  0.68090  Biso   1.000  O
  C76      1.0000 0.08780  0.56080  0.78450  Biso   1.000  C
  H55      1.0000 0.06670  0.57360  0.81660  Biso   1.000  H
  H56      1.0000 0.06320  0.53870  0.76120  Biso   1.000  H
  O28      1.0000 0.12970  0.53000  0.80140  Biso   1.000  O
  C77      1.0000 0.13050  0.47460  0.81220  Biso   1.000  C
  C78      1.0000 0.08440  0.44770  0.82830  Biso   1.000  C
  H57      1.0000 0.05030  0.46600  0.83040  Biso   1.000  H
  C79      1.0000 0.08940  0.38900  0.84230  Biso   1.000  C
  H58      1.0000 0.06010  0.37090  0.86020  Biso   1.000  H
  C80      1.0000 0.13710  0.35970  0.82920  Biso   1.000  C
  C81      1.0000 0.18190  0.38800  0.81030  Biso   1.000  C
  H59      1.0000 0.21530  0.36910  0.80410  Biso   1.000  H
  C82      1.0000 0.17880  0.44740  0.79950  Biso   1.000  C
  H60      1.0000 0.20890  0.46650  0.78420  Biso   1.000  H
  C83      1.0000 0.13800  0.29710  0.83480  Biso   1.000  C
  O29      1.0000 0.09830  0.27430  0.85320  Biso   1.000  O
  O30      1.0000 0.18450  0.27530  0.81940  Biso   1.000  O
  C84      1.0000 0.14220  0.65060  0.79490  Biso   1.000  C
  H61      1.0000 0.17110  0.63050  0.81490  Biso   1.000  H
  H62      1.0000 0.15840  0.68270  0.77630  Biso   1.000  H
  O31      1.0000 0.09990  0.66520  0.82880  Biso   1.000  O
  C85      1.0000 0.11430  0.69940  0.87310  Biso   1.000  C
  C86      1.0000 0.16700  0.71840  0.88110  Biso   1.000  C
  H63      1.0000 0.19510  0.71240  0.85490  Biso   1.000  H
  C87      1.0000 0.17770  0.74980  0.93510  Biso   1.000  C
  H64      1.0000 0.21370  0.75550  0.94860  Biso   1.000  H
  C88      1.0000 0.13170  0.76940  0.96290  Biso   1.000  C
  C89      1.0000 0.07850  0.74990  0.95370  Biso   1.000  C
  H65      1.0000 0.04980  0.75730  0.97870  Biso   1.000  H
  C90      1.0000 0.06870  0.71720  0.90340  Biso   1.000  C
  H66      1.0000 0.03260  0.70850  0.89200  Biso   1.000  H
  C91      1.0000 0.13040  0.80200  0.01710  Biso   1.000  C
  O32      1.0000 0.08620  0.80290  0.04520  Biso   1.000  O
  O33      1.0000 0.18220  0.83060  0.01870  Biso   1.000  O
  C92      1.0000 0.14910  0.59270  0.70730  Biso   1.000  C
  H67      1.0000 0.17790  0.56880  0.72270  Biso   1.000  H
  H68      1.0000 0.12960  0.57240  0.67820  Biso   1.000  H
  O34      1.0000 0.17220  0.64150  0.68620  Biso   1.000  O
  C93      1.0000 0.19940  0.63470  0.63480  Biso   1.000  C
  C94      1.0000 0.22560  0.68140  0.61480  Biso   1.000  C
  H69      1.0000 0.22300  0.71500  0.63400  Biso   1.000  H
  C95      1.0000 0.25800  0.67750  0.56220  Biso   1.000  C
  H70      1.0000 0.27400  0.70930  0.54670  Biso   1.000  H
  C96      1.0000 0.26430  0.62670  0.53640  Biso   1.000  C
  C97      1.0000 0.24340  0.57820  0.56050  Biso   1.000  C
  H71      1.0000 0.25160  0.54330  0.54560  Biso   1.000  H
  C98      1.0000 0.20700  0.58430  0.61150  Biso   1.000  C
  H72      1.0000 0.18980  0.55310  0.62680  Biso   1.000  H
  C99      1.0000 0.29630  0.63100  0.48200  Biso   1.000  C
  O35      1.0000 0.30090  0.58440  0.45130  Biso   1.000  O
  O36      1.0000 0.33280  0.68130  0.48220  Biso   1.000  O
  Zn5      1.0000 0.69638  0.58752  0.62838  Biso   1.000  Zn
  Zn6      1.0000 0.91257  0.80379  0.87132  Biso   1.000  Zn
  C100     1.0000 0.89060  0.38930  0.75170  Biso   1.000  C
  C101     1.0000 0.94030  0.35420  0.73080  Biso   1.000  C
  H73      1.0000 0.96370  0.34440  0.76240  Biso   1.000  H
  H74      1.0000 0.92630  0.31980  0.71470  Biso   1.000  H
  O37      1.0000 0.96970  0.37930  0.69470  Biso   1.000  O
  C102     1.0000 0.02640  0.37330  0.68830  Biso   1.000  C
  C103     1.0000 0.05530  0.41850  0.67040  Biso   1.000  C
  H75      1.0000 0.03700  0.45210  0.66360  Biso   1.000  H
  C104     1.0000 0.11480  0.41390  0.66190  Biso   1.000  C
  H76      1.0000 0.13520  0.44490  0.65070  Biso   1.000  H
  C105     1.0000 0.14110  0.36430  0.67010  Biso   1.000  C
  C106     1.0000 0.11220  0.31890  0.68940  Biso   1.000  C
  H77      1.0000 0.13040  0.28530  0.69600  Biso   1.000  H
  C107     1.0000 0.05110  0.32410  0.69950  Biso   1.000  C
  H78      1.0000 0.03050  0.29420  0.71330  Biso   1.000  H
  C108     1.0000 0.20250  0.36120  0.66680  Biso   1.000  C
  O38      1.0000 0.22540  0.40280  0.64690  Biso   1.000  O
  O39      1.0000 0.22460  0.31760  0.68090  Biso   1.000  O
  C109     1.0000 0.91220  0.43920  0.78450  Biso   1.000  C
  H79      1.0000 0.93330  0.42640  0.81660  Biso   1.000  H
  H80      1.0000 0.93680  0.46130  0.76120  Biso   1.000  H
  O40      1.0000 0.87030  0.47000  0.80140  Biso   1.000  O
  C110     1.0000 0.86950  0.52540  0.81220  Biso   1.000  C
  C111     1.0000 0.91560  0.55230  0.82830  Biso   1.000  C
  H81      1.0000 0.94970  0.53400  0.83040  Biso   1.000  H
  C112     1.0000 0.91060  0.61100  0.84230  Biso   1.000  C
  H82      1.0000 0.93990  0.62910  0.86020  Biso   1.000  H
  C113     1.0000 0.86290  0.64030  0.82920  Biso   1.000  C
  C114     1.0000 0.81810  0.61200  0.81030  Biso   1.000  C
  H83      1.0000 0.78470  0.63090  0.80410  Biso   1.000  H
  C115     1.0000 0.82120  0.55260  0.79950  Biso   1.000  C
  H84      1.0000 0.79110  0.53350  0.78420  Biso   1.000  H
  C116     1.0000 0.86200  0.70290  0.83480  Biso   1.000  C
  O41      1.0000 0.90170  0.72570  0.85320  Biso   1.000  O
  O42      1.0000 0.81550  0.72470  0.81940  Biso   1.000  O
  C117     1.0000 0.85780  0.34940  0.79490  Biso   1.000  C
  H85      1.0000 0.82890  0.36950  0.81490  Biso   1.000  H
  H86      1.0000 0.84160  0.31730  0.77630  Biso   1.000  H
  O43      1.0000 0.90010  0.33480  0.82880  Biso   1.000  O
  C118     1.0000 0.88570  0.30060  0.87310  Biso   1.000  C
  C119     1.0000 0.83300  0.28160  0.88110  Biso   1.000  C
  H87      1.0000 0.80490  0.28760  0.85490  Biso   1.000  H
  C120     1.0000 0.82230  0.25020  0.93510  Biso   1.000  C
  H88      1.0000 0.78630  0.24450  0.94860  Biso   1.000  H
  C121     1.0000 0.86830  0.23060  0.96290  Biso   1.000  C
  C122     1.0000 0.92150  0.25010  0.95370  Biso   1.000  C
  H89      1.0000 0.95020  0.24270  0.97870  Biso   1.000  H
  C123     1.0000 0.93130  0.28280  0.90340  Biso   1.000  C
  H90      1.0000 0.96740  0.29150  0.89200  Biso   1.000  H
  C124     1.0000 0.86960  0.19800  0.01710  Biso   1.000  C
  O44      1.0000 0.91380  0.19710  0.04520  Biso   1.000  O
  O45      1.0000 0.81780  0.16940  0.01870  Biso   1.000  O
  C125     1.0000 0.85090  0.40730  0.70730  Biso   1.000  C
  H91      1.0000 0.82210  0.43120  0.72270  Biso   1.000  H
  H92      1.0000 0.87040  0.42760  0.67820  Biso   1.000  H
  O46      1.0000 0.82780  0.35850  0.68620  Biso   1.000  O
  C126     1.0000 0.80060  0.36530  0.63480  Biso   1.000  C
  C127     1.0000 0.77440  0.31860  0.61480  Biso   1.000  C
  H93      1.0000 0.77700  0.28500  0.63400  Biso   1.000  H
  C128     1.0000 0.74200  0.32250  0.56220  Biso   1.000  C
  H94      1.0000 0.72600  0.29070  0.54670  Biso   1.000  H
  C129     1.0000 0.73570  0.37330  0.53640  Biso   1.000  C
  C130     1.0000 0.75660  0.42180  0.56050  Biso   1.000  C
  H95      1.0000 0.74840  0.45670  0.54560  Biso   1.000  H
  C131     1.0000 0.79300  0.41570  0.61150  Biso   1.000  C
  H96      1.0000 0.81020  0.44690  0.62680  Biso   1.000  H
  C132     1.0000 0.70370  0.36900  0.48200  Biso   1.000  C
  O47      1.0000 0.69910  0.41560  0.45130  Biso   1.000  O
  O48      1.0000 0.66720  0.31870  0.48220  Biso   1.000  O
  Zn7      1.0000 0.30362  0.41248  0.62838  Biso   1.000  Zn
  Zn8      1.0000 0.08743  0.19621  0.87132  Biso   1.000  Zn
  C133     1.0000 0.24830  0.89060  0.61070  Biso   1.000  C
  C134     1.0000 0.26920  0.94030  0.64580  Biso   1.000  C
  H97      1.0000 0.23760  0.96370  0.65560  Biso   1.000  H
  H98      1.0000 0.28530  0.92630  0.68020  Biso   1.000  H
  O49      1.0000 0.30530  0.96970  0.62070  Biso   1.000  O
  C135     1.0000 0.31170  0.02640  0.62670  Biso   1.000  C
  C136     1.0000 0.32960  0.05530  0.58150  Biso   1.000  C
  H99      1.0000 0.33640  0.03700  0.54790  Biso   1.000  H
  C137     1.0000 0.33810  0.11480  0.58610  Biso   1.000  C
  H100     1.0000 0.34930  0.13520  0.55510  Biso   1.000  H
  C138     1.0000 0.32990  0.14110  0.63570  Biso   1.000  C
  C139     1.0000 0.31060  0.11220  0.68110  Biso   1.000  C
  H101     1.0000 0.30400  0.13040  0.71470  Biso   1.000  H
  C140     1.0000 0.30050  0.05110  0.67590  Biso   1.000  C
  H102     1.0000 0.28670  0.03050  0.70580  Biso   1.000  H
  C141     1.0000 0.33320  0.20250  0.63880  Biso   1.000  C
  O50      1.0000 0.35310  0.22540  0.59720  Biso   1.000  O
  O51      1.0000 0.31910  0.22460  0.68240  Biso   1.000  O
  C142     1.0000 0.21550  0.91220  0.56080  Biso   1.000  C
  H103     1.0000 0.18340  0.93330  0.57360  Biso   1.000  H
  H104     1.0000 0.23880  0.93680  0.53870  Biso   1.000  H
  O52      1.0000 0.19860  0.87030  0.53000  Biso   1.000  O
  C143     1.0000 0.18780  0.86950  0.47460  Biso   1.000  C
  C144     1.0000 0.17170  0.91560  0.44770  Biso   1.000  C
  H105     1.0000 0.16960  0.94970  0.46600  Biso   1.000  H
  C145     1.0000 0.15770  0.91060  0.38900  Biso   1.000  C
  H106     1.0000 0.13980  0.93990  0.37090  Biso   1.000  H
  C146     1.0000 0.17080  0.86290  0.35970  Biso   1.000  C
  C147     1.0000 0.18970  0.81810  0.38800  Biso   1.000  C
  H107     1.0000 0.19590  0.78470  0.36910  Biso   1.000  H
  C148     1.0000 0.20050  0.82120  0.44740  Biso   1.000  C
  H108     1.0000 0.21580  0.79110  0.46650  Biso   1.000  H
  C149     1.0000 0.16520  0.86200  0.29710  Biso   1.000  C
  O53      1.0000 0.14680  0.90170  0.27430  Biso   1.000  O
  O54      1.0000 0.18060  0.81550  0.27530  Biso   1.000  O
  C150     1.0000 0.20510  0.85780  0.65060  Biso   1.000  C
  H109     1.0000 0.18510  0.82890  0.63050  Biso   1.000  H
  H110     1.0000 0.22370  0.84160  0.68270  Biso   1.000  H
  O55      1.0000 0.17120  0.90010  0.66520  Biso   1.000  O
  C151     1.0000 0.12690  0.88570  0.69940  Biso   1.000  C
  C152     1.0000 0.11890  0.83300  0.71840  Biso   1.000  C
  H111     1.0000 0.14510  0.80490  0.71240  Biso   1.000  H
  C153     1.0000 0.06490  0.82230  0.74980  Biso   1.000  C
  H112     1.0000 0.05140  0.78630  0.75550  Biso   1.000  H
  C154     1.0000 0.03710  0.86830  0.76940  Biso   1.000  C
  C155     1.0000 0.04630  0.92150  0.74990  Biso   1.000  C
  H113     1.0000 0.02130  0.95020  0.75730  Biso   1.000  H
  C156     1.0000 0.09660  0.93130  0.71720  Biso   1.000  C
  H114     1.0000 0.10800  0.96740  0.70850  Biso   1.000  H
  C157     1.0000 0.98290  0.86960  0.80200  Biso   1.000  C
  O56      1.0000 0.95480  0.91380  0.80290  Biso   1.000  O
  O57      1.0000 0.98130  0.81780  0.83060  Biso   1.000  O
  C158     1.0000 0.29270  0.85090  0.59270  Biso   1.000  C
  H115     1.0000 0.27730  0.82210  0.56880  Biso   1.000  H
  H116     1.0000 0.32180  0.87040  0.57240  Biso   1.000  H
  O58      1.0000 0.31380  0.82780  0.64150  Biso   1.000  O
  C159     1.0000 0.36520  0.80060  0.63470  Biso   1.000  C
  C160     1.0000 0.38520  0.77440  0.68140  Biso   1.000  C
  H117     1.0000 0.36600  0.77700  0.71500  Biso   1.000  H
  C161     1.0000 0.43780  0.74200  0.67750  Biso   1.000  C
  H118     1.0000 0.45330  0.72600  0.70930  Biso   1.000  H
  C162     1.0000 0.46360  0.73570  0.62670  Biso   1.000  C
  C163     1.0000 0.43950  0.75660  0.57820  Biso   1.000  C
  H119     1.0000 0.45440  0.74840  0.54330  Biso   1.000  H
  C164     1.0000 0.38850  0.79300  0.58430  Biso   1.000  C
  H120     1.0000 0.37320  0.81020  0.55310  Biso   1.000  H
  C165     1.0000 0.51800  0.70370  0.63100  Biso   1.000  C
  O59      1.0000 0.54870  0.69910  0.58440  Biso   1.000  O
  O60      1.0000 0.51780  0.66720  0.68130  Biso   1.000  O
  Zn9      1.0000 0.37162  0.30362  0.58752  Biso   1.000  Zn
  Zn10     1.0000 0.12868  0.08743  0.80379  Biso   1.000  Zn
  C166     1.0000 0.24830  0.10940  0.38930  Biso   1.000  C
  C167     1.0000 0.26920  0.05970  0.35420  Biso   1.000  C
  H121     1.0000 0.23760  0.03630  0.34440  Biso   1.000  H
  H122     1.0000 0.28530  0.07370  0.31980  Biso   1.000  H
  O61      1.0000 0.30530  0.03030  0.37930  Biso   1.000  O
  C168     1.0000 0.31170  0.97360  0.37330  Biso   1.000  C
  C169     1.0000 0.32960  0.94470  0.41850  Biso   1.000  C
  H123     1.0000 0.33640  0.96300  0.45210  Biso   1.000  H
  C170     1.0000 0.33810  0.88520  0.41390  Biso   1.000  C
  H124     1.0000 0.34930  0.86480  0.44490  Biso   1.000  H
  C171     1.0000 0.32990  0.85890  0.36430  Biso   1.000  C
  C172     1.0000 0.31060  0.88780  0.31890  Biso   1.000  C
  H125     1.0000 0.30400  0.86960  0.28530  Biso   1.000  H
  C173     1.0000 0.30050  0.94890  0.32410  Biso   1.000  C
  H126     1.0000 0.28670  0.96950  0.29420  Biso   1.000  H
  C174     1.0000 0.33320  0.79750  0.36120  Biso   1.000  C
  O62      1.0000 0.35310  0.77460  0.40280  Biso   1.000  O
  O63      1.0000 0.31910  0.77540  0.31760  Biso   1.000  O
  C175     1.0000 0.21550  0.08780  0.43920  Biso   1.000  C
  H127     1.0000 0.18340  0.06670  0.42640  Biso   1.000  H
  H128     1.0000 0.23880  0.06320  0.46130  Biso   1.000  H
  O64      1.0000 0.19860  0.12970  0.47000  Biso   1.000  O
  C176     1.0000 0.18780  0.13050  0.52540  Biso   1.000  C
  C177     1.0000 0.17170  0.08440  0.55230  Biso   1.000  C
  H129     1.0000 0.16960  0.05030  0.53400  Biso   1.000  H
  C178     1.0000 0.15770  0.08940  0.61100  Biso   1.000  C
  H130     1.0000 0.13980  0.06010  0.62910  Biso   1.000  H
  C179     1.0000 0.17080  0.13710  0.64030  Biso   1.000  C
  C180     1.0000 0.18970  0.18190  0.61200  Biso   1.000  C
  H131     1.0000 0.19590  0.21530  0.63090  Biso   1.000  H
  C181     1.0000 0.20050  0.17880  0.55260  Biso   1.000  C
  H132     1.0000 0.21580  0.20890  0.53350  Biso   1.000  H
  C182     1.0000 0.16520  0.13800  0.70290  Biso   1.000  C
  O65      1.0000 0.14680  0.09830  0.72570  Biso   1.000  O
  O66      1.0000 0.18060  0.18450  0.72470  Biso   1.000  O
  C183     1.0000 0.20510  0.14220  0.34940  Biso   1.000  C
  H133     1.0000 0.18510  0.17110  0.36950  Biso   1.000  H
  H134     1.0000 0.22370  0.15840  0.31730  Biso   1.000  H
  O67      1.0000 0.17120  0.09990  0.33480  Biso   1.000  O
  C184     1.0000 0.12690  0.11430  0.30060  Biso   1.000  C
  C185     1.0000 0.11890  0.16700  0.28160  Biso   1.000  C
  H135     1.0000 0.14510  0.19510  0.28760  Biso   1.000  H
  C186     1.0000 0.06490  0.17770  0.25020  Biso   1.000  C
  H136     1.0000 0.05140  0.21370  0.24450  Biso   1.000  H
  C187     1.0000 0.03710  0.13170  0.23060  Biso   1.000  C
  C188     1.0000 0.04630  0.07850  0.25010  Biso   1.000  C
  H137     1.0000 0.02130  0.04980  0.24270  Biso   1.000  H
  C189     1.0000 0.09660  0.06870  0.28280  Biso   1.000  C
  H138     1.0000 0.10800  0.03260  0.29150  Biso   1.000  H
  C190     1.0000 0.98290  0.13040  0.19800  Biso   1.000  C
  O68      1.0000 0.95480  0.08620  0.19710  Biso   1.000  O
  O69      1.0000 0.98130  0.18220  0.16940  Biso   1.000  O
  C191     1.0000 0.29270  0.14910  0.40730  Biso   1.000  C
  H139     1.0000 0.27730  0.17790  0.43120  Biso   1.000  H
  H140     1.0000 0.32180  0.12960  0.42760  Biso   1.000  H
  O70      1.0000 0.31380  0.17220  0.35850  Biso   1.000  O
  C192     1.0000 0.36520  0.19940  0.36530  Biso   1.000  C
  C193     1.0000 0.38520  0.22560  0.31860  Biso   1.000  C
  H141     1.0000 0.36600  0.22300  0.28500  Biso   1.000  H
  C194     1.0000 0.43780  0.25800  0.32250  Biso   1.000  C
  H142     1.0000 0.45330  0.27400  0.29070  Biso   1.000  H
  C195     1.0000 0.46360  0.26430  0.37330  Biso   1.000  C
  C196     1.0000 0.43950  0.24340  0.42180  Biso   1.000  C
  H143     1.0000 0.45440  0.25160  0.45670  Biso   1.000  H
  C197     1.0000 0.38850  0.20700  0.41570  Biso   1.000  C
  H144     1.0000 0.37320  0.18980  0.44690  Biso   1.000  H
  C198     1.0000 0.51800  0.29630  0.36900  Biso   1.000  C
  O71      1.0000 0.54870  0.30090  0.41560  Biso   1.000  O
  O72      1.0000 0.51780  0.33280  0.31870  Biso   1.000  O
  Zn11     1.0000 0.37162  0.69638  0.41248  Biso   1.000  Zn
  Zn12     1.0000 0.12868  0.91257  0.19621  Biso   1.000  Zn
  C199     1.0000 0.75170  0.10940  0.61070  Biso   1.000  C
  C200     1.0000 0.73080  0.05970  0.64580  Biso   1.000  C
  H145     1.0000 0.76240  0.03630  0.65560  Biso   1.000  H
  H146     1.0000 0.71470  0.07370  0.68020  Biso   1.000  H
  O73      1.0000 0.69470  0.03030  0.62070  Biso   1.000  O
  C201     1.0000 0.68830  0.97360  0.62670  Biso   1.000  C
  C202     1.0000 0.67040  0.94470  0.58150  Biso   1.000  C
  H147     1.0000 0.66360  0.96300  0.54790  Biso   1.000  H
  C203     1.0000 0.66190  0.88520  0.58610  Biso   1.000  C
  H148     1.0000 0.65070  0.86480  0.55510  Biso   1.000  H
  C204     1.0000 0.67010  0.85890  0.63570  Biso   1.000  C
  C205     1.0000 0.68940  0.88780  0.68110  Biso   1.000  C
  H149     1.0000 0.69600  0.86960  0.71470  Biso   1.000  H
  C206     1.0000 0.69950  0.94890  0.67590  Biso   1.000  C
  H150     1.0000 0.71330  0.96950  0.70580  Biso   1.000  H
  C207     1.0000 0.66680  0.79750  0.63880  Biso   1.000  C
  O74      1.0000 0.64690  0.77460  0.59720  Biso   1.000  O
  O75      1.0000 0.68090  0.77540  0.68240  Biso   1.000  O
  C208     1.0000 0.78450  0.08780  0.56080  Biso   1.000  C
  H151     1.0000 0.81660  0.06670  0.57360  Biso   1.000  H
  H152     1.0000 0.76120  0.06320  0.53870  Biso   1.000  H
  O76      1.0000 0.80140  0.12970  0.53000  Biso   1.000  O
  C209     1.0000 0.81220  0.13050  0.47460  Biso   1.000  C
  C210     1.0000 0.82830  0.08440  0.44770  Biso   1.000  C
  H153     1.0000 0.83040  0.05030  0.46600  Biso   1.000  H
  C211     1.0000 0.84230  0.08940  0.38900  Biso   1.000  C
  H154     1.0000 0.86020  0.06010  0.37090  Biso   1.000  H
  C212     1.0000 0.82920  0.13710  0.35970  Biso   1.000  C
  C213     1.0000 0.81030  0.18190  0.38800  Biso   1.000  C
  H155     1.0000 0.80410  0.21530  0.36910  Biso   1.000  H
  C214     1.0000 0.79950  0.17880  0.44740  Biso   1.000  C
  H156     1.0000 0.78420  0.20890  0.46650  Biso   1.000  H
  C215     1.0000 0.83480  0.13800  0.29710  Biso   1.000  C
  O77      1.0000 0.85320  0.09830  0.27430  Biso   1.000  O
  O78      1.0000 0.81940  0.18450  0.27530  Biso   1.000  O
  C216     1.0000 0.79490  0.14220  0.65060  Biso   1.000  C
  H157     1.0000 0.81490  0.17110  0.63050  Biso   1.000  H
  H158     1.0000 0.77630  0.15840  0.68270  Biso   1.000  H
  O79      1.0000 0.82880  0.09990  0.66520  Biso   1.000  O
  C217     1.0000 0.87310  0.11430  0.69940  Biso   1.000  C
  C218     1.0000 0.88110  0.16700  0.71840  Biso   1.000  C
  H159     1.0000 0.85490  0.19510  0.71240  Biso   1.000  H
  C219     1.0000 0.93510  0.17770  0.74980  Biso   1.000  C
  H160     1.0000 0.94860  0.21370  0.75550  Biso   1.000  H
  C220     1.0000 0.96290  0.13170  0.76940  Biso   1.000  C
  C221     1.0000 0.95370  0.07850  0.74990  Biso   1.000  C
  H161     1.0000 0.97870  0.04980  0.75730  Biso   1.000  H
  C222     1.0000 0.90340  0.06870  0.71720  Biso   1.000  C
  H162     1.0000 0.89200  0.03260  0.70850  Biso   1.000  H
  C223     1.0000 0.01710  0.13040  0.80200  Biso   1.000  C
  O80      1.0000 0.04520  0.08620  0.80290  Biso   1.000  O
  O81      1.0000 0.01870  0.18220  0.83060  Biso   1.000  O
  C224     1.0000 0.70730  0.14910  0.59270  Biso   1.000  C
  H163     1.0000 0.72270  0.17790  0.56880  Biso   1.000  H
  H164     1.0000 0.67820  0.12960  0.57240  Biso   1.000  H
  O82      1.0000 0.68620  0.17220  0.64150  Biso   1.000  O
  C225     1.0000 0.63480  0.19940  0.63470  Biso   1.000  C
  C226     1.0000 0.61480  0.22560  0.68140  Biso   1.000  C
  H165     1.0000 0.63400  0.22300  0.71500  Biso   1.000  H
  C227     1.0000 0.56220  0.25800  0.67750  Biso   1.000  C
  H166     1.0000 0.54670  0.27400  0.70930  Biso   1.000  H
  C228     1.0000 0.53640  0.26430  0.62670  Biso   1.000  C
  C229     1.0000 0.56050  0.24340  0.57820  Biso   1.000  C
  H167     1.0000 0.54560  0.25160  0.54330  Biso   1.000  H
  C230     1.0000 0.61150  0.20700  0.58430  Biso   1.000  C
  H168     1.0000 0.62680  0.18980  0.55310  Biso   1.000  H
  C231     1.0000 0.48200  0.29630  0.63100  Biso   1.000  C
  O83      1.0000 0.45130  0.30090  0.58440  Biso   1.000  O
  O84      1.0000 0.48220  0.33280  0.68130  Biso   1.000  O
  Zn13     1.0000 0.62838  0.69638  0.58752  Biso   1.000  Zn
  Zn14     1.0000 0.87132  0.91257  0.80379  Biso   1.000  Zn
  C232     1.0000 0.75170  0.89060  0.38930  Biso   1.000  C
  C233     1.0000 0.73080  0.94030  0.35420  Biso   1.000  C
  H169     1.0000 0.76240  0.96370  0.34440  Biso   1.000  H
  H170     1.0000 0.71470  0.92630  0.31980  Biso   1.000  H
  O85      1.0000 0.69470  0.96970  0.37930  Biso   1.000  O
  C234     1.0000 0.68830  0.02640  0.37330  Biso   1.000  C
  C235     1.0000 0.67040  0.05530  0.41850  Biso   1.000  C
  H171     1.0000 0.66360  0.03700  0.45210  Biso   1.000  H
  C236     1.0000 0.66190  0.11480  0.41390  Biso   1.000  C
  H172     1.0000 0.65070  0.13520  0.44490  Biso   1.000  H
  C237     1.0000 0.67010  0.14110  0.36430  Biso   1.000  C
  C238     1.0000 0.68940  0.11220  0.31890  Biso   1.000  C
  H173     1.0000 0.69600  0.13040  0.28530  Biso   1.000  H
  C239     1.0000 0.69950  0.05110  0.32410  Biso   1.000  C
  H174     1.0000 0.71330  0.03050  0.29420  Biso   1.000  H
  C240     1.0000 0.66680  0.20250  0.36120  Biso   1.000  C
  O86      1.0000 0.64690  0.22540  0.40280  Biso   1.000  O
  O87      1.0000 0.68090  0.22460  0.31760  Biso   1.000  O
  C241     1.0000 0.78450  0.91220  0.43920  Biso   1.000  C
  H175     1.0000 0.81660  0.93330  0.42640  Biso   1.000  H
  H176     1.0000 0.76120  0.93680  0.46130  Biso   1.000  H
  O88      1.0000 0.80140  0.87030  0.47000  Biso   1.000  O
  C242     1.0000 0.81220  0.86950  0.52540  Biso   1.000  C
  C243     1.0000 0.82830  0.91560  0.55230  Biso   1.000  C
  H177     1.0000 0.83040  0.94970  0.53400  Biso   1.000  H
  C244     1.0000 0.84230  0.91060  0.61100  Biso   1.000  C
  H178     1.0000 0.86020  0.93990  0.62910  Biso   1.000  H
  C245     1.0000 0.82920  0.86290  0.64030  Biso   1.000  C
  C246     1.0000 0.81030  0.81810  0.61200  Biso   1.000  C
  H179     1.0000 0.80410  0.78470  0.63090  Biso   1.000  H
  C247     1.0000 0.79950  0.82120  0.55260  Biso   1.000  C
  H180     1.0000 0.78420  0.79110  0.53350  Biso   1.000  H
  C248     1.0000 0.83480  0.86200  0.70290  Biso   1.000  C
  O89      1.0000 0.85320  0.90170  0.72570  Biso   1.000  O
  O90      1.0000 0.81940  0.81550  0.72470  Biso   1.000  O
  C249     1.0000 0.79490  0.85780  0.34940  Biso   1.000  C
  H181     1.0000 0.81490  0.82890  0.36950  Biso   1.000  H
  H182     1.0000 0.77630  0.84160  0.31730  Biso   1.000  H
  O91      1.0000 0.82880  0.90010  0.33480  Biso   1.000  O
  C250     1.0000 0.87310  0.88570  0.30060  Biso   1.000  C
  C251     1.0000 0.88110  0.83300  0.28160  Biso   1.000  C
  H183     1.0000 0.85490  0.80490  0.28760  Biso   1.000  H
  C252     1.0000 0.93510  0.82230  0.25020  Biso   1.000  C
  H184     1.0000 0.94860  0.78630  0.24450  Biso   1.000  H
  C253     1.0000 0.96290  0.86830  0.23060  Biso   1.000  C
  C254     1.0000 0.95370  0.92150  0.25010  Biso   1.000  C
  H185     1.0000 0.97870  0.95020  0.24270  Biso   1.000  H
  C255     1.0000 0.90340  0.93130  0.28280  Biso   1.000  C
  H186     1.0000 0.89200  0.96740  0.29150  Biso   1.000  H
  C256     1.0000 0.01710  0.86960  0.19800  Biso   1.000  C
  O92      1.0000 0.04520  0.91380  0.19710  Biso   1.000  O
  O93      1.0000 0.01870  0.81780  0.16940  Biso   1.000  O
  C257     1.0000 0.70730  0.85090  0.40730  Biso   1.000  C
  H187     1.0000 0.72270  0.82210  0.43120  Biso   1.000  H
  H188     1.0000 0.67820  0.87040  0.42760  Biso   1.000  H
  O94      1.0000 0.68620  0.82780  0.35850  Biso   1.000  O
  C258     1.0000 0.63480  0.80060  0.36530  Biso   1.000  C
  C259     1.0000 0.61480  0.77440  0.31860  Biso   1.000  C
  H189     1.0000 0.63400  0.77700  0.28500  Biso   1.000  H
  C260     1.0000 0.56220  0.74200  0.32250  Biso   1.000  C
  H190     1.0000 0.54670  0.72600  0.29070  Biso   1.000  H
  C261     1.0000 0.53640  0.73570  0.37330  Biso   1.000  C
  C262     1.0000 0.56050  0.75660  0.42180  Biso   1.000  C
  H191     1.0000 0.54560  0.74840  0.45670  Biso   1.000  H
  C263     1.0000 0.61150  0.79300  0.41570  Biso   1.000  C
  H192     1.0000 0.62680  0.81020  0.44690  Biso   1.000  H
  C264     1.0000 0.48200  0.70370  0.36900  Biso   1.000  C
  O95      1.0000 0.45130  0.69910  0.41560  Biso   1.000  O
  O96      1.0000 0.48220  0.66720  0.31870  Biso   1.000  O
  Zn15     1.0000 0.62838  0.30362  0.41248  Biso   1.000  Zn
  Zn16     1.0000 0.87132  0.08743  0.19621  Biso   1.000  Zn
  C265     1.0000 0.61070  0.24830  0.89060  Biso   1.000  C
  C266     1.0000 0.64580  0.26920  0.94030  Biso   1.000  C
  H193     1.0000 0.65560  0.23760  0.96370  Biso   1.000  H
  H194     1.0000 0.68020  0.28530  0.92630  Biso   1.000  H
  O97      1.0000 0.62070  0.30530  0.96970  Biso   1.000  O
  C267     1.0000 0.62670  0.31170  0.02640  Biso   1.000  C
  C268     1.0000 0.58150  0.32960  0.05530  Biso   1.000  C
  H195     1.0000 0.54790  0.33640  0.03700  Biso   1.000  H
  C269     1.0000 0.58610  0.33810  0.11480  Biso   1.000  C
  H196     1.0000 0.55510  0.34930  0.13520  Biso   1.000  H
  C270     1.0000 0.63570  0.32990  0.14110  Biso   1.000  C
  C271     1.0000 0.68110  0.31060  0.11220  Biso   1.000  C
  H197     1.0000 0.71470  0.30400  0.13040  Biso   1.000  H
  C272     1.0000 0.67590  0.30050  0.05110  Biso   1.000  C
  H198     1.0000 0.70580  0.28670  0.03050  Biso   1.000  H
  C273     1.0000 0.63880  0.33320  0.20250  Biso   1.000  C
  O98      1.0000 0.59720  0.35310  0.22540  Biso   1.000  O
  O99      1.0000 0.68240  0.31910  0.22460  Biso   1.000  O
  C274     1.0000 0.56080  0.21550  0.91220  Biso   1.000  C
  H199     1.0000 0.57360  0.18340  0.93330  Biso   1.000  H
  H200     1.0000 0.53870  0.23880  0.93680  Biso   1.000  H
  O100     1.0000 0.53000  0.19860  0.87030  Biso   1.000  O
  C275     1.0000 0.47460  0.18780  0.86950  Biso   1.000  C
  C276     1.0000 0.44770  0.17170  0.91560  Biso   1.000  C
  H201     1.0000 0.46600  0.16960  0.94970  Biso   1.000  H
  C277     1.0000 0.38900  0.15770  0.91060  Biso   1.000  C
  H202     1.0000 0.37090  0.13980  0.93990  Biso   1.000  H
  C278     1.0000 0.35970  0.17080  0.86290  Biso   1.000  C
  C279     1.0000 0.38800  0.18970  0.81810  Biso   1.000  C
  H203     1.0000 0.36910  0.19590  0.78470  Biso   1.000  H
  C280     1.0000 0.44740  0.20050  0.82120  Biso   1.000  C
  H204     1.0000 0.46650  0.21580  0.79110  Biso   1.000  H
  C281     1.0000 0.29710  0.16520  0.86200  Biso   1.000  C
  O101     1.0000 0.27430  0.14680  0.90170  Biso   1.000  O
  O102     1.0000 0.27530  0.18060  0.81550  Biso   1.000  O
  C282     1.0000 0.65060  0.20510  0.85780  Biso   1.000  C
  H205     1.0000 0.63050  0.18510  0.82890  Biso   1.000  H
  H206     1.0000 0.68270  0.22370  0.84160  Biso   1.000  H
  O103     1.0000 0.66520  0.17120  0.90010  Biso   1.000  O
  C283     1.0000 0.69940  0.12690  0.88570  Biso   1.000  C
  C284     1.0000 0.71840  0.11890  0.83300  Biso   1.000  C
  H207     1.0000 0.71240  0.14510  0.80490  Biso   1.000  H
  C285     1.0000 0.74980  0.06490  0.82230  Biso   1.000  C
  H208     1.0000 0.75550  0.05140  0.78630  Biso   1.000  H
  C286     1.0000 0.76940  0.03710  0.86830  Biso   1.000  C
  C287     1.0000 0.74990  0.04630  0.92150  Biso   1.000  C
  H209     1.0000 0.75730  0.02130  0.95020  Biso   1.000  H
  C288     1.0000 0.71720  0.09660  0.93130  Biso   1.000  C
  H210     1.0000 0.70850  0.10800  0.96740  Biso   1.000  H
  C289     1.0000 0.80200  0.98290  0.86960  Biso   1.000  C
  O104     1.0000 0.80290  0.95480  0.91380  Biso   1.000  O
  O105     1.0000 0.83060  0.98130  0.81780  Biso   1.000  O
  C290     1.0000 0.59270  0.29270  0.85090  Biso   1.000  C
  H211     1.0000 0.56880  0.27730  0.82210  Biso   1.000  H
  H212     1.0000 0.57240  0.32180  0.87040  Biso   1.000  H
  O106     1.0000 0.64150  0.31380  0.82780  Biso   1.000  O
  C291     1.0000 0.63470  0.36520  0.80060  Biso   1.000  C
  C292     1.0000 0.68140  0.38520  0.77440  Biso   1.000  C
  H213     1.0000 0.71500  0.36600  0.77700  Biso   1.000  H
  C293     1.0000 0.67750  0.43780  0.74200  Biso   1.000  C
  H214     1.0000 0.70930  0.45330  0.72600  Biso   1.000  H
  C294     1.0000 0.62670  0.46360  0.73570  Biso   1.000  C
  C295     1.0000 0.57820  0.43950  0.75660  Biso   1.000  C
  H215     1.0000 0.54330  0.45440  0.74840  Biso   1.000  H
  C296     1.0000 0.58430  0.38850  0.79300  Biso   1.000  C
  H216     1.0000 0.55310  0.37320  0.81020  Biso   1.000  H
  C297     1.0000 0.63100  0.51800  0.70370  Biso   1.000  C
  O107     1.0000 0.58440  0.54870  0.69910  Biso   1.000  O
  O108     1.0000 0.68130  0.51780  0.66720  Biso   1.000  O
  Zn17     1.0000 0.58752  0.37162  0.30362  Biso   1.000  Zn
  Zn18     1.0000 0.80379  0.12868  0.08743  Biso   1.000  Zn
  C298     1.0000 0.38930  0.24830  0.10940  Biso   1.000  C
  C299     1.0000 0.35420  0.26920  0.05970  Biso   1.000  C
  H217     1.0000 0.34440  0.23760  0.03630  Biso   1.000  H
  H218     1.0000 0.31980  0.28530  0.07370  Biso   1.000  H
  O109     1.0000 0.37930  0.30530  0.03030  Biso   1.000  O
  C300     1.0000 0.37330  0.31170  0.97360  Biso   1.000  C
  C301     1.0000 0.41850  0.32960  0.94470  Biso   1.000  C
  H219     1.0000 0.45210  0.33640  0.96300  Biso   1.000  H
  C302     1.0000 0.41390  0.33810  0.88520  Biso   1.000  C
  H220     1.0000 0.44490  0.34930  0.86480  Biso   1.000  H
  C303     1.0000 0.36430  0.32990  0.85890  Biso   1.000  C
  C304     1.0000 0.31890  0.31060  0.88780  Biso   1.000  C
  H221     1.0000 0.28530  0.30400  0.86960  Biso   1.000  H
  C305     1.0000 0.32410  0.30050  0.94890  Biso   1.000  C
  H222     1.0000 0.29420  0.28670  0.96950  Biso   1.000  H
  C306     1.0000 0.36120  0.33320  0.79750  Biso   1.000  C
  O110     1.0000 0.40280  0.35310  0.77460  Biso   1.000  O
  O111     1.0000 0.31760  0.31910  0.77540  Biso   1.000  O
  C307     1.0000 0.43920  0.21550  0.08780  Biso   1.000  C
  H223     1.0000 0.42640  0.18340  0.06670  Biso   1.000  H
  H224     1.0000 0.46130  0.23880  0.06320  Biso   1.000  H
  O112     1.0000 0.47000  0.19860  0.12970  Biso   1.000  O
  C308     1.0000 0.52540  0.18780  0.13050  Biso   1.000  C
  C309     1.0000 0.55230  0.17170  0.08440  Biso   1.000  C
  H225     1.0000 0.53400  0.16960  0.05030  Biso   1.000  H
  C310     1.0000 0.61100  0.15770  0.08940  Biso   1.000  C
  H226     1.0000 0.62910  0.13980  0.06010  Biso   1.000  H
  C311     1.0000 0.64030  0.17080  0.13710  Biso   1.000  C
  C312     1.0000 0.61200  0.18970  0.18190  Biso   1.000  C
  H227     1.0000 0.63090  0.19590  0.21530  Biso   1.000  H
  C313     1.0000 0.55260  0.20050  0.17880  Biso   1.000  C
  H228     1.0000 0.53350  0.21580  0.20890  Biso   1.000  H
  C314     1.0000 0.70290  0.16520  0.13800  Biso   1.000  C
  O113     1.0000 0.72570  0.14680  0.09830  Biso   1.000  O
  O114     1.0000 0.72470  0.18060  0.18450  Biso   1.000  O
  C315     1.0000 0.34940  0.20510  0.14220  Biso   1.000  C
  H229     1.0000 0.36950  0.18510  0.17110  Biso   1.000  H
  H230     1.0000 0.31730  0.22370  0.15840  Biso   1.000  H
  O115     1.0000 0.33480  0.17120  0.09990  Biso   1.000  O
  C316     1.0000 0.30060  0.12690  0.11430  Biso   1.000  C
  C317     1.0000 0.28160  0.11890  0.16700  Biso   1.000  C
  H231     1.0000 0.28760  0.14510  0.19510  Biso   1.000  H
  C318     1.0000 0.25020  0.06490  0.17770  Biso   1.000  C
  H232     1.0000 0.24450  0.05140  0.21370  Biso   1.000  H
  C319     1.0000 0.23060  0.03710  0.13170  Biso   1.000  C
  C320     1.0000 0.25010  0.04630  0.07850  Biso   1.000  C
  H233     1.0000 0.24270  0.02130  0.04980  Biso   1.000  H
  C321     1.0000 0.28280  0.09660  0.06870  Biso   1.000  C
  H234     1.0000 0.29150  0.10800  0.03260  Biso   1.000  H
  C322     1.0000 0.19800  0.98290  0.13040  Biso   1.000  C
  O116     1.0000 0.19710  0.95480  0.08620  Biso   1.000  O
  O117     1.0000 0.16940  0.98130  0.18220  Biso   1.000  O
  C323     1.0000 0.40730  0.29270  0.14910  Biso   1.000  C
  H235     1.0000 0.43120  0.27730  0.17790  Biso   1.000  H
  H236     1.0000 0.42760  0.32180  0.12960  Biso   1.000  H
  O118     1.0000 0.35850  0.31380  0.17220  Biso   1.000  O
  C324     1.0000 0.36530  0.36520  0.19940  Biso   1.000  C
  C325     1.0000 0.31860  0.38520  0.22560  Biso   1.000  C
  H237     1.0000 0.28500  0.36600  0.22300  Biso   1.000  H
  C326     1.0000 0.32250  0.43780  0.25800  Biso   1.000  C
  H238     1.0000 0.29070  0.45330  0.27400  Biso   1.000  H
  C327     1.0000 0.37330  0.46360  0.26430  Biso   1.000  C
  C328     1.0000 0.42180  0.43950  0.24340  Biso   1.000  C
  H239     1.0000 0.45670  0.45440  0.25160  Biso   1.000  H
  C329     1.0000 0.41570  0.38850  0.20700  Biso   1.000  C
  H240     1.0000 0.44690  0.37320  0.18980  Biso   1.000  H
  C330     1.0000 0.36900  0.51800  0.29630  Biso   1.000  C
  O119     1.0000 0.41560  0.54870  0.30090  Biso   1.000  O
  O120     1.0000 0.31870  0.51780  0.33280  Biso   1.000  O
  Zn19     1.0000 0.41248  0.37162  0.69638  Biso   1.000  Zn
  Zn20     1.0000 0.19621  0.12868  0.91257  Biso   1.000  Zn
  C331     1.0000 0.61070  0.75170  0.10940  Biso   1.000  C
  C332     1.0000 0.64580  0.73080  0.05970  Biso   1.000  C
  H241     1.0000 0.65560  0.76240  0.03630  Biso   1.000  H
  H242     1.0000 0.68020  0.71470  0.07370  Biso   1.000  H
  O121     1.0000 0.62070  0.69470  0.03030  Biso   1.000  O
  C333     1.0000 0.62670  0.68830  0.97360  Biso   1.000  C
  C334     1.0000 0.58150  0.67040  0.94470  Biso   1.000  C
  H243     1.0000 0.54790  0.66360  0.96300  Biso   1.000  H
  C335     1.0000 0.58610  0.66190  0.88520  Biso   1.000  C
  H244     1.0000 0.55510  0.65070  0.86480  Biso   1.000  H
  C336     1.0000 0.63570  0.67010  0.85890  Biso   1.000  C
  C337     1.0000 0.68110  0.68940  0.88780  Biso   1.000  C
  H245     1.0000 0.71470  0.69600  0.86960  Biso   1.000  H
  C338     1.0000 0.67590  0.69950  0.94890  Biso   1.000  C
  H246     1.0000 0.70580  0.71330  0.96950  Biso   1.000  H
  C339     1.0000 0.63880  0.66680  0.79750  Biso   1.000  C
  O122     1.0000 0.59720  0.64690  0.77460  Biso   1.000  O
  O123     1.0000 0.68240  0.68090  0.77540  Biso   1.000  O
  C340     1.0000 0.56080  0.78450  0.08780  Biso   1.000  C
  H247     1.0000 0.57360  0.81660  0.06670  Biso   1.000  H
  H248     1.0000 0.53870  0.76120  0.06320  Biso   1.000  H
  O124     1.0000 0.53000  0.80140  0.12970  Biso   1.000  O
  C341     1.0000 0.47460  0.81220  0.13050  Biso   1.000  C
  C342     1.0000 0.44770  0.82830  0.08440  Biso   1.000  C
  H249     1.0000 0.46600  0.83040  0.05030  Biso   1.000  H
  C343     1.0000 0.38900  0.84230  0.08940  Biso   1.000  C
  H250     1.0000 0.37090  0.86020  0.06010  Biso   1.000  H
  C344     1.0000 0.35970  0.82920  0.13710  Biso   1.000  C
  C345     1.0000 0.38800  0.81030  0.18190  Biso   1.000  C
  H251     1.0000 0.36910  0.80410  0.21530  Biso   1.000  H
  C346     1.0000 0.44740  0.79950  0.17880  Biso   1.000  C
  H252     1.0000 0.46650  0.78420  0.20890  Biso   1.000  H
  C347     1.0000 0.29710  0.83480  0.13800  Biso   1.000  C
  O125     1.0000 0.27430  0.85320  0.09830  Biso   1.000  O
  O126     1.0000 0.27530  0.81940  0.18450  Biso   1.000  O
  C348     1.0000 0.65060  0.79490  0.14220  Biso   1.000  C
  H253     1.0000 0.63050  0.81490  0.17110  Biso   1.000  H
  H254     1.0000 0.68270  0.77630  0.15840  Biso   1.000  H
  O127     1.0000 0.66520  0.82880  0.09990  Biso   1.000  O
  C349     1.0000 0.69940  0.87310  0.11430  Biso   1.000  C
  C350     1.0000 0.71840  0.88110  0.16700  Biso   1.000  C
  H255     1.0000 0.71240  0.85490  0.19510  Biso   1.000  H
  C351     1.0000 0.74980  0.93510  0.17770  Biso   1.000  C
  H256     1.0000 0.75550  0.94860  0.21370  Biso   1.000  H
  C352     1.0000 0.76940  0.96290  0.13170  Biso   1.000  C
  C353     1.0000 0.74990  0.95370  0.07850  Biso   1.000  C
  H257     1.0000 0.75730  0.97870  0.04980  Biso   1.000  H
  C354     1.0000 0.71720  0.90340  0.06870  Biso   1.000  C
  H258     1.0000 0.70850  0.89200  0.03260  Biso   1.000  H
  C355     1.0000 0.80200  0.01710  0.13040  Biso   1.000  C
  O128     1.0000 0.80290  0.04520  0.08620  Biso   1.000  O
  O129     1.0000 0.83060  0.01870  0.18220  Biso   1.000  O
  C356     1.0000 0.59270  0.70730  0.14910  Biso   1.000  C
  H259     1.0000 0.56880  0.72270  0.17790  Biso   1.000  H
  H260     1.0000 0.57240  0.67820  0.12960  Biso   1.000  H
  O130     1.0000 0.64150  0.68620  0.17220  Biso   1.000  O
  C357     1.0000 0.63470  0.63480  0.19940  Biso   1.000  C
  C358     1.0000 0.68140  0.61480  0.22560  Biso   1.000  C
  H261     1.0000 0.71500  0.63400  0.22300  Biso   1.000  H
  C359     1.0000 0.67750  0.56220  0.25800  Biso   1.000  C
  H262     1.0000 0.70930  0.54670  0.27400  Biso   1.000  H
  C360     1.0000 0.62670  0.53640  0.26430  Biso   1.000  C
  C361     1.0000 0.57820  0.56050  0.24340  Biso   1.000  C
  H263     1.0000 0.54330  0.54560  0.25160  Biso   1.000  H
  C362     1.0000 0.58430  0.61150  0.20700  Biso   1.000  C
  H264     1.0000 0.55310  0.62680  0.18980  Biso   1.000  H
  C363     1.0000 0.63100  0.48200  0.29630  Biso   1.000  C
  O131     1.0000 0.58440  0.45130  0.30090  Biso   1.000  O
  O132     1.0000 0.68130  0.48220  0.33280  Biso   1.000  O
  Zn21     1.0000 0.58752  0.62838  0.69638  Biso   1.000  Zn
  Zn22     1.0000 0.80379  0.87132  0.91257  Biso   1.000  Zn
  C364     1.0000 0.38930  0.75170  0.89060  Biso   1.000  C
  C365     1.0000 0.35420  0.73080  0.94030  Biso   1.000  C
  H265     1.0000 0.34440  0.76240  0.96370  Biso   1.000  H
  H266     1.0000 0.31980  0.71470  0.92630  Biso   1.000  H
  O133     1.0000 0.37930  0.69470  0.96970  Biso   1.000  O
  C366     1.0000 0.37330  0.68830  0.02640  Biso   1.000  C
  C367     1.0000 0.41850  0.67040  0.05530  Biso   1.000  C
  H267     1.0000 0.45210  0.66360  0.03700  Biso   1.000  H
  C368     1.0000 0.41390  0.66190  0.11480  Biso   1.000  C
  H268     1.0000 0.44490  0.65070  0.13520  Biso   1.000  H
  C369     1.0000 0.36430  0.67010  0.14110  Biso   1.000  C
  C370     1.0000 0.31890  0.68940  0.11220  Biso   1.000  C
  H269     1.0000 0.28530  0.69600  0.13040  Biso   1.000  H
  C371     1.0000 0.32410  0.69950  0.05110  Biso   1.000  C
  H270     1.0000 0.29420  0.71330  0.03050  Biso   1.000  H
  C372     1.0000 0.36120  0.66680  0.20250  Biso   1.000  C
  O134     1.0000 0.40280  0.64690  0.22540  Biso   1.000  O
  O135     1.0000 0.31760  0.68090  0.22460  Biso   1.000  O
  C373     1.0000 0.43920  0.78450  0.91220  Biso   1.000  C
  H271     1.0000 0.42640  0.81660  0.93330  Biso   1.000  H
  H272     1.0000 0.46130  0.76120  0.93680  Biso   1.000  H
  O136     1.0000 0.47000  0.80140  0.87030  Biso   1.000  O
  C374     1.0000 0.52540  0.81220  0.86950  Biso   1.000  C
  C375     1.0000 0.55230  0.82830  0.91560  Biso   1.000  C
  H273     1.0000 0.53400  0.83040  0.94970  Biso   1.000  H
  C376     1.0000 0.61100  0.84230  0.91060  Biso   1.000  C
  H274     1.0000 0.62910  0.86020  0.93990  Biso   1.000  H
  C377     1.0000 0.64030  0.82920  0.86290  Biso   1.000  C
  C378     1.0000 0.61200  0.81030  0.81810  Biso   1.000  C
  H275     1.0000 0.63090  0.80410  0.78470  Biso   1.000  H
  C379     1.0000 0.55260  0.79950  0.82120  Biso   1.000  C
  H276     1.0000 0.53350  0.78420  0.79110  Biso   1.000  H
  C380     1.0000 0.70290  0.83480  0.86200  Biso   1.000  C
  O137     1.0000 0.72570  0.85320  0.90170  Biso   1.000  O
  O138     1.0000 0.72470  0.81940  0.81550  Biso   1.000  O
  C381     1.0000 0.34940  0.79490  0.85780  Biso   1.000  C
  H277     1.0000 0.36950  0.81490  0.82890  Biso   1.000  H
  H278     1.0000 0.31730  0.77630  0.84160  Biso   1.000  H
  O139     1.0000 0.33480  0.82880  0.90010  Biso   1.000  O
  C382     1.0000 0.30060  0.87310  0.88570  Biso   1.000  C
  C383     1.0000 0.28160  0.88110  0.83300  Biso   1.000  C
  H279     1.0000 0.28760  0.85490  0.80490  Biso   1.000  H
  C384     1.0000 0.25020  0.93510  0.82230  Biso   1.000  C
  H280     1.0000 0.24450  0.94860  0.78630  Biso   1.000  H
  C385     1.0000 0.23060  0.96290  0.86830  Biso   1.000  C
  C386     1.0000 0.25010  0.95370  0.92150  Biso   1.000  C
  H281     1.0000 0.24270  0.97870  0.95020  Biso   1.000  H
  C387     1.0000 0.28280  0.90340  0.93130  Biso   1.000  C
  H282     1.0000 0.29150  0.89200  0.96740  Biso   1.000  H
  C388     1.0000 0.19800  0.01710  0.86960  Biso   1.000  C
  O140     1.0000 0.19710  0.04520  0.91380  Biso   1.000  O
  O141     1.0000 0.16940  0.01870  0.81780  Biso   1.000  O
  C389     1.0000 0.40730  0.70730  0.85090  Biso   1.000  C
  H283     1.0000 0.43120  0.72270  0.82210  Biso   1.000  H
  H284     1.0000 0.42760  0.67820  0.87040  Biso   1.000  H
  O142     1.0000 0.35850  0.68620  0.82780  Biso   1.000  O
  C390     1.0000 0.36530  0.63480  0.80060  Biso   1.000  C
  C391     1.0000 0.31860  0.61480  0.77440  Biso   1.000  C
  H285     1.0000 0.28500  0.63400  0.77700  Biso   1.000  H
  C392     1.0000 0.32250  0.56220  0.74200  Biso   1.000  C
  H286     1.0000 0.29070  0.54670  0.72600  Biso   1.000  H
  C393     1.0000 0.37330  0.53640  0.73570  Biso   1.000  C
  C394     1.0000 0.42180  0.56050  0.75660  Biso   1.000  C
  H287     1.0000 0.45670  0.54560  0.74840  Biso   1.000  H
  C395     1.0000 0.41570  0.61150  0.79300  Biso   1.000  C
  H288     1.0000 0.44690  0.62680  0.81020  Biso   1.000  H
  C396     1.0000 0.36900  0.48200  0.70370  Biso   1.000  C
  O143     1.0000 0.41560  0.45130  0.69910  Biso   1.000  O
  O144     1.0000 0.31870  0.48220  0.66720  Biso   1.000  O
  Zn23     1.0000 0.41248  0.62838  0.30362  Biso   1.000  Zn
  Zn24     1.0000 0.19621  0.87132  0.08743  Biso   1.000  Zn
  O145     1.0000 0.34880  0.65120  0.34880  Biso   1.000  O
  O146     1.0000 0.15190  0.84810  0.15190  Biso   1.000  O
  Zn25     1.0000 0.30317  0.69683  0.30317  Biso   1.000  Zn
  Zn26     1.0000 0.19636  0.80364  0.19636  Biso   1.000  Zn
  O147     1.0000 0.65120  0.34880  0.34880  Biso   1.000  O
  O148     1.0000 0.84810  0.15190  0.15190  Biso   1.000  O
  Zn27     1.0000 0.69683  0.30317  0.30317  Biso   1.000  Zn
  Zn28     1.0000 0.80364  0.19636  0.19636  Biso   1.000  Zn
  O149     1.0000 0.65120  0.65120  0.65120  Biso   1.000  O
  O150     1.0000 0.84810  0.84810  0.84810  Biso   1.000  O
  Zn29     1.0000 0.69683  0.69683  0.69683  Biso   1.000  Zn
  Zn30     1.0000 0.80364  0.80364  0.80364  Biso   1.000  Zn
  O151     1.0000 0.34880  0.34880  0.65120  Biso   1.000  O
  O152     1.0000 0.15190  0.15190  0.84810  Biso   1.000  O
  Zn31     1.0000 0.30317  0.30317  0.69683  Biso   1.000  Zn
  Zn32     1.0000 0.19636  0.19636  0.80364  Biso   1.000  Zn
