data_image0
_cell_length_a       26.669
_cell_length_b       26.669
_cell_length_c       86.622
_cell_angle_alpha    90
_cell_angle_beta     90
_cell_angle_gamma    120

_symmetry_space_group_name_H-M    "P 1"
_symmetry_int_tables_number       1

loop_
  _symmetry_equiv_pos_as_xyz
  'x, y, z'

loop_
  _atom_site_label
  _atom_site_occupancy
  _atom_site_fract_x
  _atom_site_fract_y
  _atom_site_fract_z
  _atom_site_thermal_displace_type
  _atom_site_B_iso_or_equiv
  _atom_site_type_symbol
  O1       1.0000 0.33200  0.59867  0.53763  Biso   1.000  O
  Zn1      1.0000 0.32506  0.59425  0.49937  Biso   1.000  Zn
  C1       1.0000 0.31947  0.55263  0.53081  Biso   1.000  C
  O2       1.0000 0.31344  0.54333  0.51634  Biso   1.000  O
  O3       1.0000 0.38755  0.60967  0.48524  Biso   1.000  O
  O4       1.0000 0.25617  0.55246  0.48678  Biso   1.000  O
  C2       1.0000 0.31893  0.50529  0.54008  Biso   1.000  C
  C3       1.0000 0.33518  0.51492  0.55555  Biso   1.000  C
  C4       1.0000 0.30127  0.45200  0.53411  Biso   1.000  C
  H1       1.0000 0.34570  0.55050  0.56000  Biso   1.000  H
  C5       1.0000 0.33568  0.47160  0.56425  Biso   1.000  C
  H2       1.0000 0.29030  0.44510  0.52380  Biso   1.000  H
  C6       1.0000 0.29900  0.40813  0.54274  Biso   1.000  C
  C7       1.0000 0.31841  0.41770  0.55808  Biso   1.000  C
  H3       1.0000 0.34790  0.47910  0.57450  Biso   1.000  H
  H4       1.0000 0.28440  0.37150  0.53840  Biso   1.000  H
  O5       1.0000 0.31741  0.37293  0.56540  Biso   1.000  O
  C8       1.0000 0.35011  0.38605  0.57925  Biso   1.000  C
  H5       1.0000 0.33060  0.39420  0.58750  Biso   1.000  H
  H6       1.0000 0.38810  0.41980  0.57780  Biso   1.000  H
  C9       1.0000 0.37883  0.31471  0.56944  Biso   1.000  C
  O6       1.0000 0.43110  0.36415  0.56477  Biso   1.000  O
  H7       1.0000 0.35090  0.30110  0.56110  Biso   1.000  H
  H8       1.0000 0.38590  0.28370  0.57240  Biso   1.000  H
  C10      1.0000 0.46110  0.35570  0.55324  Biso   1.000  C
  C11      1.0000 0.51200  0.40517  0.54899  Biso   1.000  C
  C12      1.0000 0.44512  0.30425  0.54650  Biso   1.000  C
  H9       1.0000 0.52240  0.44020  0.55380  Biso   1.000  H
  C13      1.0000 0.54693  0.40271  0.53780  Biso   1.000  C
  C14      1.0000 0.47890  0.30053  0.53507  Biso   1.000  C
  H10      1.0000 0.41130  0.27130  0.54960  Biso   1.000  H
  C15      1.0000 0.53060  0.35032  0.53047  Biso   1.000  C
  H11      1.0000 0.58130  0.43580  0.53510  Biso   1.000  H
  H12      1.0000 0.46770  0.26520  0.53040  Biso   1.000  H
  C16      1.0000 0.56820  0.34563  0.51878  Biso   1.000  C
  O7       1.0000 0.99867  0.93200  0.87096  Biso   1.000  O
  Zn2      1.0000 0.99173  0.92758  0.83270  Biso   1.000  Zn
  C17      1.0000 0.98614  0.88596  0.86414  Biso   1.000  C
  O8       1.0000 0.98011  0.87666  0.84967  Biso   1.000  O
  O9       1.0000 0.05422  0.94300  0.81857  Biso   1.000  O
  O10      1.0000 0.92284  0.88579  0.82011  Biso   1.000  O
  C18      1.0000 0.98560  0.83862  0.87341  Biso   1.000  C
  C19      1.0000 0.00185  0.84825  0.88888  Biso   1.000  C
  C20      1.0000 0.96794  0.78533  0.86744  Biso   1.000  C
  H13      1.0000 0.01237  0.88383  0.89333  Biso   1.000  H
  C21      1.0000 0.00235  0.80493  0.89758  Biso   1.000  C
  H14      1.0000 0.95697  0.77843  0.85713  Biso   1.000  H
  C22      1.0000 0.96567  0.74146  0.87607  Biso   1.000  C
  C23      1.0000 0.98508  0.75103  0.89141  Biso   1.000  C
  H15      1.0000 0.01457  0.81243  0.90783  Biso   1.000  H
  H16      1.0000 0.95107  0.70483  0.87173  Biso   1.000  H
  O11      1.0000 0.98408  0.70626  0.89873  Biso   1.000  O
  C24      1.0000 0.01678  0.71938  0.91258  Biso   1.000  C
  H17      1.0000 0.99727  0.72753  0.92083  Biso   1.000  H
  H18      1.0000 0.05477  0.75313  0.91113  Biso   1.000  H
  C25      1.0000 0.04550  0.64804  0.90277  Biso   1.000  C
  O12      1.0000 0.09777  0.69748  0.89810  Biso   1.000  O
  H19      1.0000 0.01757  0.63443  0.89443  Biso   1.000  H
  H20      1.0000 0.05257  0.61703  0.90573  Biso   1.000  H
  C26      1.0000 0.12777  0.68903  0.88657  Biso   1.000  C
  C27      1.0000 0.17867  0.73850  0.88232  Biso   1.000  C
  C28      1.0000 0.11179  0.63758  0.87983  Biso   1.000  C
  H21      1.0000 0.18907  0.77353  0.88713  Biso   1.000  H
  C29      1.0000 0.21360  0.73604  0.87113  Biso   1.000  C
  C30      1.0000 0.14557  0.63386  0.86840  Biso   1.000  C
  H22      1.0000 0.07797  0.60463  0.88293  Biso   1.000  H
  C31      1.0000 0.19727  0.68365  0.86380  Biso   1.000  C
  H23      1.0000 0.24797  0.76913  0.86843  Biso   1.000  H
  H24      1.0000 0.13437  0.59853  0.86373  Biso   1.000  H
  C32      1.0000 0.23487  0.67896  0.85211  Biso   1.000  C
  O13      1.0000 0.66533  0.26534  0.20430  Biso   1.000  O
  Zn3      1.0000 0.65840  0.26091  0.16603  Biso   1.000  Zn
  C33      1.0000 0.65280  0.21930  0.19748  Biso   1.000  C
  O14      1.0000 0.64677  0.21000  0.18301  Biso   1.000  O
  O15      1.0000 0.72088  0.27634  0.15191  Biso   1.000  O
  O16      1.0000 0.58950  0.21913  0.15345  Biso   1.000  O
  C34      1.0000 0.65226  0.17196  0.20675  Biso   1.000  C
  C35      1.0000 0.66851  0.18159  0.22222  Biso   1.000  C
  C36      1.0000 0.63460  0.11867  0.20078  Biso   1.000  C
  H25      1.0000 0.67903  0.21717  0.22667  Biso   1.000  H
  C37      1.0000 0.66901  0.13827  0.23092  Biso   1.000  C
  H26      1.0000 0.62363  0.11177  0.19047  Biso   1.000  H
  C38      1.0000 0.63233  0.07480  0.20941  Biso   1.000  C
  C39      1.0000 0.65174  0.08437  0.22475  Biso   1.000  C
  H27      1.0000 0.68123  0.14577  0.24117  Biso   1.000  H
  H28      1.0000 0.61773  0.03817  0.20507  Biso   1.000  H
  O17      1.0000 0.65074  0.03960  0.23207  Biso   1.000  O
  C40      1.0000 0.68344  0.05272  0.24592  Biso   1.000  C
  H29      1.0000 0.66393  0.06087  0.25417  Biso   1.000  H
  H30      1.0000 0.72143  0.08647  0.24447  Biso   1.000  H
  C41      1.0000 0.71216  0.98138  0.23611  Biso   1.000  C
  O18      1.0000 0.76443  0.03082  0.23144  Biso   1.000  O
  H31      1.0000 0.68423  0.96777  0.22777  Biso   1.000  H
  H32      1.0000 0.71923  0.95037  0.23907  Biso   1.000  H
  C42      1.0000 0.79443  0.02237  0.21991  Biso   1.000  C
  C43      1.0000 0.84533  0.07184  0.21566  Biso   1.000  C
  C44      1.0000 0.77845  0.97092  0.21317  Biso   1.000  C
  H33      1.0000 0.85573  0.10687  0.22047  Biso   1.000  H
  C45      1.0000 0.88026  0.06938  0.20447  Biso   1.000  C
  C46      1.0000 0.81223  0.96720  0.20174  Biso   1.000  C
  H34      1.0000 0.74463  0.93797  0.21627  Biso   1.000  H
  C47      1.0000 0.86393  0.01699  0.19714  Biso   1.000  C
  H35      1.0000 0.91463  0.10247  0.20177  Biso   1.000  H
  H36      1.0000 0.80103  0.93187  0.19707  Biso   1.000  H
  C48      1.0000 0.90153  0.01230  0.18545  Biso   1.000  C
  O19      1.0000 0.40133  0.73333  0.53763  Biso   1.000  O
  Zn4      1.0000 0.40575  0.73082  0.49937  Biso   1.000  Zn
  C49      1.0000 0.44737  0.76684  0.53081  Biso   1.000  C
  O20      1.0000 0.45667  0.77011  0.51634  Biso   1.000  O
  O21      1.0000 0.39033  0.77788  0.48524  Biso   1.000  O
  O22      1.0000 0.44754  0.70371  0.48678  Biso   1.000  O
  C50      1.0000 0.49471  0.81364  0.54008  Biso   1.000  C
  C51      1.0000 0.48508  0.82026  0.55555  Biso   1.000  C
  C52      1.0000 0.54800  0.84927  0.53411  Biso   1.000  C
  H37      1.0000 0.44950  0.79520  0.56000  Biso   1.000  H
  C53      1.0000 0.52840  0.86408  0.56425  Biso   1.000  C
  H38      1.0000 0.55490  0.84520  0.52380  Biso   1.000  H
  C54      1.0000 0.59187  0.89087  0.54274  Biso   1.000  C
  C55      1.0000 0.58230  0.90071  0.55808  Biso   1.000  C
  H39      1.0000 0.52090  0.86880  0.57450  Biso   1.000  H
  H40      1.0000 0.62850  0.91290  0.53840  Biso   1.000  H
  O23      1.0000 0.62707  0.94448  0.56540  Biso   1.000  O
  C56      1.0000 0.61395  0.96406  0.57925  Biso   1.000  C
  H41      1.0000 0.60580  0.93640  0.58750  Biso   1.000  H
  H42      1.0000 0.58020  0.96830  0.57780  Biso   1.000  H
  C57      1.0000 0.68529  0.06412  0.56944  Biso   1.000  C
  O24      1.0000 0.63585  0.06695  0.56477  Biso   1.000  O
  H43      1.0000 0.69890  0.04980  0.56110  Biso   1.000  H
  H44      1.0000 0.71630  0.10220  0.57240  Biso   1.000  H
  C58      1.0000 0.64430  0.10540  0.55324  Biso   1.000  C
  C59      1.0000 0.59483  0.10683  0.54899  Biso   1.000  C
  C60      1.0000 0.69575  0.14087  0.54650  Biso   1.000  C
  H45      1.0000 0.55980  0.08220  0.55380  Biso   1.000  H
  C61      1.0000 0.59729  0.14422  0.53780  Biso   1.000  C
  C62      1.0000 0.69947  0.17837  0.53507  Biso   1.000  C
  H46      1.0000 0.72870  0.14000  0.54960  Biso   1.000  H
  C63      1.0000 0.64968  0.18028  0.53047  Biso   1.000  C
  H47      1.0000 0.56420  0.14550  0.53510  Biso   1.000  H
  H48      1.0000 0.73480  0.20250  0.53040  Biso   1.000  H
  C64      1.0000 0.65437  0.22257  0.51878  Biso   1.000  C
  O25      1.0000 0.06800  0.06666  0.87096  Biso   1.000  O
  Zn5      1.0000 0.07242  0.06415  0.83270  Biso   1.000  Zn
  C65      1.0000 0.11404  0.10017  0.86414  Biso   1.000  C
  O26      1.0000 0.12334  0.10344  0.84967  Biso   1.000  O
  O27      1.0000 0.05700  0.11121  0.81857  Biso   1.000  O
  O28      1.0000 0.11421  0.03704  0.82011  Biso   1.000  O
  C66      1.0000 0.16138  0.14697  0.87341  Biso   1.000  C
  C67      1.0000 0.15175  0.15359  0.88888  Biso   1.000  C
  C68      1.0000 0.21467  0.18260  0.86744  Biso   1.000  C
  H49      1.0000 0.11617  0.12853  0.89333  Biso   1.000  H
  C69      1.0000 0.19507  0.19741  0.89758  Biso   1.000  C
  H50      1.0000 0.22157  0.17853  0.85713  Biso   1.000  H
  C70      1.0000 0.25854  0.22420  0.87607  Biso   1.000  C
  C71      1.0000 0.24897  0.23404  0.89141  Biso   1.000  C
  H51      1.0000 0.18757  0.20213  0.90783  Biso   1.000  H
  H52      1.0000 0.29517  0.24623  0.87173  Biso   1.000  H
  O29      1.0000 0.29374  0.27781  0.89873  Biso   1.000  O
  C72      1.0000 0.28062  0.29739  0.91258  Biso   1.000  C
  H53      1.0000 0.27247  0.26973  0.92083  Biso   1.000  H
  H54      1.0000 0.24687  0.30163  0.91113  Biso   1.000  H
  C73      1.0000 0.35196  0.39745  0.90277  Biso   1.000  C
  O30      1.0000 0.30252  0.40028  0.89810  Biso   1.000  O
  H55      1.0000 0.36557  0.38313  0.89443  Biso   1.000  H
  H56      1.0000 0.38297  0.43553  0.90573  Biso   1.000  H
  C74      1.0000 0.31097  0.43873  0.88657  Biso   1.000  C
  C75      1.0000 0.26150  0.44016  0.88232  Biso   1.000  C
  C76      1.0000 0.36242  0.47420  0.87983  Biso   1.000  C
  H57      1.0000 0.22647  0.41553  0.88713  Biso   1.000  H
  C77      1.0000 0.26396  0.47755  0.87113  Biso   1.000  C
  C78      1.0000 0.36614  0.51170  0.86840  Biso   1.000  C
  H58      1.0000 0.39537  0.47333  0.88293  Biso   1.000  H
  C79      1.0000 0.31635  0.51361  0.86380  Biso   1.000  C
  H59      1.0000 0.23087  0.47883  0.86843  Biso   1.000  H
  H60      1.0000 0.40147  0.53583  0.86373  Biso   1.000  H
  C80      1.0000 0.32104  0.55590  0.85211  Biso   1.000  C
  O31      1.0000 0.73466  0.40000  0.20430  Biso   1.000  O
  Zn6      1.0000 0.73909  0.39748  0.16603  Biso   1.000  Zn
  C81      1.0000 0.78070  0.43351  0.19748  Biso   1.000  C
  O32      1.0000 0.79000  0.43678  0.18301  Biso   1.000  O
  O33      1.0000 0.72366  0.44455  0.15191  Biso   1.000  O
  O34      1.0000 0.78087  0.37038  0.15345  Biso   1.000  O
  C82      1.0000 0.82804  0.48031  0.20675  Biso   1.000  C
  C83      1.0000 0.81841  0.48693  0.22222  Biso   1.000  C
  C84      1.0000 0.88133  0.51594  0.20078  Biso   1.000  C
  H61      1.0000 0.78283  0.46187  0.22667  Biso   1.000  H
  C85      1.0000 0.86173  0.53075  0.23092  Biso   1.000  C
  H62      1.0000 0.88823  0.51187  0.19047  Biso   1.000  H
  C86      1.0000 0.92520  0.55754  0.20941  Biso   1.000  C
  C87      1.0000 0.91563  0.56738  0.22475  Biso   1.000  C
  H63      1.0000 0.85423  0.53547  0.24117  Biso   1.000  H
  H64      1.0000 0.96183  0.57957  0.20507  Biso   1.000  H
  O35      1.0000 0.96040  0.61115  0.23207  Biso   1.000  O
  C88      1.0000 0.94728  0.63073  0.24592  Biso   1.000  C
  H65      1.0000 0.93913  0.60307  0.25417  Biso   1.000  H
  H66      1.0000 0.91353  0.63497  0.24447  Biso   1.000  H
  C89      1.0000 0.01862  0.73079  0.23611  Biso   1.000  C
  O36      1.0000 0.96918  0.73362  0.23144  Biso   1.000  O
  H67      1.0000 0.03223  0.71647  0.22777  Biso   1.000  H
  H68      1.0000 0.04963  0.76887  0.23907  Biso   1.000  H
  C90      1.0000 0.97763  0.77207  0.21991  Biso   1.000  C
  C91      1.0000 0.92816  0.77350  0.21566  Biso   1.000  C
  C92      1.0000 0.02908  0.80754  0.21317  Biso   1.000  C
  H69      1.0000 0.89313  0.74887  0.22047  Biso   1.000  H
  C93      1.0000 0.93062  0.81089  0.20447  Biso   1.000  C
  C94      1.0000 0.03280  0.84504  0.20174  Biso   1.000  C
  H70      1.0000 0.06203  0.80667  0.21627  Biso   1.000  H
  C95      1.0000 0.98301  0.84695  0.19714  Biso   1.000  C
  H71      1.0000 0.89753  0.81217  0.20177  Biso   1.000  H
  H72      1.0000 0.06813  0.86917  0.19707  Biso   1.000  H
  C96      1.0000 0.98770  0.88924  0.18545  Biso   1.000  C
  O37      1.0000 0.26667  0.66800  0.53763  Biso   1.000  O
  Zn7      1.0000 0.26918  0.67494  0.49937  Biso   1.000  Zn
  C97      1.0000 0.23316  0.68053  0.53081  Biso   1.000  C
  O38      1.0000 0.22989  0.68656  0.51634  Biso   1.000  O
  O39      1.0000 0.22212  0.61245  0.48524  Biso   1.000  O
  O40      1.0000 0.29629  0.74383  0.48678  Biso   1.000  O
  C98      1.0000 0.18636  0.68107  0.54008  Biso   1.000  C
  C99      1.0000 0.17974  0.66482  0.55555  Biso   1.000  C
  C100     1.0000 0.15073  0.69873  0.53411  Biso   1.000  C
  H73      1.0000 0.20480  0.65430  0.56000  Biso   1.000  H
  C101     1.0000 0.13592  0.66432  0.56425  Biso   1.000  C
  H74      1.0000 0.15480  0.70970  0.52380  Biso   1.000  H
  C102     1.0000 0.10913  0.70100  0.54274  Biso   1.000  C
  C103     1.0000 0.09929  0.68159  0.55808  Biso   1.000  C
  H75      1.0000 0.13120  0.65210  0.57450  Biso   1.000  H
  H76      1.0000 0.08710  0.71560  0.53840  Biso   1.000  H
  O41      1.0000 0.05552  0.68259  0.56540  Biso   1.000  O
  C104     1.0000 0.03594  0.64989  0.57925  Biso   1.000  C
  H77      1.0000 0.06360  0.66940  0.58750  Biso   1.000  H
  H78      1.0000 0.03170  0.61190  0.57780  Biso   1.000  H
  C105     1.0000 0.93588  0.62117  0.56944  Biso   1.000  C
  O42      1.0000 0.93305  0.56890  0.56477  Biso   1.000  O
  H79      1.0000 0.95020  0.64910  0.56110  Biso   1.000  H
  H80      1.0000 0.89780  0.61410  0.57240  Biso   1.000  H
  C106     1.0000 0.89460  0.53890  0.55324  Biso   1.000  C
  C107     1.0000 0.89317  0.48800  0.54899  Biso   1.000  C
  C108     1.0000 0.85913  0.55488  0.54650  Biso   1.000  C
  H81      1.0000 0.91780  0.47760  0.55380  Biso   1.000  H
  C109     1.0000 0.85578  0.45307  0.53780  Biso   1.000  C
  C110     1.0000 0.82163  0.52110  0.53507  Biso   1.000  C
  H82      1.0000 0.86000  0.58870  0.54960  Biso   1.000  H
  C111     1.0000 0.81972  0.46940  0.53047  Biso   1.000  C
  H83      1.0000 0.85450  0.41870  0.53510  Biso   1.000  H
  H84      1.0000 0.79750  0.53230  0.53040  Biso   1.000  H
  C112     1.0000 0.77743  0.43180  0.51878  Biso   1.000  C
  O43      1.0000 0.93334  0.00133  0.87096  Biso   1.000  O
  Zn8      1.0000 0.93585  0.00827  0.83270  Biso   1.000  Zn
  C113     1.0000 0.89983  0.01386  0.86414  Biso   1.000  C
  O44      1.0000 0.89656  0.01989  0.84967  Biso   1.000  O
  O45      1.0000 0.88879  0.94578  0.81857  Biso   1.000  O
  O46      1.0000 0.96296  0.07716  0.82011  Biso   1.000  O
  C114     1.0000 0.85303  0.01440  0.87341  Biso   1.000  C
  C115     1.0000 0.84641  0.99815  0.88888  Biso   1.000  C
  C116     1.0000 0.81740  0.03206  0.86744  Biso   1.000  C
  H85      1.0000 0.87147  0.98763  0.89333  Biso   1.000  H
  C117     1.0000 0.80259  0.99765  0.89758  Biso   1.000  C
  H86      1.0000 0.82147  0.04303  0.85713  Biso   1.000  H
  C118     1.0000 0.77580  0.03433  0.87607  Biso   1.000  C
  C119     1.0000 0.76596  0.01492  0.89141  Biso   1.000  C
  H87      1.0000 0.79787  0.98543  0.90783  Biso   1.000  H
  H88      1.0000 0.75377  0.04893  0.87173  Biso   1.000  H
  O47      1.0000 0.72219  0.01592  0.89873  Biso   1.000  O
  C120     1.0000 0.70261  0.98322  0.91258  Biso   1.000  C
  H89      1.0000 0.73027  0.00273  0.92083  Biso   1.000  H
  H90      1.0000 0.69837  0.94523  0.91113  Biso   1.000  H
  C121     1.0000 0.60255  0.95450  0.90277  Biso   1.000  C
  O48      1.0000 0.59972  0.90223  0.89810  Biso   1.000  O
  H91      1.0000 0.61687  0.98243  0.89443  Biso   1.000  H
  H92      1.0000 0.56447  0.94743  0.90573  Biso   1.000  H
  C122     1.0000 0.56127  0.87223  0.88657  Biso   1.000  C
  C123     1.0000 0.55984  0.82133  0.88232  Biso   1.000  C
  C124     1.0000 0.52580  0.88821  0.87983  Biso   1.000  C
  H93      1.0000 0.58447  0.81093  0.88713  Biso   1.000  H
  C125     1.0000 0.52245  0.78640  0.87113  Biso   1.000  C
  C126     1.0000 0.48830  0.85443  0.86840  Biso   1.000  C
  H94      1.0000 0.52667  0.92203  0.88293  Biso   1.000  H
  C127     1.0000 0.48639  0.80273  0.86380  Biso   1.000  C
  H95      1.0000 0.52117  0.75203  0.86843  Biso   1.000  H
  H96      1.0000 0.46417  0.86563  0.86373  Biso   1.000  H
  C128     1.0000 0.44410  0.76513  0.85211  Biso   1.000  C
  O49      1.0000 0.60000  0.33467  0.20430  Biso   1.000  O
  Zn9      1.0000 0.60252  0.34160  0.16603  Biso   1.000  Zn
  C129     1.0000 0.56649  0.34720  0.19748  Biso   1.000  C
  O50      1.0000 0.56322  0.35323  0.18301  Biso   1.000  O
  O51      1.0000 0.55545  0.27912  0.15191  Biso   1.000  O
  O52      1.0000 0.62962  0.41050  0.15345  Biso   1.000  O
  C130     1.0000 0.51969  0.34774  0.20675  Biso   1.000  C
  C131     1.0000 0.51307  0.33149  0.22222  Biso   1.000  C
  C132     1.0000 0.48406  0.36540  0.20078  Biso   1.000  C
  H97      1.0000 0.53813  0.32097  0.22667  Biso   1.000  H
  C133     1.0000 0.46925  0.33099  0.23092  Biso   1.000  C
  H98      1.0000 0.48813  0.37637  0.19047  Biso   1.000  H
  C134     1.0000 0.44246  0.36767  0.20941  Biso   1.000  C
  C135     1.0000 0.43262  0.34826  0.22475  Biso   1.000  C
  H99      1.0000 0.46453  0.31877  0.24117  Biso   1.000  H
  H100     1.0000 0.42043  0.38227  0.20507  Biso   1.000  H
  O53      1.0000 0.38885  0.34926  0.23207  Biso   1.000  O
  C136     1.0000 0.36927  0.31656  0.24592  Biso   1.000  C
  H101     1.0000 0.39693  0.33607  0.25417  Biso   1.000  H
  H102     1.0000 0.36503  0.27857  0.24447  Biso   1.000  H
  C137     1.0000 0.26921  0.28784  0.23611  Biso   1.000  C
  O54      1.0000 0.26638  0.23557  0.23144  Biso   1.000  O
  H103     1.0000 0.28353  0.31577  0.22777  Biso   1.000  H
  H104     1.0000 0.23113  0.28077  0.23907  Biso   1.000  H
  C138     1.0000 0.22793  0.20557  0.21991  Biso   1.000  C
  C139     1.0000 0.22650  0.15467  0.21566  Biso   1.000  C
  C140     1.0000 0.19246  0.22155  0.21317  Biso   1.000  C
  H105     1.0000 0.25113  0.14427  0.22047  Biso   1.000  H
  C141     1.0000 0.18911  0.11974  0.20447  Biso   1.000  C
  C142     1.0000 0.15496  0.18777  0.20174  Biso   1.000  C
  H106     1.0000 0.19333  0.25537  0.21627  Biso   1.000  H
  C143     1.0000 0.15305  0.13607  0.19714  Biso   1.000  C
  H107     1.0000 0.18783  0.08537  0.20177  Biso   1.000  H
  H108     1.0000 0.13083  0.19897  0.19707  Biso   1.000  H
  C144     1.0000 0.11076  0.09847  0.18545  Biso   1.000  C
  O55      1.0000 0.59867  0.33200  0.96237  Biso   1.000  O
  Zn10     1.0000 0.59425  0.32506  0.00063  Biso   1.000  Zn
  C145     1.0000 0.55263  0.31947  0.96919  Biso   1.000  C
  O56      1.0000 0.54333  0.31344  0.98366  Biso   1.000  O
  O57      1.0000 0.60967  0.38755  0.01476  Biso   1.000  O
  O58      1.0000 0.55246  0.25617  0.01322  Biso   1.000  O
  C146     1.0000 0.50529  0.31893  0.95992  Biso   1.000  C
  C147     1.0000 0.51492  0.33518  0.94445  Biso   1.000  C
  C148     1.0000 0.45200  0.30127  0.96589  Biso   1.000  C
  H109     1.0000 0.55050  0.34570  0.94000  Biso   1.000  H
  C149     1.0000 0.47160  0.33568  0.93575  Biso   1.000  C
  H110     1.0000 0.44510  0.29030  0.97620  Biso   1.000  H
  C150     1.0000 0.40813  0.29900  0.95726  Biso   1.000  C
  C151     1.0000 0.41770  0.31841  0.94192  Biso   1.000  C
  H111     1.0000 0.47910  0.34790  0.92550  Biso   1.000  H
  H112     1.0000 0.37150  0.28440  0.96160  Biso   1.000  H
  O59      1.0000 0.37293  0.31741  0.93460  Biso   1.000  O
  C152     1.0000 0.38605  0.35011  0.92075  Biso   1.000  C
  H113     1.0000 0.39420  0.33060  0.91250  Biso   1.000  H
  H114     1.0000 0.41980  0.38810  0.92220  Biso   1.000  H
  C153     1.0000 0.31471  0.37883  0.93056  Biso   1.000  C
  O60      1.0000 0.36415  0.43110  0.93523  Biso   1.000  O
  H115     1.0000 0.30110  0.35090  0.93890  Biso   1.000  H
  H116     1.0000 0.28370  0.38590  0.92760  Biso   1.000  H
  C154     1.0000 0.35570  0.46110  0.94676  Biso   1.000  C
  C155     1.0000 0.40517  0.51200  0.95101  Biso   1.000  C
  C156     1.0000 0.30425  0.44512  0.95350  Biso   1.000  C
  H117     1.0000 0.44020  0.52240  0.94620  Biso   1.000  H
  C157     1.0000 0.40271  0.54693  0.96220  Biso   1.000  C
  C158     1.0000 0.30053  0.47890  0.96493  Biso   1.000  C
  H118     1.0000 0.27130  0.41130  0.95040  Biso   1.000  H
  C159     1.0000 0.35032  0.53060  0.96953  Biso   1.000  C
  H119     1.0000 0.43580  0.58130  0.96490  Biso   1.000  H
  H120     1.0000 0.26520  0.46770  0.96960  Biso   1.000  H
  C160     1.0000 0.34563  0.56820  0.98122  Biso   1.000  C
  O61      1.0000 0.26534  0.66533  0.29570  Biso   1.000  O
  Zn11     1.0000 0.26091  0.65840  0.33397  Biso   1.000  Zn
  C161     1.0000 0.21930  0.65280  0.30252  Biso   1.000  C
  O62      1.0000 0.21000  0.64677  0.31699  Biso   1.000  O
  O63      1.0000 0.27634  0.72088  0.34809  Biso   1.000  O
  O64      1.0000 0.21913  0.58950  0.34655  Biso   1.000  O
  C162     1.0000 0.17196  0.65226  0.29325  Biso   1.000  C
  C163     1.0000 0.18159  0.66851  0.27778  Biso   1.000  C
  C164     1.0000 0.11867  0.63460  0.29922  Biso   1.000  C
  H121     1.0000 0.21717  0.67903  0.27333  Biso   1.000  H
  C165     1.0000 0.13827  0.66901  0.26908  Biso   1.000  C
  H122     1.0000 0.11177  0.62363  0.30953  Biso   1.000  H
  C166     1.0000 0.07480  0.63233  0.29059  Biso   1.000  C
  C167     1.0000 0.08437  0.65174  0.27525  Biso   1.000  C
  H123     1.0000 0.14577  0.68123  0.25883  Biso   1.000  H
  H124     1.0000 0.03817  0.61773  0.29493  Biso   1.000  H
  O65      1.0000 0.03960  0.65074  0.26793  Biso   1.000  O
  C168     1.0000 0.05272  0.68344  0.25408  Biso   1.000  C
  H125     1.0000 0.06087  0.66393  0.24583  Biso   1.000  H
  H126     1.0000 0.08647  0.72143  0.25553  Biso   1.000  H
  C169     1.0000 0.98138  0.71216  0.26389  Biso   1.000  C
  O66      1.0000 0.03082  0.76443  0.26856  Biso   1.000  O
  H127     1.0000 0.96777  0.68423  0.27223  Biso   1.000  H
  H128     1.0000 0.95037  0.71923  0.26093  Biso   1.000  H
  C170     1.0000 0.02237  0.79443  0.28009  Biso   1.000  C
  C171     1.0000 0.07184  0.84533  0.28434  Biso   1.000  C
  C172     1.0000 0.97092  0.77845  0.28683  Biso   1.000  C
  H129     1.0000 0.10687  0.85573  0.27953  Biso   1.000  H
  C173     1.0000 0.06938  0.88026  0.29553  Biso   1.000  C
  C174     1.0000 0.96720  0.81223  0.29826  Biso   1.000  C
  H130     1.0000 0.93797  0.74463  0.28373  Biso   1.000  H
  C175     1.0000 0.01699  0.86393  0.30286  Biso   1.000  C
  H131     1.0000 0.10247  0.91463  0.29823  Biso   1.000  H
  H132     1.0000 0.93187  0.80103  0.30293  Biso   1.000  H
  C176     1.0000 0.01230  0.90153  0.31455  Biso   1.000  C
  O67      1.0000 0.93200  0.99867  0.62904  Biso   1.000  O
  Zn12     1.0000 0.92758  0.99173  0.66730  Biso   1.000  Zn
  C177     1.0000 0.88596  0.98614  0.63586  Biso   1.000  C
  O68      1.0000 0.87666  0.98011  0.65033  Biso   1.000  O
  O69      1.0000 0.94300  0.05422  0.68143  Biso   1.000  O
  O70      1.0000 0.88579  0.92284  0.67989  Biso   1.000  O
  C178     1.0000 0.83862  0.98560  0.62659  Biso   1.000  C
  C179     1.0000 0.84825  0.00185  0.61112  Biso   1.000  C
  C180     1.0000 0.78533  0.96794  0.63256  Biso   1.000  C
  H133     1.0000 0.88383  0.01237  0.60667  Biso   1.000  H
  C181     1.0000 0.80493  0.00235  0.60242  Biso   1.000  C
  H134     1.0000 0.77843  0.95697  0.64287  Biso   1.000  H
  C182     1.0000 0.74146  0.96567  0.62393  Biso   1.000  C
  C183     1.0000 0.75103  0.98508  0.60859  Biso   1.000  C
  H135     1.0000 0.81243  0.01457  0.59217  Biso   1.000  H
  H136     1.0000 0.70483  0.95107  0.62827  Biso   1.000  H
  O71      1.0000 0.70626  0.98408  0.60127  Biso   1.000  O
  C184     1.0000 0.71938  0.01678  0.58742  Biso   1.000  C
  H137     1.0000 0.72753  0.99727  0.57917  Biso   1.000  H
  H138     1.0000 0.75313  0.05477  0.58887  Biso   1.000  H
  C185     1.0000 0.64804  0.04550  0.59723  Biso   1.000  C
  O72      1.0000 0.69748  0.09777  0.60190  Biso   1.000  O
  H139     1.0000 0.63443  0.01757  0.60557  Biso   1.000  H
  H140     1.0000 0.61703  0.05257  0.59427  Biso   1.000  H
  C186     1.0000 0.68903  0.12777  0.61343  Biso   1.000  C
  C187     1.0000 0.73850  0.17867  0.61768  Biso   1.000  C
  C188     1.0000 0.63758  0.11179  0.62017  Biso   1.000  C
  H141     1.0000 0.77353  0.18907  0.61287  Biso   1.000  H
  C189     1.0000 0.73604  0.21360  0.62887  Biso   1.000  C
  C190     1.0000 0.63386  0.14557  0.63160  Biso   1.000  C
  H142     1.0000 0.60463  0.07797  0.61707  Biso   1.000  H
  C191     1.0000 0.68365  0.19727  0.63620  Biso   1.000  C
  H143     1.0000 0.76913  0.24797  0.63157  Biso   1.000  H
  H144     1.0000 0.59853  0.13437  0.63627  Biso   1.000  H
  C192     1.0000 0.67896  0.23487  0.64789  Biso   1.000  C
  O73      1.0000 0.73333  0.40133  0.96237  Biso   1.000  O
  Zn13     1.0000 0.73082  0.40575  0.00063  Biso   1.000  Zn
  C193     1.0000 0.76684  0.44737  0.96919  Biso   1.000  C
  O74      1.0000 0.77011  0.45667  0.98366  Biso   1.000  O
  O75      1.0000 0.77788  0.39033  0.01476  Biso   1.000  O
  O76      1.0000 0.70371  0.44754  0.01322  Biso   1.000  O
  C194     1.0000 0.81364  0.49471  0.95992  Biso   1.000  C
  C195     1.0000 0.82026  0.48508  0.94445  Biso   1.000  C
  C196     1.0000 0.84927  0.54800  0.96589  Biso   1.000  C
  H145     1.0000 0.79520  0.44950  0.94000  Biso   1.000  H
  C197     1.0000 0.86408  0.52840  0.93575  Biso   1.000  C
  H146     1.0000 0.84520  0.55490  0.97620  Biso   1.000  H
  C198     1.0000 0.89087  0.59187  0.95726  Biso   1.000  C
  C199     1.0000 0.90071  0.58230  0.94192  Biso   1.000  C
  H147     1.0000 0.86880  0.52090  0.92550  Biso   1.000  H
  H148     1.0000 0.91290  0.62850  0.96160  Biso   1.000  H
  O77      1.0000 0.94448  0.62707  0.93460  Biso   1.000  O
  C200     1.0000 0.96406  0.61395  0.92075  Biso   1.000  C
  H149     1.0000 0.93640  0.60580  0.91250  Biso   1.000  H
  H150     1.0000 0.96830  0.58020  0.92220  Biso   1.000  H
  C201     1.0000 0.06412  0.68529  0.93056  Biso   1.000  C
  O78      1.0000 0.06695  0.63585  0.93523  Biso   1.000  O
  H151     1.0000 0.04980  0.69890  0.93890  Biso   1.000  H
  H152     1.0000 0.10220  0.71630  0.92760  Biso   1.000  H
  C202     1.0000 0.10540  0.64430  0.94676  Biso   1.000  C
  C203     1.0000 0.10683  0.59483  0.95101  Biso   1.000  C
  C204     1.0000 0.14087  0.69575  0.95350  Biso   1.000  C
  H153     1.0000 0.08220  0.55980  0.94620  Biso   1.000  H
  C205     1.0000 0.14422  0.59729  0.96220  Biso   1.000  C
  C206     1.0000 0.17837  0.69947  0.96493  Biso   1.000  C
  H154     1.0000 0.14000  0.72870  0.95040  Biso   1.000  H
  C207     1.0000 0.18028  0.64968  0.96953  Biso   1.000  C
  H155     1.0000 0.14550  0.56420  0.96490  Biso   1.000  H
  H156     1.0000 0.20250  0.73480  0.96960  Biso   1.000  H
  C208     1.0000 0.22257  0.65437  0.98122  Biso   1.000  C
  O79      1.0000 0.40000  0.73466  0.29570  Biso   1.000  O
  Zn14     1.0000 0.39748  0.73909  0.33397  Biso   1.000  Zn
  C209     1.0000 0.43351  0.78070  0.30252  Biso   1.000  C
  O80      1.0000 0.43678  0.79000  0.31699  Biso   1.000  O
  O81      1.0000 0.44455  0.72366  0.34809  Biso   1.000  O
  O82      1.0000 0.37038  0.78087  0.34655  Biso   1.000  O
  C210     1.0000 0.48031  0.82804  0.29325  Biso   1.000  C
  C211     1.0000 0.48693  0.81841  0.27778  Biso   1.000  C
  C212     1.0000 0.51594  0.88133  0.29922  Biso   1.000  C
  H157     1.0000 0.46187  0.78283  0.27333  Biso   1.000  H
  C213     1.0000 0.53075  0.86173  0.26908  Biso   1.000  C
  H158     1.0000 0.51187  0.88823  0.30953  Biso   1.000  H
  C214     1.0000 0.55754  0.92520  0.29059  Biso   1.000  C
  C215     1.0000 0.56738  0.91563  0.27525  Biso   1.000  C
  H159     1.0000 0.53547  0.85423  0.25883  Biso   1.000  H
  H160     1.0000 0.57957  0.96183  0.29493  Biso   1.000  H
  O83      1.0000 0.61115  0.96040  0.26793  Biso   1.000  O
  C216     1.0000 0.63073  0.94728  0.25408  Biso   1.000  C
  H161     1.0000 0.60307  0.93913  0.24583  Biso   1.000  H
  H162     1.0000 0.63497  0.91353  0.25553  Biso   1.000  H
  C217     1.0000 0.73079  0.01862  0.26389  Biso   1.000  C
  O84      1.0000 0.73362  0.96918  0.26856  Biso   1.000  O
  H163     1.0000 0.71647  0.03223  0.27223  Biso   1.000  H
  H164     1.0000 0.76887  0.04963  0.26093  Biso   1.000  H
  C218     1.0000 0.77207  0.97763  0.28009  Biso   1.000  C
  C219     1.0000 0.77350  0.92816  0.28434  Biso   1.000  C
  C220     1.0000 0.80754  0.02908  0.28683  Biso   1.000  C
  H165     1.0000 0.74887  0.89313  0.27953  Biso   1.000  H
  C221     1.0000 0.81089  0.93062  0.29553  Biso   1.000  C
  C222     1.0000 0.84504  0.03280  0.29826  Biso   1.000  C
  H166     1.0000 0.80667  0.06203  0.28373  Biso   1.000  H
  C223     1.0000 0.84695  0.98301  0.30286  Biso   1.000  C
  H167     1.0000 0.81217  0.89753  0.29823  Biso   1.000  H
  H168     1.0000 0.86917  0.06813  0.30293  Biso   1.000  H
  C224     1.0000 0.88924  0.98770  0.31455  Biso   1.000  C
  O85      1.0000 0.06666  0.06800  0.62904  Biso   1.000  O
  Zn15     1.0000 0.06415  0.07242  0.66730  Biso   1.000  Zn
  C225     1.0000 0.10017  0.11404  0.63586  Biso   1.000  C
  O86      1.0000 0.10344  0.12334  0.65033  Biso   1.000  O
  O87      1.0000 0.11121  0.05700  0.68143  Biso   1.000  O
  O88      1.0000 0.03704  0.11421  0.67989  Biso   1.000  O
  C226     1.0000 0.14697  0.16138  0.62659  Biso   1.000  C
  C227     1.0000 0.15359  0.15175  0.61112  Biso   1.000  C
  C228     1.0000 0.18260  0.21467  0.63256  Biso   1.000  C
  H169     1.0000 0.12853  0.11617  0.60667  Biso   1.000  H
  C229     1.0000 0.19741  0.19507  0.60242  Biso   1.000  C
  H170     1.0000 0.17853  0.22157  0.64287  Biso   1.000  H
  C230     1.0000 0.22420  0.25854  0.62393  Biso   1.000  C
  C231     1.0000 0.23404  0.24897  0.60859  Biso   1.000  C
  H171     1.0000 0.20213  0.18757  0.59217  Biso   1.000  H
  H172     1.0000 0.24623  0.29517  0.62827  Biso   1.000  H
  O89      1.0000 0.27781  0.29374  0.60127  Biso   1.000  O
  C232     1.0000 0.29739  0.28062  0.58742  Biso   1.000  C
  H173     1.0000 0.26973  0.27247  0.57917  Biso   1.000  H
  H174     1.0000 0.30163  0.24687  0.58887  Biso   1.000  H
  C233     1.0000 0.39745  0.35196  0.59723  Biso   1.000  C
  O90      1.0000 0.40028  0.30252  0.60190  Biso   1.000  O
  H175     1.0000 0.38313  0.36557  0.60557  Biso   1.000  H
  H176     1.0000 0.43553  0.38297  0.59427  Biso   1.000  H
  C234     1.0000 0.43873  0.31097  0.61343  Biso   1.000  C
  C235     1.0000 0.44016  0.26150  0.61768  Biso   1.000  C
  C236     1.0000 0.47420  0.36242  0.62017  Biso   1.000  C
  H177     1.0000 0.41553  0.22647  0.61287  Biso   1.000  H
  C237     1.0000 0.47755  0.26396  0.62887  Biso   1.000  C
  C238     1.0000 0.51170  0.36614  0.63160  Biso   1.000  C
  H178     1.0000 0.47333  0.39537  0.61707  Biso   1.000  H
  C239     1.0000 0.51361  0.31635  0.63620  Biso   1.000  C
  H179     1.0000 0.47883  0.23087  0.63157  Biso   1.000  H
  H180     1.0000 0.53583  0.40147  0.63627  Biso   1.000  H
  C240     1.0000 0.55590  0.32104  0.64789  Biso   1.000  C
  O91      1.0000 0.66800  0.26667  0.96237  Biso   1.000  O
  Zn16     1.0000 0.67494  0.26918  0.00063  Biso   1.000  Zn
  C241     1.0000 0.68053  0.23316  0.96919  Biso   1.000  C
  O92      1.0000 0.68656  0.22989  0.98366  Biso   1.000  O
  O93      1.0000 0.61245  0.22212  0.01476  Biso   1.000  O
  O94      1.0000 0.74383  0.29629  0.01322  Biso   1.000  O
  C242     1.0000 0.68107  0.18636  0.95992  Biso   1.000  C
  C243     1.0000 0.66482  0.17974  0.94445  Biso   1.000  C
  C244     1.0000 0.69873  0.15073  0.96589  Biso   1.000  C
  H181     1.0000 0.65430  0.20480  0.94000  Biso   1.000  H
  C245     1.0000 0.66432  0.13592  0.93575  Biso   1.000  C
  H182     1.0000 0.70970  0.15480  0.97620  Biso   1.000  H
  C246     1.0000 0.70100  0.10913  0.95726  Biso   1.000  C
  C247     1.0000 0.68159  0.09929  0.94192  Biso   1.000  C
  H183     1.0000 0.65210  0.13120  0.92550  Biso   1.000  H
  H184     1.0000 0.71560  0.08710  0.96160  Biso   1.000  H
  O95      1.0000 0.68259  0.05552  0.93460  Biso   1.000  O
  C248     1.0000 0.64989  0.03594  0.92075  Biso   1.000  C
  H185     1.0000 0.66940  0.06360  0.91250  Biso   1.000  H
  H186     1.0000 0.61190  0.03170  0.92220  Biso   1.000  H
  C249     1.0000 0.62117  0.93588  0.93056  Biso   1.000  C
  O96      1.0000 0.56890  0.93305  0.93523  Biso   1.000  O
  H187     1.0000 0.64910  0.95020  0.93890  Biso   1.000  H
  H188     1.0000 0.61410  0.89780  0.92760  Biso   1.000  H
  C250     1.0000 0.53890  0.89460  0.94676  Biso   1.000  C
  C251     1.0000 0.48800  0.89317  0.95101  Biso   1.000  C
  C252     1.0000 0.55488  0.85913  0.95350  Biso   1.000  C
  H189     1.0000 0.47760  0.91780  0.94620  Biso   1.000  H
  C253     1.0000 0.45307  0.85578  0.96220  Biso   1.000  C
  C254     1.0000 0.52110  0.82163  0.96493  Biso   1.000  C
  H190     1.0000 0.58870  0.86000  0.95040  Biso   1.000  H
  C255     1.0000 0.46940  0.81972  0.96953  Biso   1.000  C
  H191     1.0000 0.41870  0.85450  0.96490  Biso   1.000  H
  H192     1.0000 0.53230  0.79750  0.96960  Biso   1.000  H
  C256     1.0000 0.43180  0.77743  0.98122  Biso   1.000  C
  O97      1.0000 0.33467  0.60000  0.29570  Biso   1.000  O
  Zn17     1.0000 0.34160  0.60252  0.33397  Biso   1.000  Zn
  C257     1.0000 0.34720  0.56649  0.30252  Biso   1.000  C
  O98      1.0000 0.35323  0.56322  0.31699  Biso   1.000  O
  O99      1.0000 0.27912  0.55545  0.34809  Biso   1.000  O
  O100     1.0000 0.41050  0.62962  0.34655  Biso   1.000  O
  C258     1.0000 0.34774  0.51969  0.29325  Biso   1.000  C
  C259     1.0000 0.33149  0.51307  0.27778  Biso   1.000  C
  C260     1.0000 0.36540  0.48406  0.29922  Biso   1.000  C
  H193     1.0000 0.32097  0.53813  0.27333  Biso   1.000  H
  C261     1.0000 0.33099  0.46925  0.26908  Biso   1.000  C
  H194     1.0000 0.37637  0.48813  0.30953  Biso   1.000  H
  C262     1.0000 0.36767  0.44246  0.29059  Biso   1.000  C
  C263     1.0000 0.34826  0.43262  0.27525  Biso   1.000  C
  H195     1.0000 0.31877  0.46453  0.25883  Biso   1.000  H
  H196     1.0000 0.38227  0.42043  0.29493  Biso   1.000  H
  O101     1.0000 0.34926  0.38885  0.26793  Biso   1.000  O
  C264     1.0000 0.31656  0.36927  0.25408  Biso   1.000  C
  H197     1.0000 0.33607  0.39693  0.24583  Biso   1.000  H
  H198     1.0000 0.27857  0.36503  0.25553  Biso   1.000  H
  C265     1.0000 0.28784  0.26921  0.26389  Biso   1.000  C
  O102     1.0000 0.23557  0.26638  0.26856  Biso   1.000  O
  H199     1.0000 0.31577  0.28353  0.27223  Biso   1.000  H
  H200     1.0000 0.28077  0.23113  0.26093  Biso   1.000  H
  C266     1.0000 0.20557  0.22793  0.28009  Biso   1.000  C
  C267     1.0000 0.15467  0.22650  0.28434  Biso   1.000  C
  C268     1.0000 0.22155  0.19246  0.28683  Biso   1.000  C
  H201     1.0000 0.14427  0.25113  0.27953  Biso   1.000  H
  C269     1.0000 0.11974  0.18911  0.29553  Biso   1.000  C
  C270     1.0000 0.18777  0.15496  0.29826  Biso   1.000  C
  H202     1.0000 0.25537  0.19333  0.28373  Biso   1.000  H
  C271     1.0000 0.13607  0.15305  0.30286  Biso   1.000  C
  H203     1.0000 0.08537  0.18783  0.29823  Biso   1.000  H
  H204     1.0000 0.19897  0.13083  0.30293  Biso   1.000  H
  C272     1.0000 0.09847  0.11076  0.31455  Biso   1.000  C
  O103     1.0000 0.00133  0.93334  0.62904  Biso   1.000  O
  Zn18     1.0000 0.00827  0.93585  0.66730  Biso   1.000  Zn
  C273     1.0000 0.01386  0.89983  0.63586  Biso   1.000  C
  O104     1.0000 0.01989  0.89656  0.65033  Biso   1.000  O
  O105     1.0000 0.94578  0.88879  0.68143  Biso   1.000  O
  O106     1.0000 0.07716  0.96296  0.67989  Biso   1.000  O
  C274     1.0000 0.01440  0.85303  0.62659  Biso   1.000  C
  C275     1.0000 0.99815  0.84641  0.61112  Biso   1.000  C
  C276     1.0000 0.03206  0.81740  0.63256  Biso   1.000  C
  H205     1.0000 0.98763  0.87147  0.60667  Biso   1.000  H
  C277     1.0000 0.99765  0.80259  0.60242  Biso   1.000  C
  H206     1.0000 0.04303  0.82147  0.64287  Biso   1.000  H
  C278     1.0000 0.03433  0.77580  0.62393  Biso   1.000  C
  C279     1.0000 0.01492  0.76596  0.60859  Biso   1.000  C
  H207     1.0000 0.98543  0.79787  0.59217  Biso   1.000  H
  H208     1.0000 0.04893  0.75377  0.62827  Biso   1.000  H
  O107     1.0000 0.01592  0.72219  0.60127  Biso   1.000  O
  C280     1.0000 0.98322  0.70261  0.58742  Biso   1.000  C
  H209     1.0000 0.00273  0.73027  0.57917  Biso   1.000  H
  H210     1.0000 0.94523  0.69837  0.58887  Biso   1.000  H
  C281     1.0000 0.95450  0.60255  0.59723  Biso   1.000  C
  O108     1.0000 0.90223  0.59972  0.60190  Biso   1.000  O
  H211     1.0000 0.98243  0.61687  0.60557  Biso   1.000  H
  H212     1.0000 0.94743  0.56447  0.59427  Biso   1.000  H
  C282     1.0000 0.87223  0.56127  0.61343  Biso   1.000  C
  C283     1.0000 0.82133  0.55984  0.61768  Biso   1.000  C
  C284     1.0000 0.88821  0.52580  0.62017  Biso   1.000  C
  H213     1.0000 0.81093  0.58447  0.61287  Biso   1.000  H
  C285     1.0000 0.78640  0.52245  0.62887  Biso   1.000  C
  C286     1.0000 0.85443  0.48830  0.63160  Biso   1.000  C
  H214     1.0000 0.92203  0.52667  0.61707  Biso   1.000  H
  C287     1.0000 0.80273  0.48639  0.63620  Biso   1.000  C
  H215     1.0000 0.75203  0.52117  0.63157  Biso   1.000  H
  H216     1.0000 0.86563  0.46417  0.63627  Biso   1.000  H
  C288     1.0000 0.76513  0.44410  0.64789  Biso   1.000  C
  O109     1.0000 0.66800  0.40133  0.46237  Biso   1.000  O
  Zn19     1.0000 0.67494  0.40575  0.50063  Biso   1.000  Zn
  C289     1.0000 0.68053  0.44737  0.46919  Biso   1.000  C
  O110     1.0000 0.68656  0.45667  0.48366  Biso   1.000  O
  O111     1.0000 0.61245  0.39033  0.51476  Biso   1.000  O
  O112     1.0000 0.74383  0.44754  0.51322  Biso   1.000  O
  C290     1.0000 0.68107  0.49471  0.45992  Biso   1.000  C
  C291     1.0000 0.66482  0.48508  0.44445  Biso   1.000  C
  C292     1.0000 0.69873  0.54800  0.46589  Biso   1.000  C
  H217     1.0000 0.65430  0.44950  0.44000  Biso   1.000  H
  C293     1.0000 0.66432  0.52840  0.43575  Biso   1.000  C
  H218     1.0000 0.70970  0.55490  0.47620  Biso   1.000  H
  C294     1.0000 0.70100  0.59187  0.45726  Biso   1.000  C
  C295     1.0000 0.68159  0.58230  0.44192  Biso   1.000  C
  H219     1.0000 0.65210  0.52090  0.42550  Biso   1.000  H
  H220     1.0000 0.71560  0.62850  0.46160  Biso   1.000  H
  O113     1.0000 0.68259  0.62707  0.43460  Biso   1.000  O
  C296     1.0000 0.64989  0.61395  0.42075  Biso   1.000  C
  H221     1.0000 0.66940  0.60580  0.41250  Biso   1.000  H
  H222     1.0000 0.61190  0.58020  0.42220  Biso   1.000  H
  C297     1.0000 0.62117  0.68529  0.43056  Biso   1.000  C
  O114     1.0000 0.56890  0.63585  0.43523  Biso   1.000  O
  H223     1.0000 0.64910  0.69890  0.43890  Biso   1.000  H
  H224     1.0000 0.61410  0.71630  0.42760  Biso   1.000  H
  C298     1.0000 0.53890  0.64430  0.44676  Biso   1.000  C
  C299     1.0000 0.48800  0.59483  0.45101  Biso   1.000  C
  C300     1.0000 0.55488  0.69575  0.45350  Biso   1.000  C
  H225     1.0000 0.47760  0.55980  0.44620  Biso   1.000  H
  C301     1.0000 0.45307  0.59729  0.46220  Biso   1.000  C
  C302     1.0000 0.52110  0.69947  0.46493  Biso   1.000  C
  H226     1.0000 0.58870  0.72870  0.45040  Biso   1.000  H
  C303     1.0000 0.46940  0.64968  0.46953  Biso   1.000  C
  H227     1.0000 0.41870  0.56420  0.46490  Biso   1.000  H
  H228     1.0000 0.53230  0.73480  0.46960  Biso   1.000  H
  C304     1.0000 0.43180  0.65437  0.48122  Biso   1.000  C
  O115     1.0000 0.33467  0.73466  0.79570  Biso   1.000  O
  Zn20     1.0000 0.34160  0.73909  0.83397  Biso   1.000  Zn
  C305     1.0000 0.34720  0.78070  0.80252  Biso   1.000  C
  O116     1.0000 0.35323  0.79000  0.81699  Biso   1.000  O
  O117     1.0000 0.27912  0.72366  0.84809  Biso   1.000  O
  O118     1.0000 0.41050  0.78087  0.84655  Biso   1.000  O
  C306     1.0000 0.34774  0.82804  0.79325  Biso   1.000  C
  C307     1.0000 0.33149  0.81841  0.77778  Biso   1.000  C
  C308     1.0000 0.36540  0.88133  0.79922  Biso   1.000  C
  H229     1.0000 0.32097  0.78283  0.77333  Biso   1.000  H
  C309     1.0000 0.33099  0.86173  0.76908  Biso   1.000  C
  H230     1.0000 0.37637  0.88823  0.80953  Biso   1.000  H
  C310     1.0000 0.36767  0.92520  0.79059  Biso   1.000  C
  C311     1.0000 0.34826  0.91563  0.77525  Biso   1.000  C
  H231     1.0000 0.31877  0.85423  0.75883  Biso   1.000  H
  H232     1.0000 0.38227  0.96183  0.79493  Biso   1.000  H
  O119     1.0000 0.34926  0.96040  0.76793  Biso   1.000  O
  C312     1.0000 0.31656  0.94728  0.75408  Biso   1.000  C
  H233     1.0000 0.33607  0.93913  0.74583  Biso   1.000  H
  H234     1.0000 0.27857  0.91353  0.75553  Biso   1.000  H
  C313     1.0000 0.28784  0.01862  0.76389  Biso   1.000  C
  O120     1.0000 0.23557  0.96918  0.76856  Biso   1.000  O
  H235     1.0000 0.31577  0.03223  0.77223  Biso   1.000  H
  H236     1.0000 0.28077  0.04963  0.76093  Biso   1.000  H
  C314     1.0000 0.20557  0.97763  0.78009  Biso   1.000  C
  C315     1.0000 0.15467  0.92816  0.78434  Biso   1.000  C
  C316     1.0000 0.22155  0.02908  0.78683  Biso   1.000  C
  H237     1.0000 0.14427  0.89313  0.77953  Biso   1.000  H
  C317     1.0000 0.11974  0.93062  0.79553  Biso   1.000  C
  C318     1.0000 0.18777  0.03280  0.79826  Biso   1.000  C
  H238     1.0000 0.25537  0.06203  0.78373  Biso   1.000  H
  C319     1.0000 0.13607  0.98301  0.80286  Biso   1.000  C
  H239     1.0000 0.08537  0.89753  0.79823  Biso   1.000  H
  H240     1.0000 0.19897  0.06813  0.80293  Biso   1.000  H
  C320     1.0000 0.09847  0.98770  0.81455  Biso   1.000  C
  O121     1.0000 0.00133  0.06800  0.12904  Biso   1.000  O
  Zn21     1.0000 0.00827  0.07242  0.16730  Biso   1.000  Zn
  C321     1.0000 0.01386  0.11404  0.13586  Biso   1.000  C
  O122     1.0000 0.01989  0.12334  0.15033  Biso   1.000  O
  O123     1.0000 0.94578  0.05700  0.18143  Biso   1.000  O
  O124     1.0000 0.07716  0.11421  0.17989  Biso   1.000  O
  C322     1.0000 0.01440  0.16138  0.12659  Biso   1.000  C
  C323     1.0000 0.99815  0.15175  0.11112  Biso   1.000  C
  C324     1.0000 0.03206  0.21467  0.13256  Biso   1.000  C
  H241     1.0000 0.98763  0.11617  0.10667  Biso   1.000  H
  C325     1.0000 0.99765  0.19507  0.10242  Biso   1.000  C
  H242     1.0000 0.04303  0.22157  0.14287  Biso   1.000  H
  C326     1.0000 0.03433  0.25854  0.12393  Biso   1.000  C
  C327     1.0000 0.01492  0.24897  0.10859  Biso   1.000  C
  H243     1.0000 0.98543  0.18757  0.09217  Biso   1.000  H
  H244     1.0000 0.04893  0.29517  0.12827  Biso   1.000  H
  O125     1.0000 0.01592  0.29374  0.10127  Biso   1.000  O
  C328     1.0000 0.98322  0.28062  0.08742  Biso   1.000  C
  H245     1.0000 0.00273  0.27247  0.07917  Biso   1.000  H
  H246     1.0000 0.94523  0.24687  0.08887  Biso   1.000  H
  C329     1.0000 0.95450  0.35196  0.09723  Biso   1.000  C
  O126     1.0000 0.90223  0.30252  0.10190  Biso   1.000  O
  H247     1.0000 0.98243  0.36557  0.10557  Biso   1.000  H
  H248     1.0000 0.94743  0.38297  0.09427  Biso   1.000  H
  C330     1.0000 0.87223  0.31097  0.11343  Biso   1.000  C
  C331     1.0000 0.82133  0.26150  0.11768  Biso   1.000  C
  C332     1.0000 0.88821  0.36242  0.12017  Biso   1.000  C
  H249     1.0000 0.81093  0.22647  0.11287  Biso   1.000  H
  C333     1.0000 0.78640  0.26396  0.12887  Biso   1.000  C
  C334     1.0000 0.85443  0.36614  0.13160  Biso   1.000  C
  H250     1.0000 0.92203  0.39537  0.11707  Biso   1.000  H
  C335     1.0000 0.80273  0.31635  0.13620  Biso   1.000  C
  H251     1.0000 0.75203  0.23087  0.13157  Biso   1.000  H
  H252     1.0000 0.86563  0.40147  0.13627  Biso   1.000  H
  C336     1.0000 0.76513  0.32104  0.14789  Biso   1.000  C
  O127     1.0000 0.59867  0.26667  0.46237  Biso   1.000  O
  Zn22     1.0000 0.59425  0.26918  0.50063  Biso   1.000  Zn
  C337     1.0000 0.55263  0.23316  0.46919  Biso   1.000  C
  O128     1.0000 0.54333  0.22989  0.48366  Biso   1.000  O
  O129     1.0000 0.60967  0.22212  0.51476  Biso   1.000  O
  O130     1.0000 0.55246  0.29629  0.51322  Biso   1.000  O
  C338     1.0000 0.50529  0.18636  0.45992  Biso   1.000  C
  C339     1.0000 0.51492  0.17974  0.44445  Biso   1.000  C
  C340     1.0000 0.45200  0.15073  0.46589  Biso   1.000  C
  H253     1.0000 0.55050  0.20480  0.44000  Biso   1.000  H
  C341     1.0000 0.47160  0.13592  0.43575  Biso   1.000  C
  H254     1.0000 0.44510  0.15480  0.47620  Biso   1.000  H
  C342     1.0000 0.40813  0.10913  0.45726  Biso   1.000  C
  C343     1.0000 0.41770  0.09929  0.44192  Biso   1.000  C
  H255     1.0000 0.47910  0.13120  0.42550  Biso   1.000  H
  H256     1.0000 0.37150  0.08710  0.46160  Biso   1.000  H
  O131     1.0000 0.37293  0.05552  0.43460  Biso   1.000  O
  C344     1.0000 0.38605  0.03594  0.42075  Biso   1.000  C
  H257     1.0000 0.39420  0.06360  0.41250  Biso   1.000  H
  H258     1.0000 0.41980  0.03170  0.42220  Biso   1.000  H
  C345     1.0000 0.31471  0.93588  0.43056  Biso   1.000  C
  O132     1.0000 0.36415  0.93305  0.43523  Biso   1.000  O
  H259     1.0000 0.30110  0.95020  0.43890  Biso   1.000  H
  H260     1.0000 0.28370  0.89780  0.42760  Biso   1.000  H
  C346     1.0000 0.35570  0.89460  0.44676  Biso   1.000  C
  C347     1.0000 0.40517  0.89317  0.45101  Biso   1.000  C
  C348     1.0000 0.30425  0.85913  0.45350  Biso   1.000  C
  H261     1.0000 0.44020  0.91780  0.44620  Biso   1.000  H
  C349     1.0000 0.40271  0.85578  0.46220  Biso   1.000  C
  C350     1.0000 0.30053  0.82163  0.46493  Biso   1.000  C
  H262     1.0000 0.27130  0.86000  0.45040  Biso   1.000  H
  C351     1.0000 0.35032  0.81972  0.46953  Biso   1.000  C
  H263     1.0000 0.43580  0.85450  0.46490  Biso   1.000  H
  H264     1.0000 0.26520  0.79750  0.46960  Biso   1.000  H
  C352     1.0000 0.34563  0.77743  0.48122  Biso   1.000  C
  O133     1.0000 0.26534  0.60000  0.79570  Biso   1.000  O
  Zn23     1.0000 0.26091  0.60252  0.83397  Biso   1.000  Zn
  C353     1.0000 0.21930  0.56649  0.80252  Biso   1.000  C
  O134     1.0000 0.21000  0.56322  0.81699  Biso   1.000  O
  O135     1.0000 0.27634  0.55545  0.84809  Biso   1.000  O
  O136     1.0000 0.21913  0.62962  0.84655  Biso   1.000  O
  C354     1.0000 0.17196  0.51969  0.79325  Biso   1.000  C
  C355     1.0000 0.18159  0.51307  0.77778  Biso   1.000  C
  C356     1.0000 0.11867  0.48406  0.79922  Biso   1.000  C
  H265     1.0000 0.21717  0.53813  0.77333  Biso   1.000  H
  C357     1.0000 0.13827  0.46925  0.76908  Biso   1.000  C
  H266     1.0000 0.11177  0.48813  0.80953  Biso   1.000  H
  C358     1.0000 0.07480  0.44246  0.79059  Biso   1.000  C
  C359     1.0000 0.08437  0.43262  0.77525  Biso   1.000  C
  H267     1.0000 0.14577  0.46453  0.75883  Biso   1.000  H
  H268     1.0000 0.03817  0.42043  0.79493  Biso   1.000  H
  O137     1.0000 0.03960  0.38885  0.76793  Biso   1.000  O
  C360     1.0000 0.05272  0.36927  0.75408  Biso   1.000  C
  H269     1.0000 0.06087  0.39693  0.74583  Biso   1.000  H
  H270     1.0000 0.08647  0.36503  0.75553  Biso   1.000  H
  C361     1.0000 0.98138  0.26921  0.76389  Biso   1.000  C
  O138     1.0000 0.03082  0.26638  0.76856  Biso   1.000  O
  H271     1.0000 0.96777  0.28353  0.77223  Biso   1.000  H
  H272     1.0000 0.95037  0.23113  0.76093  Biso   1.000  H
  C362     1.0000 0.02237  0.22793  0.78009  Biso   1.000  C
  C363     1.0000 0.07184  0.22650  0.78434  Biso   1.000  C
  C364     1.0000 0.97092  0.19246  0.78683  Biso   1.000  C
  H273     1.0000 0.10687  0.25113  0.77953  Biso   1.000  H
  C365     1.0000 0.06938  0.18911  0.79553  Biso   1.000  C
  C366     1.0000 0.96720  0.15496  0.79826  Biso   1.000  C
  H274     1.0000 0.93797  0.19333  0.78373  Biso   1.000  H
  C367     1.0000 0.01699  0.15305  0.80286  Biso   1.000  C
  H275     1.0000 0.10247  0.18783  0.79823  Biso   1.000  H
  H276     1.0000 0.93187  0.13083  0.80293  Biso   1.000  H
  C368     1.0000 0.01230  0.11076  0.81455  Biso   1.000  C
  O139     1.0000 0.93200  0.93334  0.12904  Biso   1.000  O
  Zn24     1.0000 0.92758  0.93585  0.16730  Biso   1.000  Zn
  C369     1.0000 0.88596  0.89983  0.13586  Biso   1.000  C
  O140     1.0000 0.87666  0.89656  0.15033  Biso   1.000  O
  O141     1.0000 0.94300  0.88879  0.18143  Biso   1.000  O
  O142     1.0000 0.88579  0.96296  0.17989  Biso   1.000  O
  C370     1.0000 0.83862  0.85303  0.12659  Biso   1.000  C
  C371     1.0000 0.84825  0.84641  0.11112  Biso   1.000  C
  C372     1.0000 0.78533  0.81740  0.13256  Biso   1.000  C
  H277     1.0000 0.88383  0.87147  0.10667  Biso   1.000  H
  C373     1.0000 0.80493  0.80259  0.10242  Biso   1.000  C
  H278     1.0000 0.77843  0.82147  0.14287  Biso   1.000  H
  C374     1.0000 0.74146  0.77580  0.12393  Biso   1.000  C
  C375     1.0000 0.75103  0.76596  0.10859  Biso   1.000  C
  H279     1.0000 0.81243  0.79787  0.09217  Biso   1.000  H
  H280     1.0000 0.70483  0.75377  0.12827  Biso   1.000  H
  O143     1.0000 0.70626  0.72219  0.10127  Biso   1.000  O
  C376     1.0000 0.71938  0.70261  0.08742  Biso   1.000  C
  H281     1.0000 0.72753  0.73027  0.07917  Biso   1.000  H
  H282     1.0000 0.75313  0.69837  0.08887  Biso   1.000  H
  C377     1.0000 0.64804  0.60255  0.09723  Biso   1.000  C
  O144     1.0000 0.69748  0.59972  0.10190  Biso   1.000  O
  H283     1.0000 0.63443  0.61687  0.10557  Biso   1.000  H
  H284     1.0000 0.61703  0.56447  0.09427  Biso   1.000  H
  C378     1.0000 0.68903  0.56127  0.11343  Biso   1.000  C
  C379     1.0000 0.73850  0.55984  0.11768  Biso   1.000  C
  C380     1.0000 0.63758  0.52580  0.12017  Biso   1.000  C
  H285     1.0000 0.77353  0.58447  0.11287  Biso   1.000  H
  C381     1.0000 0.73604  0.52245  0.12887  Biso   1.000  C
  C382     1.0000 0.63386  0.48830  0.13160  Biso   1.000  C
  H286     1.0000 0.60463  0.52667  0.11707  Biso   1.000  H
  C383     1.0000 0.68365  0.48639  0.13620  Biso   1.000  C
  H287     1.0000 0.76913  0.52117  0.13157  Biso   1.000  H
  H288     1.0000 0.59853  0.46417  0.13627  Biso   1.000  H
  C384     1.0000 0.67896  0.44410  0.14789  Biso   1.000  C
  O145     1.0000 0.73333  0.33200  0.46237  Biso   1.000  O
  Zn25     1.0000 0.73082  0.32506  0.50063  Biso   1.000  Zn
  C385     1.0000 0.76684  0.31947  0.46919  Biso   1.000  C
  O146     1.0000 0.77011  0.31344  0.48366  Biso   1.000  O
  O147     1.0000 0.77788  0.38755  0.51476  Biso   1.000  O
  O148     1.0000 0.70371  0.25617  0.51322  Biso   1.000  O
  C386     1.0000 0.81364  0.31893  0.45992  Biso   1.000  C
  C387     1.0000 0.82026  0.33518  0.44445  Biso   1.000  C
  C388     1.0000 0.84927  0.30127  0.46589  Biso   1.000  C
  H289     1.0000 0.79520  0.34570  0.44000  Biso   1.000  H
  C389     1.0000 0.86408  0.33568  0.43575  Biso   1.000  C
  H290     1.0000 0.84520  0.29030  0.47620  Biso   1.000  H
  C390     1.0000 0.89087  0.29900  0.45726  Biso   1.000  C
  C391     1.0000 0.90071  0.31841  0.44192  Biso   1.000  C
  H291     1.0000 0.86880  0.34790  0.42550  Biso   1.000  H
  H292     1.0000 0.91290  0.28440  0.46160  Biso   1.000  H
  O149     1.0000 0.94448  0.31741  0.43460  Biso   1.000  O
  C392     1.0000 0.96406  0.35011  0.42075  Biso   1.000  C
  H293     1.0000 0.93640  0.33060  0.41250  Biso   1.000  H
  H294     1.0000 0.96830  0.38810  0.42220  Biso   1.000  H
  C393     1.0000 0.06412  0.37883  0.43056  Biso   1.000  C
  O150     1.0000 0.06695  0.43110  0.43523  Biso   1.000  O
  H295     1.0000 0.04980  0.35090  0.43890  Biso   1.000  H
  H296     1.0000 0.10220  0.38590  0.42760  Biso   1.000  H
  C394     1.0000 0.10540  0.46110  0.44676  Biso   1.000  C
  C395     1.0000 0.10683  0.51200  0.45101  Biso   1.000  C
  C396     1.0000 0.14087  0.44512  0.45350  Biso   1.000  C
  H297     1.0000 0.08220  0.52240  0.44620  Biso   1.000  H
  C397     1.0000 0.14422  0.54693  0.46220  Biso   1.000  C
  C398     1.0000 0.17837  0.47890  0.46493  Biso   1.000  C
  H298     1.0000 0.14000  0.41130  0.45040  Biso   1.000  H
  C399     1.0000 0.18028  0.53060  0.46953  Biso   1.000  C
  H299     1.0000 0.14550  0.58130  0.46490  Biso   1.000  H
  H300     1.0000 0.20250  0.46770  0.46960  Biso   1.000  H
  C400     1.0000 0.22257  0.56820  0.48122  Biso   1.000  C
  O151     1.0000 0.40000  0.66533  0.79570  Biso   1.000  O
  Zn26     1.0000 0.39748  0.65840  0.83397  Biso   1.000  Zn
  C401     1.0000 0.43351  0.65280  0.80252  Biso   1.000  C
  O152     1.0000 0.43678  0.64677  0.81699  Biso   1.000  O
  O153     1.0000 0.44455  0.72088  0.84809  Biso   1.000  O
  O154     1.0000 0.37038  0.58950  0.84655  Biso   1.000  O
  C402     1.0000 0.48031  0.65226  0.79325  Biso   1.000  C
  C403     1.0000 0.48693  0.66851  0.77778  Biso   1.000  C
  C404     1.0000 0.51594  0.63460  0.79922  Biso   1.000  C
  H301     1.0000 0.46187  0.67903  0.77333  Biso   1.000  H
  C405     1.0000 0.53075  0.66901  0.76908  Biso   1.000  C
  H302     1.0000 0.51187  0.62363  0.80953  Biso   1.000  H
  C406     1.0000 0.55754  0.63233  0.79059  Biso   1.000  C
  C407     1.0000 0.56738  0.65174  0.77525  Biso   1.000  C
  H303     1.0000 0.53547  0.68123  0.75883  Biso   1.000  H
  H304     1.0000 0.57957  0.61773  0.79493  Biso   1.000  H
  O155     1.0000 0.61115  0.65074  0.76793  Biso   1.000  O
  C408     1.0000 0.63073  0.68344  0.75408  Biso   1.000  C
  H305     1.0000 0.60307  0.66393  0.74583  Biso   1.000  H
  H306     1.0000 0.63497  0.72143  0.75553  Biso   1.000  H
  C409     1.0000 0.73079  0.71216  0.76389  Biso   1.000  C
  O156     1.0000 0.73362  0.76443  0.76856  Biso   1.000  O
  H307     1.0000 0.71647  0.68423  0.77223  Biso   1.000  H
  H308     1.0000 0.76887  0.71923  0.76093  Biso   1.000  H
  C410     1.0000 0.77207  0.79443  0.78009  Biso   1.000  C
  C411     1.0000 0.77350  0.84533  0.78434  Biso   1.000  C
  C412     1.0000 0.80754  0.77845  0.78683  Biso   1.000  C
  H309     1.0000 0.74887  0.85573  0.77953  Biso   1.000  H
  C413     1.0000 0.81089  0.88026  0.79553  Biso   1.000  C
  C414     1.0000 0.84504  0.81223  0.79826  Biso   1.000  C
  H310     1.0000 0.80667  0.74463  0.78373  Biso   1.000  H
  C415     1.0000 0.84695  0.86393  0.80286  Biso   1.000  C
  H311     1.0000 0.81217  0.91463  0.79823  Biso   1.000  H
  H312     1.0000 0.86917  0.80103  0.80293  Biso   1.000  H
  C416     1.0000 0.88924  0.90153  0.81455  Biso   1.000  C
  O157     1.0000 0.06666  0.99867  0.12904  Biso   1.000  O
  Zn27     1.0000 0.06415  0.99173  0.16730  Biso   1.000  Zn
  C417     1.0000 0.10017  0.98614  0.13586  Biso   1.000  C
  O158     1.0000 0.10344  0.98011  0.15033  Biso   1.000  O
  O159     1.0000 0.11121  0.05422  0.18143  Biso   1.000  O
  O160     1.0000 0.03704  0.92284  0.17989  Biso   1.000  O
  C418     1.0000 0.14697  0.98560  0.12659  Biso   1.000  C
  C419     1.0000 0.15359  0.00185  0.11112  Biso   1.000  C
  C420     1.0000 0.18260  0.96794  0.13256  Biso   1.000  C
  H313     1.0000 0.12853  0.01237  0.10667  Biso   1.000  H
  C421     1.0000 0.19741  0.00235  0.10242  Biso   1.000  C
  H314     1.0000 0.17853  0.95697  0.14287  Biso   1.000  H
  C422     1.0000 0.22420  0.96567  0.12393  Biso   1.000  C
  C423     1.0000 0.23404  0.98508  0.10859  Biso   1.000  C
  H315     1.0000 0.20213  0.01457  0.09217  Biso   1.000  H
  H316     1.0000 0.24623  0.95107  0.12827  Biso   1.000  H
  O161     1.0000 0.27781  0.98408  0.10127  Biso   1.000  O
  C424     1.0000 0.29739  0.01678  0.08742  Biso   1.000  C
  H317     1.0000 0.26973  0.99727  0.07917  Biso   1.000  H
  H318     1.0000 0.30163  0.05477  0.08887  Biso   1.000  H
  C425     1.0000 0.39745  0.04550  0.09723  Biso   1.000  C
  O162     1.0000 0.40028  0.09777  0.10190  Biso   1.000  O
  H319     1.0000 0.38313  0.01757  0.10557  Biso   1.000  H
  H320     1.0000 0.43553  0.05257  0.09427  Biso   1.000  H
  C426     1.0000 0.43873  0.12777  0.11343  Biso   1.000  C
  C427     1.0000 0.44016  0.17867  0.11768  Biso   1.000  C
  C428     1.0000 0.47420  0.11179  0.12017  Biso   1.000  C
  H321     1.0000 0.41553  0.18907  0.11287  Biso   1.000  H
  C429     1.0000 0.47755  0.21360  0.12887  Biso   1.000  C
  C430     1.0000 0.51170  0.14557  0.13160  Biso   1.000  C
  H322     1.0000 0.47333  0.07797  0.11707  Biso   1.000  H
  C431     1.0000 0.51361  0.19727  0.13620  Biso   1.000  C
  H323     1.0000 0.47883  0.24797  0.13157  Biso   1.000  H
  H324     1.0000 0.53583  0.13437  0.13627  Biso   1.000  H
  C432     1.0000 0.55590  0.23487  0.14789  Biso   1.000  C
  O163     1.0000 0.40133  0.66800  0.03763  Biso   1.000  O
  Zn28     1.0000 0.40575  0.67494  0.99937  Biso   1.000  Zn
  C433     1.0000 0.44737  0.68053  0.03081  Biso   1.000  C
  O164     1.0000 0.45667  0.68656  0.01634  Biso   1.000  O
  O165     1.0000 0.39033  0.61245  0.98524  Biso   1.000  O
  O166     1.0000 0.44754  0.74383  0.98678  Biso   1.000  O
  C434     1.0000 0.49471  0.68107  0.04008  Biso   1.000  C
  C435     1.0000 0.48508  0.66482  0.05555  Biso   1.000  C
  C436     1.0000 0.54800  0.69873  0.03411  Biso   1.000  C
  H325     1.0000 0.44950  0.65430  0.06000  Biso   1.000  H
  C437     1.0000 0.52840  0.66432  0.06425  Biso   1.000  C
  H326     1.0000 0.55490  0.70970  0.02380  Biso   1.000  H
  C438     1.0000 0.59187  0.70100  0.04274  Biso   1.000  C
  C439     1.0000 0.58230  0.68159  0.05808  Biso   1.000  C
  H327     1.0000 0.52090  0.65210  0.07450  Biso   1.000  H
  H328     1.0000 0.62850  0.71560  0.03840  Biso   1.000  H
  O167     1.0000 0.62707  0.68259  0.06540  Biso   1.000  O
  C440     1.0000 0.61395  0.64989  0.07925  Biso   1.000  C
  H329     1.0000 0.60580  0.66940  0.08750  Biso   1.000  H
  H330     1.0000 0.58020  0.61190  0.07780  Biso   1.000  H
  C441     1.0000 0.68529  0.62117  0.06944  Biso   1.000  C
  O168     1.0000 0.63585  0.56890  0.06477  Biso   1.000  O
  H331     1.0000 0.69890  0.64910  0.06110  Biso   1.000  H
  H332     1.0000 0.71630  0.61410  0.07240  Biso   1.000  H
  C442     1.0000 0.64430  0.53890  0.05324  Biso   1.000  C
  C443     1.0000 0.59483  0.48800  0.04899  Biso   1.000  C
  C444     1.0000 0.69575  0.55488  0.04650  Biso   1.000  C
  H333     1.0000 0.55980  0.47760  0.05380  Biso   1.000  H
  C445     1.0000 0.59729  0.45307  0.03780  Biso   1.000  C
  C446     1.0000 0.69947  0.52110  0.03507  Biso   1.000  C
  H334     1.0000 0.72870  0.58870  0.04960  Biso   1.000  H
  C447     1.0000 0.64968  0.46940  0.03047  Biso   1.000  C
  H335     1.0000 0.56420  0.41870  0.03510  Biso   1.000  H
  H336     1.0000 0.73480  0.53230  0.03040  Biso   1.000  H
  C448     1.0000 0.65437  0.43180  0.01878  Biso   1.000  C
  O169     1.0000 0.06800  0.00133  0.37096  Biso   1.000  O
  Zn29     1.0000 0.07242  0.00827  0.33270  Biso   1.000  Zn
  C449     1.0000 0.11404  0.01386  0.36414  Biso   1.000  C
  O170     1.0000 0.12334  0.01989  0.34967  Biso   1.000  O
  O171     1.0000 0.05700  0.94578  0.31857  Biso   1.000  O
  O172     1.0000 0.11421  0.07716  0.32011  Biso   1.000  O
  C450     1.0000 0.16138  0.01440  0.37341  Biso   1.000  C
  C451     1.0000 0.15175  0.99815  0.38888  Biso   1.000  C
  C452     1.0000 0.21467  0.03206  0.36744  Biso   1.000  C
  H337     1.0000 0.11617  0.98763  0.39333  Biso   1.000  H
  C453     1.0000 0.19507  0.99765  0.39758  Biso   1.000  C
  H338     1.0000 0.22157  0.04303  0.35713  Biso   1.000  H
  C454     1.0000 0.25854  0.03433  0.37607  Biso   1.000  C
  C455     1.0000 0.24897  0.01492  0.39141  Biso   1.000  C
  H339     1.0000 0.18757  0.98543  0.40783  Biso   1.000  H
  H340     1.0000 0.29517  0.04893  0.37173  Biso   1.000  H
  O173     1.0000 0.29374  0.01592  0.39873  Biso   1.000  O
  C456     1.0000 0.28062  0.98322  0.41258  Biso   1.000  C
  H341     1.0000 0.27247  0.00273  0.42083  Biso   1.000  H
  H342     1.0000 0.24687  0.94523  0.41113  Biso   1.000  H
  C457     1.0000 0.35196  0.95450  0.40277  Biso   1.000  C
  O174     1.0000 0.30252  0.90223  0.39810  Biso   1.000  O
  H343     1.0000 0.36557  0.98243  0.39443  Biso   1.000  H
  H344     1.0000 0.38297  0.94743  0.40573  Biso   1.000  H
  C458     1.0000 0.31097  0.87223  0.38657  Biso   1.000  C
  C459     1.0000 0.26150  0.82133  0.38232  Biso   1.000  C
  C460     1.0000 0.36242  0.88821  0.37983  Biso   1.000  C
  H345     1.0000 0.22647  0.81093  0.38713  Biso   1.000  H
  C461     1.0000 0.26396  0.78640  0.37113  Biso   1.000  C
  C462     1.0000 0.36614  0.85443  0.36840  Biso   1.000  C
  H346     1.0000 0.39537  0.92203  0.38293  Biso   1.000  H
  C463     1.0000 0.31635  0.80273  0.36380  Biso   1.000  C
  H347     1.0000 0.23087  0.75203  0.36843  Biso   1.000  H
  H348     1.0000 0.40147  0.86563  0.36373  Biso   1.000  H
  C464     1.0000 0.32104  0.76513  0.35211  Biso   1.000  C
  O175     1.0000 0.73466  0.33467  0.70430  Biso   1.000  O
  Zn30     1.0000 0.73909  0.34160  0.66603  Biso   1.000  Zn
  C465     1.0000 0.78070  0.34720  0.69748  Biso   1.000  C
  O176     1.0000 0.79000  0.35323  0.68301  Biso   1.000  O
  O177     1.0000 0.72366  0.27912  0.65191  Biso   1.000  O
  O178     1.0000 0.78087  0.41050  0.65345  Biso   1.000  O
  C466     1.0000 0.82804  0.34774  0.70675  Biso   1.000  C
  C467     1.0000 0.81841  0.33149  0.72222  Biso   1.000  C
  C468     1.0000 0.88133  0.36540  0.70078  Biso   1.000  C
  H349     1.0000 0.78283  0.32097  0.72667  Biso   1.000  H
  C469     1.0000 0.86173  0.33099  0.73092  Biso   1.000  C
  H350     1.0000 0.88823  0.37637  0.69047  Biso   1.000  H
  C470     1.0000 0.92520  0.36767  0.70941  Biso   1.000  C
  C471     1.0000 0.91563  0.34826  0.72475  Biso   1.000  C
  H351     1.0000 0.85423  0.31877  0.74117  Biso   1.000  H
  H352     1.0000 0.96183  0.38227  0.70507  Biso   1.000  H
  O179     1.0000 0.96040  0.34926  0.73207  Biso   1.000  O
  C472     1.0000 0.94728  0.31656  0.74592  Biso   1.000  C
  H353     1.0000 0.93913  0.33607  0.75417  Biso   1.000  H
  H354     1.0000 0.91353  0.27857  0.74447  Biso   1.000  H
  C473     1.0000 0.01862  0.28784  0.73611  Biso   1.000  C
  O180     1.0000 0.96918  0.23557  0.73144  Biso   1.000  O
  H355     1.0000 0.03223  0.31577  0.72777  Biso   1.000  H
  H356     1.0000 0.04963  0.28077  0.73907  Biso   1.000  H
  C474     1.0000 0.97763  0.20557  0.71991  Biso   1.000  C
  C475     1.0000 0.92816  0.15467  0.71566  Biso   1.000  C
  C476     1.0000 0.02908  0.22155  0.71317  Biso   1.000  C
  H357     1.0000 0.89313  0.14427  0.72047  Biso   1.000  H
  C477     1.0000 0.93062  0.11974  0.70447  Biso   1.000  C
  C478     1.0000 0.03280  0.18777  0.70174  Biso   1.000  C
  H358     1.0000 0.06203  0.25537  0.71627  Biso   1.000  H
  C479     1.0000 0.98301  0.13607  0.69714  Biso   1.000  C
  H359     1.0000 0.89753  0.08537  0.70177  Biso   1.000  H
  H360     1.0000 0.06813  0.19897  0.69707  Biso   1.000  H
  C480     1.0000 0.98770  0.09847  0.68545  Biso   1.000  C
  O181     1.0000 0.26667  0.59867  0.03763  Biso   1.000  O
  Zn31     1.0000 0.26918  0.59425  0.99937  Biso   1.000  Zn
  C481     1.0000 0.23316  0.55263  0.03081  Biso   1.000  C
  O182     1.0000 0.22989  0.54333  0.01634  Biso   1.000  O
  O183     1.0000 0.22212  0.60967  0.98524  Biso   1.000  O
  O184     1.0000 0.29629  0.55246  0.98678  Biso   1.000  O
  C482     1.0000 0.18636  0.50529  0.04008  Biso   1.000  C
  C483     1.0000 0.17974  0.51492  0.05555  Biso   1.000  C
  C484     1.0000 0.15073  0.45200  0.03411  Biso   1.000  C
  H361     1.0000 0.20480  0.55050  0.06000  Biso   1.000  H
  C485     1.0000 0.13592  0.47160  0.06425  Biso   1.000  C
  H362     1.0000 0.15480  0.44510  0.02380  Biso   1.000  H
  C486     1.0000 0.10913  0.40813  0.04274  Biso   1.000  C
  C487     1.0000 0.09929  0.41770  0.05808  Biso   1.000  C
  H363     1.0000 0.13120  0.47910  0.07450  Biso   1.000  H
  H364     1.0000 0.08710  0.37150  0.03840  Biso   1.000  H
  O185     1.0000 0.05552  0.37293  0.06540  Biso   1.000  O
  C488     1.0000 0.03594  0.38605  0.07925  Biso   1.000  C
  H365     1.0000 0.06360  0.39420  0.08750  Biso   1.000  H
  H366     1.0000 0.03170  0.41980  0.07780  Biso   1.000  H
  C489     1.0000 0.93588  0.31471  0.06944  Biso   1.000  C
  O186     1.0000 0.93305  0.36415  0.06477  Biso   1.000  O
  H367     1.0000 0.95020  0.30110  0.06110  Biso   1.000  H
  H368     1.0000 0.89780  0.28370  0.07240  Biso   1.000  H
  C490     1.0000 0.89460  0.35570  0.05324  Biso   1.000  C
  C491     1.0000 0.89317  0.40517  0.04899  Biso   1.000  C
  C492     1.0000 0.85913  0.30425  0.04650  Biso   1.000  C
  H369     1.0000 0.91780  0.44020  0.05380  Biso   1.000  H
  C493     1.0000 0.85578  0.40271  0.03780  Biso   1.000  C
  C494     1.0000 0.82163  0.30053  0.03507  Biso   1.000  C
  H370     1.0000 0.86000  0.27130  0.04960  Biso   1.000  H
  C495     1.0000 0.81972  0.35032  0.03047  Biso   1.000  C
  H371     1.0000 0.85450  0.43580  0.03510  Biso   1.000  H
  H372     1.0000 0.79750  0.26520  0.03040  Biso   1.000  H
  C496     1.0000 0.77743  0.34563  0.01878  Biso   1.000  C
  O187     1.0000 0.93334  0.93200  0.37096  Biso   1.000  O
  Zn32     1.0000 0.93585  0.92758  0.33270  Biso   1.000  Zn
  C497     1.0000 0.89983  0.88596  0.36414  Biso   1.000  C
  O188     1.0000 0.89656  0.87666  0.34967  Biso   1.000  O
  O189     1.0000 0.88879  0.94300  0.31857  Biso   1.000  O
  O190     1.0000 0.96296  0.88579  0.32011  Biso   1.000  O
  C498     1.0000 0.85303  0.83862  0.37341  Biso   1.000  C
  C499     1.0000 0.84641  0.84825  0.38888  Biso   1.000  C
  C500     1.0000 0.81740  0.78533  0.36744  Biso   1.000  C
  H373     1.0000 0.87147  0.88383  0.39333  Biso   1.000  H
  C501     1.0000 0.80259  0.80493  0.39758  Biso   1.000  C
  H374     1.0000 0.82147  0.77843  0.35713  Biso   1.000  H
  C502     1.0000 0.77580  0.74146  0.37607  Biso   1.000  C
  C503     1.0000 0.76596  0.75103  0.39141  Biso   1.000  C
  H375     1.0000 0.79787  0.81243  0.40783  Biso   1.000  H
  H376     1.0000 0.75377  0.70483  0.37173  Biso   1.000  H
  O191     1.0000 0.72219  0.70626  0.39873  Biso   1.000  O
  C504     1.0000 0.70261  0.71938  0.41258  Biso   1.000  C
  H377     1.0000 0.73027  0.72753  0.42083  Biso   1.000  H
  H378     1.0000 0.69837  0.75313  0.41113  Biso   1.000  H
  C505     1.0000 0.60255  0.64804  0.40277  Biso   1.000  C
  O192     1.0000 0.59972  0.69748  0.39810  Biso   1.000  O
  H379     1.0000 0.61687  0.63443  0.39443  Biso   1.000  H
  H380     1.0000 0.56447  0.61703  0.40573  Biso   1.000  H
  C506     1.0000 0.56127  0.68903  0.38657  Biso   1.000  C
  C507     1.0000 0.55984  0.73850  0.38232  Biso   1.000  C
  C508     1.0000 0.52580  0.63758  0.37983  Biso   1.000  C
  H381     1.0000 0.58447  0.77353  0.38713  Biso   1.000  H
  C509     1.0000 0.52245  0.73604  0.37113  Biso   1.000  C
  C510     1.0000 0.48830  0.63386  0.36840  Biso   1.000  C
  H382     1.0000 0.52667  0.60463  0.38293  Biso   1.000  H
  C511     1.0000 0.48639  0.68365  0.36380  Biso   1.000  C
  H383     1.0000 0.52117  0.76913  0.36843  Biso   1.000  H
  H384     1.0000 0.46417  0.59853  0.36373  Biso   1.000  H
  C512     1.0000 0.44410  0.67896  0.35211  Biso   1.000  C
  O193     1.0000 0.60000  0.26534  0.70430  Biso   1.000  O
  Zn33     1.0000 0.60252  0.26091  0.66603  Biso   1.000  Zn
  C513     1.0000 0.56649  0.21930  0.69748  Biso   1.000  C
  O194     1.0000 0.56322  0.21000  0.68301  Biso   1.000  O
  O195     1.0000 0.55545  0.27634  0.65191  Biso   1.000  O
  O196     1.0000 0.62962  0.21913  0.65345  Biso   1.000  O
  C514     1.0000 0.51969  0.17196  0.70675  Biso   1.000  C
  C515     1.0000 0.51307  0.18159  0.72222  Biso   1.000  C
  C516     1.0000 0.48406  0.11867  0.70078  Biso   1.000  C
  H385     1.0000 0.53813  0.21717  0.72667  Biso   1.000  H
  C517     1.0000 0.46925  0.13827  0.73092  Biso   1.000  C
  H386     1.0000 0.48813  0.11177  0.69047  Biso   1.000  H
  C518     1.0000 0.44246  0.07480  0.70941  Biso   1.000  C
  C519     1.0000 0.43262  0.08437  0.72475  Biso   1.000  C
  H387     1.0000 0.46453  0.14577  0.74117  Biso   1.000  H
  H388     1.0000 0.42043  0.03817  0.70507  Biso   1.000  H
  O197     1.0000 0.38885  0.03960  0.73207  Biso   1.000  O
  C520     1.0000 0.36927  0.05272  0.74592  Biso   1.000  C
  H389     1.0000 0.39693  0.06087  0.75417  Biso   1.000  H
  H390     1.0000 0.36503  0.08647  0.74447  Biso   1.000  H
  C521     1.0000 0.26921  0.98138  0.73611  Biso   1.000  C
  O198     1.0000 0.26638  0.03082  0.73144  Biso   1.000  O
  H391     1.0000 0.28353  0.96777  0.72777  Biso   1.000  H
  H392     1.0000 0.23113  0.95037  0.73907  Biso   1.000  H
  C522     1.0000 0.22793  0.02237  0.71991  Biso   1.000  C
  C523     1.0000 0.22650  0.07184  0.71566  Biso   1.000  C
  C524     1.0000 0.19246  0.97092  0.71317  Biso   1.000  C
  H393     1.0000 0.25113  0.10687  0.72047  Biso   1.000  H
  C525     1.0000 0.18911  0.06938  0.70447  Biso   1.000  C
  C526     1.0000 0.15496  0.96720  0.70174  Biso   1.000  C
  H394     1.0000 0.19333  0.93797  0.71627  Biso   1.000  H
  C527     1.0000 0.15305  0.01699  0.69714  Biso   1.000  C
  H395     1.0000 0.18783  0.10247  0.70177  Biso   1.000  H
  H396     1.0000 0.13083  0.93187  0.69707  Biso   1.000  H
  C528     1.0000 0.11076  0.01230  0.68545  Biso   1.000  C
  O199     1.0000 0.33200  0.73333  0.03763  Biso   1.000  O
  Zn34     1.0000 0.32506  0.73082  0.99937  Biso   1.000  Zn
  C529     1.0000 0.31947  0.76684  0.03081  Biso   1.000  C
  O200     1.0000 0.31344  0.77011  0.01634  Biso   1.000  O
  O201     1.0000 0.38755  0.77788  0.98524  Biso   1.000  O
  O202     1.0000 0.25617  0.70371  0.98678  Biso   1.000  O
  C530     1.0000 0.31893  0.81364  0.04008  Biso   1.000  C
  C531     1.0000 0.33518  0.82026  0.05555  Biso   1.000  C
  C532     1.0000 0.30127  0.84927  0.03411  Biso   1.000  C
  H397     1.0000 0.34570  0.79520  0.06000  Biso   1.000  H
  C533     1.0000 0.33568  0.86408  0.06425  Biso   1.000  C
  H398     1.0000 0.29030  0.84520  0.02380  Biso   1.000  H
  C534     1.0000 0.29900  0.89087  0.04274  Biso   1.000  C
  C535     1.0000 0.31841  0.90071  0.05808  Biso   1.000  C
  H399     1.0000 0.34790  0.86880  0.07450  Biso   1.000  H
  H400     1.0000 0.28440  0.91290  0.03840  Biso   1.000  H
  O203     1.0000 0.31741  0.94448  0.06540  Biso   1.000  O
  C536     1.0000 0.35011  0.96406  0.07925  Biso   1.000  C
  H401     1.0000 0.33060  0.93640  0.08750  Biso   1.000  H
  H402     1.0000 0.38810  0.96830  0.07780  Biso   1.000  H
  C537     1.0000 0.37883  0.06412  0.06944  Biso   1.000  C
  O204     1.0000 0.43110  0.06695  0.06477  Biso   1.000  O
  H403     1.0000 0.35090  0.04980  0.06110  Biso   1.000  H
  H404     1.0000 0.38590  0.10220  0.07240  Biso   1.000  H
  C538     1.0000 0.46110  0.10540  0.05324  Biso   1.000  C
  C539     1.0000 0.51200  0.10683  0.04899  Biso   1.000  C
  C540     1.0000 0.44512  0.14087  0.04650  Biso   1.000  C
  H405     1.0000 0.52240  0.08220  0.05380  Biso   1.000  H
  C541     1.0000 0.54693  0.14422  0.03780  Biso   1.000  C
  C542     1.0000 0.47890  0.17837  0.03507  Biso   1.000  C
  H406     1.0000 0.41130  0.14000  0.04960  Biso   1.000  H
  C543     1.0000 0.53060  0.18028  0.03047  Biso   1.000  C
  H407     1.0000 0.58130  0.14550  0.03510  Biso   1.000  H
  H408     1.0000 0.46770  0.20250  0.03040  Biso   1.000  H
  C544     1.0000 0.56820  0.22257  0.01878  Biso   1.000  C
  O205     1.0000 0.99867  0.06666  0.37096  Biso   1.000  O
  Zn35     1.0000 0.99173  0.06415  0.33270  Biso   1.000  Zn
  C545     1.0000 0.98614  0.10017  0.36414  Biso   1.000  C
  O206     1.0000 0.98011  0.10344  0.34967  Biso   1.000  O
  O207     1.0000 0.05422  0.11121  0.31857  Biso   1.000  O
  O208     1.0000 0.92284  0.03704  0.32011  Biso   1.000  O
  C546     1.0000 0.98560  0.14697  0.37341  Biso   1.000  C
  C547     1.0000 0.00185  0.15359  0.38888  Biso   1.000  C
  C548     1.0000 0.96794  0.18260  0.36744  Biso   1.000  C
  H409     1.0000 0.01237  0.12853  0.39333  Biso   1.000  H
  C549     1.0000 0.00235  0.19741  0.39758  Biso   1.000  C
  H410     1.0000 0.95697  0.17853  0.35713  Biso   1.000  H
  C550     1.0000 0.96567  0.22420  0.37607  Biso   1.000  C
  C551     1.0000 0.98508  0.23404  0.39141  Biso   1.000  C
  H411     1.0000 0.01457  0.20213  0.40783  Biso   1.000  H
  H412     1.0000 0.95107  0.24623  0.37173  Biso   1.000  H
  O209     1.0000 0.98408  0.27781  0.39873  Biso   1.000  O
  C552     1.0000 0.01678  0.29739  0.41258  Biso   1.000  C
  H413     1.0000 0.99727  0.26973  0.42083  Biso   1.000  H
  H414     1.0000 0.05477  0.30163  0.41113  Biso   1.000  H
  C553     1.0000 0.04550  0.39745  0.40277  Biso   1.000  C
  O210     1.0000 0.09777  0.40028  0.39810  Biso   1.000  O
  H415     1.0000 0.01757  0.38313  0.39443  Biso   1.000  H
  H416     1.0000 0.05257  0.43553  0.40573  Biso   1.000  H
  C554     1.0000 0.12777  0.43873  0.38657  Biso   1.000  C
  C555     1.0000 0.17867  0.44016  0.38232  Biso   1.000  C
  C556     1.0000 0.11179  0.47420  0.37983  Biso   1.000  C
  H417     1.0000 0.18907  0.41553  0.38713  Biso   1.000  H
  C557     1.0000 0.21360  0.47755  0.37113  Biso   1.000  C
  C558     1.0000 0.14557  0.51170  0.36840  Biso   1.000  C
  H418     1.0000 0.07797  0.47333  0.38293  Biso   1.000  H
  C559     1.0000 0.19727  0.51361  0.36380  Biso   1.000  C
  H419     1.0000 0.24797  0.47883  0.36843  Biso   1.000  H
  H420     1.0000 0.13437  0.53583  0.36373  Biso   1.000  H
  C560     1.0000 0.23487  0.55590  0.35211  Biso   1.000  C
  O211     1.0000 0.66533  0.40000  0.70430  Biso   1.000  O
  Zn36     1.0000 0.65840  0.39748  0.66603  Biso   1.000  Zn
  C561     1.0000 0.65280  0.43351  0.69748  Biso   1.000  C
  O212     1.0000 0.64677  0.43678  0.68301  Biso   1.000  O
  O213     1.0000 0.72088  0.44455  0.65191  Biso   1.000  O
  O214     1.0000 0.58950  0.37038  0.65345  Biso   1.000  O
  C562     1.0000 0.65226  0.48031  0.70675  Biso   1.000  C
  C563     1.0000 0.66851  0.48693  0.72222  Biso   1.000  C
  C564     1.0000 0.63460  0.51594  0.70078  Biso   1.000  C
  H421     1.0000 0.67903  0.46187  0.72667  Biso   1.000  H
  C565     1.0000 0.66901  0.53075  0.73092  Biso   1.000  C
  H422     1.0000 0.62363  0.51187  0.69047  Biso   1.000  H
  C566     1.0000 0.63233  0.55754  0.70941  Biso   1.000  C
  C567     1.0000 0.65174  0.56738  0.72475  Biso   1.000  C
  H423     1.0000 0.68123  0.53547  0.74117  Biso   1.000  H
  H424     1.0000 0.61773  0.57957  0.70507  Biso   1.000  H
  O215     1.0000 0.65074  0.61115  0.73207  Biso   1.000  O
  C568     1.0000 0.68344  0.63073  0.74592  Biso   1.000  C
  H425     1.0000 0.66393  0.60307  0.75417  Biso   1.000  H
  H426     1.0000 0.72143  0.63497  0.74447  Biso   1.000  H
  C569     1.0000 0.71216  0.73079  0.73611  Biso   1.000  C
  O216     1.0000 0.76443  0.73362  0.73144  Biso   1.000  O
  H427     1.0000 0.68423  0.71647  0.72777  Biso   1.000  H
  H428     1.0000 0.71923  0.76887  0.73907  Biso   1.000  H
  C570     1.0000 0.79443  0.77207  0.71991  Biso   1.000  C
  C571     1.0000 0.84533  0.77350  0.71566  Biso   1.000  C
  C572     1.0000 0.77845  0.80754  0.71317  Biso   1.000  C
  H429     1.0000 0.85573  0.74887  0.72047  Biso   1.000  H
  C573     1.0000 0.88026  0.81089  0.70447  Biso   1.000  C
  C574     1.0000 0.81223  0.84504  0.70174  Biso   1.000  C
  H430     1.0000 0.74463  0.80667  0.71627  Biso   1.000  H
  C575     1.0000 0.86393  0.84695  0.69714  Biso   1.000  C
  H431     1.0000 0.91463  0.81217  0.70177  Biso   1.000  H
  H432     1.0000 0.80103  0.86917  0.69707  Biso   1.000  H
  C576     1.0000 0.90153  0.88924  0.68545  Biso   1.000  C
  Zn37     1.0000 0.33333  0.66667  0.52919  Biso   1.000  Zn
  O217     1.0000 0.33333  0.66667  0.50668  Biso   1.000  O
  Zn38     1.0000 0.00000  0.00000  0.86252  Biso   1.000  Zn
  O218     1.0000 0.00000  0.00000  0.84001  Biso   1.000  O
  Zn39     1.0000 0.66667  0.33333  0.19585  Biso   1.000  Zn
  O219     1.0000 0.66667  0.33333  0.17335  Biso   1.000  O
  Zn40     1.0000 0.66667  0.33333  0.97082  Biso   1.000  Zn
  O220     1.0000 0.66667  0.33333  0.99332  Biso   1.000  O
  Zn41     1.0000 0.33333  0.66667  0.30415  Biso   1.000  Zn
  O221     1.0000 0.33333  0.66667  0.32665  Biso   1.000  O
  Zn42     1.0000 0.00000  0.00000  0.63748  Biso   1.000  Zn
  O222     1.0000 0.00000  0.00000  0.65999  Biso   1.000  O
  Zn43     1.0000 0.66667  0.33333  0.47081  Biso   1.000  Zn
  O223     1.0000 0.66667  0.33333  0.49332  Biso   1.000  O
  Zn44     1.0000 0.33333  0.66667  0.80415  Biso   1.000  Zn
  O224     1.0000 0.33333  0.66667  0.82665  Biso   1.000  O
  Zn45     1.0000 0.00000  0.00000  0.13748  Biso   1.000  Zn
  O225     1.0000 0.00000  0.00000  0.15999  Biso   1.000  O
  Zn46     1.0000 0.33333  0.66667  0.02919  Biso   1.000  Zn
  O226     1.0000 0.33333  0.66667  0.00668  Biso   1.000  O
  Zn47     1.0000 0.00000  0.00000  0.36252  Biso   1.000  Zn
  O227     1.0000 0.00000  0.00000  0.34001  Biso   1.000  O
  Zn48     1.0000 0.66667  0.33333  0.69585  Biso   1.000  Zn
  O228     1.0000 0.66667  0.33333  0.67335  Biso   1.000  O
  C577     1.0000 0.35571  0.33333  0.58333  Biso   1.000  C
  C578     1.0000 0.66667  0.02237  0.58333  Biso   1.000  C
  C579     1.0000 0.97763  0.64429  0.58333  Biso   1.000  C
  C580     1.0000 0.33333  0.35571  0.91667  Biso   1.000  C
  C581     1.0000 0.00000  0.68904  0.25000  Biso   1.000  C
  C582     1.0000 0.02237  0.66667  0.91667  Biso   1.000  C
  C583     1.0000 0.68904  0.00000  0.25000  Biso   1.000  C
  C584     1.0000 0.64429  0.97763  0.91667  Biso   1.000  C
  C585     1.0000 0.31096  0.31096  0.25000  Biso   1.000  C
  C586     1.0000 0.64429  0.66667  0.41667  Biso   1.000  C
  C587     1.0000 0.31096  0.00000  0.75000  Biso   1.000  C
  C588     1.0000 0.33333  0.97763  0.41667  Biso   1.000  C
  C589     1.0000 0.00000  0.31096  0.75000  Biso   1.000  C
  C590     1.0000 0.02237  0.35571  0.41667  Biso   1.000  C
  C591     1.0000 0.68904  0.68904  0.75000  Biso   1.000  C
  C592     1.0000 0.66667  0.64429  0.08333  Biso   1.000  C
  C593     1.0000 0.97763  0.33333  0.08333  Biso   1.000  C
  C594     1.0000 0.35571  0.02237  0.08333  Biso   1.000  C
