data_GIWBOE_charged
_audit_creation_date              2014-07-02
_audit_creation_method            'Materials Studio'
_symmetry_space_group_name_H-M    'P1'
_symmetry_Int_Tables_number       1
_symmetry_cell_setting            triclinic
loop_
_symmetry_equiv_pos_as_xyz
  x,y,z
_cell_length_a                    12.5630
_cell_length_b                    27.1720
_cell_length_c                    33.7000
_cell_angle_alpha                 90.0000
_cell_angle_beta                  90.0000
_cell_angle_gamma                 90.0000
loop_
_atom_site_label
_atom_site_type_symbol
_atom_site_fract_x
_atom_site_fract_y
_atom_site_fract_z
_atom_site_U_iso_or_equiv
_atom_site_adp_type
_atom_site_occupancy
Ga1    Ga    0.98820   0.43365   0.38490   0.01267  Uiso   1.00
Ga2    Ga    0.51180   0.93365   0.61510   0.01267  Uiso   1.00
Ga3    Ga    0.48820   0.93365   0.11510   0.01267  Uiso   1.00
Ga4    Ga    0.01180   0.43365   0.88490   0.01267  Uiso   1.00
Ag1    Ag    0.73809   0.28031   0.63673   0.01267  Uiso   1.00
Ag2    Ag    0.76191   0.78031   0.36327   0.01267  Uiso   1.00
Ag3    Ag    0.23809   0.78031   0.86327   0.01267  Uiso   1.00
Ag4    Ag    0.26191   0.28031   0.13673   0.01267  Uiso   1.00
H1     H     0.14710   0.49260   0.44230   0.01267  Uiso   1.00
H2     H     0.15990   0.48320   0.51630   0.01267  Uiso   1.00
H3     H     0.02990   0.41900   0.53680   0.01267  Uiso   1.00
H4     H     0.76850   0.29950   0.45450   0.01267  Uiso   1.00
H5     H     0.74640   0.28360   0.38260   0.01267  Uiso   1.00
H6     H     0.84550   0.35000   0.34600   0.01267  Uiso   1.00
H7     H     0.94450   0.28630   0.50400   0.01267  Uiso   1.00
H8     H     0.87850   0.25410   0.56250   0.01267  Uiso   1.00
H9     H     0.72410   0.37650   0.58640   0.01267  Uiso   1.00
H10    H     0.79390   0.41450   0.53040   0.01267  Uiso   1.00
H11    H     0.19270   0.46860   0.82350   0.01267  Uiso   1.00
H12    H     0.19970   0.45080   0.75080   0.01267  Uiso   1.00
H13    H     0.04400   0.39870   0.73490   0.01267  Uiso   1.00
H14    H     0.73640   0.31660   0.82330   0.01267  Uiso   1.00
H15    H     0.68570   0.32300   0.89520   0.01267  Uiso   1.00
H16    H     0.81440   0.38140   0.92610   0.01267  Uiso   1.00
H17    H     0.73270   0.38500   0.76430   0.01267  Uiso   1.00
H18    H     0.67140   0.34730   0.70590   0.01267  Uiso   1.00
H19    H     0.93450   0.27070   0.69620   0.01267  Uiso   1.00
H20    H     0.00390   0.30520   0.75490   0.01267  Uiso   1.00
H21    H     0.27720   0.96710   0.64260   0.01267  Uiso   1.00
H22    H     0.22170   0.05180   0.66370   0.01267  Uiso   1.00
H23    H     0.38230   0.10610   0.65650   0.01267  Uiso   1.00
H24    H     0.77770   0.07740   0.60140   0.01267  Uiso   1.00
H25    H     0.87490   0.00400   0.57700   0.01267  Uiso   1.00
H26    H     0.75200   0.93210   0.58200   0.01267  Uiso   1.00
H27    H     0.69700   0.09950   0.67870   0.01267  Uiso   1.00
H28    H     0.74020   0.18200   0.68690   0.01267  Uiso   1.00
H29    H     0.54580   0.22060   0.60160   0.01267  Uiso   1.00
H30    H     0.49530   0.13900   0.59080   0.01267  Uiso   1.00
H31    H     0.35290   0.99260   0.55770   0.01267  Uiso   1.00
H32    H     0.34010   0.98320   0.48370   0.01267  Uiso   1.00
H33    H     0.47010   0.91900   0.46320   0.01267  Uiso   1.00
H34    H     0.73150   0.79950   0.54550   0.01267  Uiso   1.00
H35    H     0.75360   0.78360   0.61740   0.01267  Uiso   1.00
H36    H     0.65450   0.85000   0.65400   0.01267  Uiso   1.00
H37    H     0.55550   0.78630   0.49600   0.01267  Uiso   1.00
H38    H     0.62150   0.75410   0.43750   0.01267  Uiso   1.00
H39    H     0.77590   0.87650   0.41360   0.01267  Uiso   1.00
H40    H     0.70610   0.91450   0.46960   0.01267  Uiso   1.00
H41    H     0.30730   0.96860   0.17650   0.01267  Uiso   1.00
H42    H     0.30030   0.95080   0.24920   0.01267  Uiso   1.00
H43    H     0.45600   0.89870   0.26510   0.01267  Uiso   1.00
H44    H     0.76360   0.81660   0.17670   0.01267  Uiso   1.00
H45    H     0.81430   0.82300   0.10480   0.01267  Uiso   1.00
H46    H     0.68560   0.88140   0.07390   0.01267  Uiso   1.00
H47    H     0.76730   0.88500   0.23570   0.01267  Uiso   1.00
H48    H     0.82860   0.84730   0.29410   0.01267  Uiso   1.00
H49    H     0.56550   0.77070   0.30380   0.01267  Uiso   1.00
H50    H     0.49610   0.80520   0.24510   0.01267  Uiso   1.00
H51    H     0.22280   0.46710   0.35740   0.01267  Uiso   1.00
H52    H     0.27830   0.55180   0.33630   0.01267  Uiso   1.00
H53    H     0.11770   0.60610   0.34350   0.01267  Uiso   1.00
H54    H     0.72230   0.57740   0.39860   0.01267  Uiso   1.00
H55    H     0.62510   0.50400   0.42300   0.01267  Uiso   1.00
H56    H     0.74800   0.43210   0.41800   0.01267  Uiso   1.00
H57    H     0.80300   0.59950   0.32130   0.01267  Uiso   1.00
H58    H     0.75980   0.68200   0.31310   0.01267  Uiso   1.00
H59    H     0.95420   0.72060   0.39840   0.01267  Uiso   1.00
H60    H     0.00470   0.63900   0.40920   0.01267  Uiso   1.00
H61    H     0.64710   0.99260   0.05770   0.01267  Uiso   1.00
H62    H     0.65990   0.98320   0.98370   0.01267  Uiso   1.00
H63    H     0.52990   0.91900   0.96320   0.01267  Uiso   1.00
H64    H     0.26850   0.79950   0.04550   0.01267  Uiso   1.00
H65    H     0.24640   0.78360   0.11740   0.01267  Uiso   1.00
H66    H     0.34550   0.85000   0.15400   0.01267  Uiso   1.00
H67    H     0.44450   0.78630   0.99600   0.01267  Uiso   1.00
H68    H     0.37850   0.75410   0.93750   0.01267  Uiso   1.00
H69    H     0.22410   0.87650   0.91360   0.01267  Uiso   1.00
H70    H     0.29390   0.91450   0.96960   0.01267  Uiso   1.00
H71    H     0.69270   0.96860   0.67650   0.01267  Uiso   1.00
H72    H     0.69970   0.95080   0.74920   0.01267  Uiso   1.00
H73    H     0.54400   0.89870   0.76510   0.01267  Uiso   1.00
H74    H     0.23640   0.81660   0.67670   0.01267  Uiso   1.00
H75    H     0.18570   0.82300   0.60480   0.01267  Uiso   1.00
H76    H     0.31440   0.88140   0.57390   0.01267  Uiso   1.00
H77    H     0.23270   0.88500   0.73570   0.01267  Uiso   1.00
H78    H     0.17140   0.84730   0.79410   0.01267  Uiso   1.00
H79    H     0.43450   0.77070   0.80380   0.01267  Uiso   1.00
H80    H     0.50390   0.80520   0.74510   0.01267  Uiso   1.00
H81    H     0.77720   0.46710   0.85740   0.01267  Uiso   1.00
H82    H     0.72170   0.55180   0.83630   0.01267  Uiso   1.00
H83    H     0.88230   0.60610   0.84350   0.01267  Uiso   1.00
H84    H     0.27770   0.57740   0.89860   0.01267  Uiso   1.00
H85    H     0.37490   0.50400   0.92300   0.01267  Uiso   1.00
H86    H     0.25200   0.43210   0.91800   0.01267  Uiso   1.00
H87    H     0.19700   0.59950   0.82130   0.01267  Uiso   1.00
H88    H     0.24020   0.68200   0.81310   0.01267  Uiso   1.00
H89    H     0.04580   0.72060   0.89840   0.01267  Uiso   1.00
H90    H     0.99530   0.63900   0.90920   0.01267  Uiso   1.00
H91    H     0.85290   0.49260   0.94230   0.01267  Uiso   1.00
H92    H     0.84010   0.48320   0.01630   0.01267  Uiso   1.00
H93    H     0.97010   0.41900   0.03680   0.01267  Uiso   1.00
H94    H     0.23150   0.29950   0.95450   0.01267  Uiso   1.00
H95    H     0.25360   0.28360   0.88260   0.01267  Uiso   1.00
H96    H     0.15450   0.35000   0.84600   0.01267  Uiso   1.00
H97    H     0.05550   0.28630   0.00400   0.01267  Uiso   1.00
H98    H     0.12150   0.25410   0.06250   0.01267  Uiso   1.00
H99    H     0.27590   0.37650   0.08640   0.01267  Uiso   1.00
H100   H     0.20610   0.41450   0.03040   0.01267  Uiso   1.00
H101   H     0.80730   0.46860   0.32350   0.01267  Uiso   1.00
H102   H     0.80030   0.45080   0.25080   0.01267  Uiso   1.00
H103   H     0.95600   0.39870   0.23490   0.01267  Uiso   1.00
H104   H     0.26360   0.31660   0.32330   0.01267  Uiso   1.00
H105   H     0.31430   0.32300   0.39520   0.01267  Uiso   1.00
H106   H     0.18560   0.38140   0.42610   0.01267  Uiso   1.00
H107   H     0.26730   0.38500   0.26430   0.01267  Uiso   1.00
H108   H     0.32860   0.34730   0.20590   0.01267  Uiso   1.00
H109   H     0.06550   0.27070   0.19620   0.01267  Uiso   1.00
H110   H     0.99610   0.30520   0.25490   0.01267  Uiso   1.00
H111   H     0.72280   0.96710   0.14260   0.01267  Uiso   1.00
H112   H     0.77830   0.05180   0.16370   0.01267  Uiso   1.00
H113   H     0.61770   0.10610   0.15650   0.01267  Uiso   1.00
H114   H     0.22230   0.07740   0.10140   0.01267  Uiso   1.00
H115   H     0.12510   0.00400   0.07700   0.01267  Uiso   1.00
H116   H     0.24800   0.93210   0.08200   0.01267  Uiso   1.00
H117   H     0.30300   0.09950   0.17870   0.01267  Uiso   1.00
H118   H     0.25980   0.18200   0.18690   0.01267  Uiso   1.00
H119   H     0.45420   0.22060   0.10160   0.01267  Uiso   1.00
H120   H     0.50470   0.13900   0.09080   0.01267  Uiso   1.00
C1     C     0.10580   0.47050   0.45775   0.01267  Uiso   1.00
C2     C     0.11350   0.46536   0.49925   0.01267  Uiso   1.00
C3     C     0.04230   0.43030   0.51057   0.01267  Uiso   1.00
C4     C     0.99030   0.41386   0.47570   0.01267  Uiso   1.00
C5     C     0.91520   0.37588   0.47264   0.01267  Uiso   1.00
C6     C     0.87380   0.35583   0.43724   0.01267  Uiso   1.00
C7     C     0.80160   0.31700   0.43340   0.01267  Uiso   1.00
C8     C     0.78760   0.30900   0.39430   0.01267  Uiso   1.00
C9     C     0.84550   0.34560   0.37397   0.01267  Uiso   1.00
C10    C     0.87540   0.35477   0.50980   0.01267  Uiso   1.00
C11    C     0.90030   0.30587   0.52058   0.01267  Uiso   1.00
C12    C     0.86000   0.28680   0.55526   0.01267  Uiso   1.00
C13    C     0.77070   0.35830   0.56970   0.01267  Uiso   1.00
C14    C     0.81070   0.38100   0.53581   0.01267  Uiso   1.00
C15    C     0.14250   0.44910   0.80950   0.01267  Uiso   1.00
C16    C     0.14720   0.43940   0.76886   0.01267  Uiso   1.00
C17    C     0.06280   0.41080   0.76038   0.01267  Uiso   1.00
C18    C     0.00690   0.40206   0.79630   0.01267  Uiso   1.00
C19    C     0.91550   0.37480   0.80171   0.01267  Uiso   1.00
C20    C     0.85900   0.36697   0.83720   0.01267  Uiso   1.00
C21    C     0.77050   0.33610   0.84300   0.01267  Uiso   1.00
C22    C     0.74250   0.33950   0.88220   0.01267  Uiso   1.00
C23    C     0.81470   0.37220   0.89892   0.01267  Uiso   1.00
C24    C     0.87350   0.34950   0.76527   0.01267  Uiso   1.00
C25    C     0.77590   0.36170   0.75090   0.01267  Uiso   1.00
C26    C     0.74000   0.33900   0.71570   0.01267  Uiso   1.00
C27    C     0.89340   0.29430   0.71022   0.01267  Uiso   1.00
C28    C     0.93580   0.31470   0.74527   0.01267  Uiso   1.00
C29    C     0.32210   0.99530   0.64238   0.01267  Uiso   1.00
C30    C     0.29020   0.04230   0.65449   0.01267  Uiso   1.00
C31    C     0.37840   0.07200   0.65038   0.01267  Uiso   1.00
C32    C     0.46160   0.04271   0.63555   0.01267  Uiso   1.00
C33    C     0.56690   0.05825   0.62643   0.01267  Uiso   1.00
C34    C     0.64850   0.02896   0.61087   0.01267  Uiso   1.00
C35    C     0.75090   0.04480   0.59979   0.01267  Uiso   1.00
C36    C     0.80380   0.00480   0.58651   0.01267  Uiso   1.00
C37    C     0.73430   0.96480   0.58945   0.01267  Uiso   1.00
C38    C     0.59240   0.11020   0.63345   0.01267  Uiso   1.00
C39    C     0.66520   0.12366   0.66219   0.01267  Uiso   1.00
C40    C     0.69130   0.17320   0.66666   0.01267  Uiso   1.00
C41    C     0.57810   0.19550   0.61711   0.01267  Uiso   1.00
C42    C     0.54670   0.14673   0.61050   0.01267  Uiso   1.00
C43    C     0.39420   0.97050   0.54225   0.01267  Uiso   1.00
C44    C     0.38650   0.96536   0.50075   0.01267  Uiso   1.00
C45    C     0.45770   0.93030   0.48943   0.01267  Uiso   1.00
C46    C     0.50970   0.91386   0.52430   0.01267  Uiso   1.00
C47    C     0.58480   0.87588   0.52736   0.01267  Uiso   1.00
C48    C     0.62620   0.85583   0.56276   0.01267  Uiso   1.00
C49    C     0.69840   0.81700   0.56660   0.01267  Uiso   1.00
C50    C     0.71240   0.80900   0.60570   0.01267  Uiso   1.00
C51    C     0.65450   0.84560   0.62603   0.01267  Uiso   1.00
C52    C     0.62460   0.85477   0.49020   0.01267  Uiso   1.00
C53    C     0.59970   0.80587   0.47942   0.01267  Uiso   1.00
C54    C     0.64000   0.78680   0.44474   0.01267  Uiso   1.00
C55    C     0.72930   0.85830   0.43030   0.01267  Uiso   1.00
C56    C     0.68930   0.88100   0.46419   0.01267  Uiso   1.00
C57    C     0.35750   0.94910   0.19050   0.01267  Uiso   1.00
C58    C     0.35280   0.93940   0.23114   0.01267  Uiso   1.00
C59    C     0.43720   0.91080   0.23962   0.01267  Uiso   1.00
C60    C     0.49310   0.90206   0.20370   0.01267  Uiso   1.00
C61    C     0.58450   0.87480   0.19829   0.01267  Uiso   1.00
C62    C     0.64100   0.86697   0.16280   0.01267  Uiso   1.00
C63    C     0.72950   0.83610   0.15700   0.01267  Uiso   1.00
C64    C     0.75750   0.83950   0.11780   0.01267  Uiso   1.00
C65    C     0.68530   0.87220   0.10108   0.01267  Uiso   1.00
C66    C     0.62650   0.84950   0.23473   0.01267  Uiso   1.00
C67    C     0.72410   0.86170   0.24910   0.01267  Uiso   1.00
C68    C     0.76000   0.83900   0.28430   0.01267  Uiso   1.00
C69    C     0.60660   0.79430   0.28978   0.01267  Uiso   1.00
C70    C     0.56420   0.81470   0.25473   0.01267  Uiso   1.00
C71    C     0.17790   0.49530   0.35762   0.01267  Uiso   1.00
C72    C     0.20980   0.54230   0.34551   0.01267  Uiso   1.00
C73    C     0.12160   0.57200   0.34962   0.01267  Uiso   1.00
C74    C     0.03840   0.54271   0.36445   0.01267  Uiso   1.00
C75    C     0.93310   0.55825   0.37357   0.01267  Uiso   1.00
C76    C     0.85150   0.52896   0.38913   0.01267  Uiso   1.00
C77    C     0.74910   0.54480   0.40021   0.01267  Uiso   1.00
C78    C     0.69620   0.50480   0.41349   0.01267  Uiso   1.00
C79    C     0.76570   0.46480   0.41055   0.01267  Uiso   1.00
C80    C     0.90760   0.61020   0.36655   0.01267  Uiso   1.00
C81    C     0.83480   0.62366   0.33781   0.01267  Uiso   1.00
C82    C     0.80870   0.67320   0.33334   0.01267  Uiso   1.00
C83    C     0.92190   0.69550   0.38289   0.01267  Uiso   1.00
C84    C     0.95330   0.64673   0.38950   0.01267  Uiso   1.00
C85    C     0.60580   0.97050   0.04225   0.01267  Uiso   1.00
C86    C     0.61350   0.96536   0.00075   0.01267  Uiso   1.00
C87    C     0.54230   0.93030   0.98943   0.01267  Uiso   1.00
C88    C     0.49030   0.91386   0.02430   0.01267  Uiso   1.00
C89    C     0.41520   0.87588   0.02736   0.01267  Uiso   1.00
C90    C     0.37380   0.85583   0.06276   0.01267  Uiso   1.00
C91    C     0.30160   0.81700   0.06660   0.01267  Uiso   1.00
C92    C     0.28760   0.80900   0.10570   0.01267  Uiso   1.00
C93    C     0.34550   0.84560   0.12603   0.01267  Uiso   1.00
C94    C     0.37540   0.85477   0.99020   0.01267  Uiso   1.00
C95    C     0.40030   0.80587   0.97942   0.01267  Uiso   1.00
C96    C     0.36000   0.78680   0.94474   0.01267  Uiso   1.00
C97    C     0.27070   0.85830   0.93030   0.01267  Uiso   1.00
C98    C     0.31070   0.88100   0.96419   0.01267  Uiso   1.00
C99    C     0.64250   0.94910   0.69050   0.01267  Uiso   1.00
C100   C     0.64720   0.93940   0.73114   0.01267  Uiso   1.00
C101   C     0.56280   0.91080   0.73962   0.01267  Uiso   1.00
C102   C     0.50690   0.90206   0.70370   0.01267  Uiso   1.00
C103   C     0.41550   0.87480   0.69829   0.01267  Uiso   1.00
C104   C     0.35900   0.86697   0.66280   0.01267  Uiso   1.00
C105   C     0.27050   0.83610   0.65700   0.01267  Uiso   1.00
C106   C     0.24250   0.83950   0.61780   0.01267  Uiso   1.00
C107   C     0.31470   0.87220   0.60108   0.01267  Uiso   1.00
C108   C     0.37350   0.84950   0.73473   0.01267  Uiso   1.00
C109   C     0.27590   0.86170   0.74910   0.01267  Uiso   1.00
C110   C     0.24000   0.83900   0.78430   0.01267  Uiso   1.00
C111   C     0.39340   0.79430   0.78978   0.01267  Uiso   1.00
C112   C     0.43580   0.81470   0.75473   0.01267  Uiso   1.00
C113   C     0.82210   0.49530   0.85762   0.01267  Uiso   1.00
C114   C     0.79020   0.54230   0.84551   0.01267  Uiso   1.00
C115   C     0.87840   0.57200   0.84962   0.01267  Uiso   1.00
C116   C     0.96160   0.54271   0.86445   0.01267  Uiso   1.00
C117   C     0.06690   0.55825   0.87357   0.01267  Uiso   1.00
C118   C     0.14850   0.52896   0.88913   0.01267  Uiso   1.00
C119   C     0.25090   0.54480   0.90021   0.01267  Uiso   1.00
C120   C     0.30380   0.50480   0.91349   0.01267  Uiso   1.00
C121   C     0.23430   0.46480   0.91055   0.01267  Uiso   1.00
C122   C     0.09240   0.61020   0.86655   0.01267  Uiso   1.00
C123   C     0.16520   0.62366   0.83781   0.01267  Uiso   1.00
C124   C     0.19130   0.67320   0.83334   0.01267  Uiso   1.00
C125   C     0.07810   0.69550   0.88289   0.01267  Uiso   1.00
C126   C     0.04670   0.64673   0.88950   0.01267  Uiso   1.00
C127   C     0.89420   0.47050   0.95775   0.01267  Uiso   1.00
C128   C     0.88650   0.46536   0.99925   0.01267  Uiso   1.00
C129   C     0.95770   0.43030   0.01057   0.01267  Uiso   1.00
C130   C     0.00970   0.41386   0.97570   0.01267  Uiso   1.00
C131   C     0.08480   0.37588   0.97264   0.01267  Uiso   1.00
C132   C     0.12620   0.35583   0.93724   0.01267  Uiso   1.00
C133   C     0.19840   0.31700   0.93340   0.01267  Uiso   1.00
C134   C     0.21240   0.30900   0.89430   0.01267  Uiso   1.00
C135   C     0.15450   0.34560   0.87397   0.01267  Uiso   1.00
C136   C     0.12460   0.35477   0.00980   0.01267  Uiso   1.00
C137   C     0.09970   0.30587   0.02058   0.01267  Uiso   1.00
C138   C     0.14000   0.28680   0.05526   0.01267  Uiso   1.00
C139   C     0.22930   0.35830   0.06970   0.01267  Uiso   1.00
C140   C     0.18930   0.38100   0.03581   0.01267  Uiso   1.00
C141   C     0.85750   0.44910   0.30950   0.01267  Uiso   1.00
C142   C     0.85280   0.43940   0.26886   0.01267  Uiso   1.00
C143   C     0.93720   0.41080   0.26038   0.01267  Uiso   1.00
C144   C     0.99310   0.40206   0.29630   0.01267  Uiso   1.00
C145   C     0.08450   0.37480   0.30171   0.01267  Uiso   1.00
C146   C     0.14100   0.36697   0.33720   0.01267  Uiso   1.00
C147   C     0.22950   0.33610   0.34300   0.01267  Uiso   1.00
C148   C     0.25750   0.33950   0.38220   0.01267  Uiso   1.00
C149   C     0.18530   0.37220   0.39892   0.01267  Uiso   1.00
C150   C     0.12650   0.34950   0.26527   0.01267  Uiso   1.00
C151   C     0.22410   0.36170   0.25090   0.01267  Uiso   1.00
C152   C     0.26000   0.33900   0.21570   0.01267  Uiso   1.00
C153   C     0.10660   0.29430   0.21022   0.01267  Uiso   1.00
C154   C     0.06420   0.31470   0.24527   0.01267  Uiso   1.00
C155   C     0.67790   0.99530   0.14238   0.01267  Uiso   1.00
C156   C     0.70980   0.04230   0.15449   0.01267  Uiso   1.00
C157   C     0.62160   0.07200   0.15038   0.01267  Uiso   1.00
C158   C     0.53840   0.04271   0.13555   0.01267  Uiso   1.00
C159   C     0.43310   0.05825   0.12643   0.01267  Uiso   1.00
C160   C     0.35150   0.02896   0.11087   0.01267  Uiso   1.00
C161   C     0.24910   0.04480   0.09979   0.01267  Uiso   1.00
C162   C     0.19620   0.00480   0.08651   0.01267  Uiso   1.00
C163   C     0.26570   0.96480   0.08945   0.01267  Uiso   1.00
C164   C     0.40760   0.11020   0.13345   0.01267  Uiso   1.00
C165   C     0.33480   0.12366   0.16219   0.01267  Uiso   1.00
C166   C     0.30870   0.17320   0.16666   0.01267  Uiso   1.00
C167   C     0.42190   0.19550   0.11711   0.01267  Uiso   1.00
C168   C     0.45330   0.14673   0.11050   0.01267  Uiso   1.00
N1     N     0.03200   0.43972   0.44318   0.01267  Uiso   1.00
N2     N     0.89960   0.37264   0.39931   0.01267  Uiso   1.00
N3     N     0.79460   0.31288   0.57959   0.01267  Uiso   1.00
N4     N     0.05820   0.42726   0.82622   0.01267  Uiso   1.00
N5     N     0.88380   0.38884   0.87276   0.01267  Uiso   1.00
N6     N     0.79770   0.30670   0.69578   0.01267  Uiso   1.00
N7     N     0.42330   0.99489   0.63045   0.01267  Uiso   1.00
N8     N     0.64110   0.97817   0.60393   0.01267  Uiso   1.00
N9     N     0.65090   0.20888   0.64393   0.01267  Uiso   1.00
N10    N     0.46800   0.93972   0.55682   0.01267  Uiso   1.00
N11    N     0.60040   0.87264   0.60069   0.01267  Uiso   1.00
N12    N     0.70540   0.81288   0.42041   0.01267  Uiso   1.00
N13    N     0.44180   0.92726   0.17378   0.01267  Uiso   1.00
N14    N     0.61620   0.88884   0.12724   0.01267  Uiso   1.00
N15    N     0.70230   0.80670   0.30422   0.01267  Uiso   1.00
N16    N     0.07670   0.49489   0.36955   0.01267  Uiso   1.00
N17    N     0.85890   0.47817   0.39607   0.01267  Uiso   1.00
N18    N     0.84910   0.70888   0.35607   0.01267  Uiso   1.00
N19    N     0.53200   0.93972   0.05682   0.01267  Uiso   1.00
N20    N     0.39960   0.87264   0.10069   0.01267  Uiso   1.00
N21    N     0.29460   0.81288   0.92041   0.01267  Uiso   1.00
N22    N     0.55820   0.92726   0.67378   0.01267  Uiso   1.00
N23    N     0.38380   0.88884   0.62724   0.01267  Uiso   1.00
N24    N     0.29770   0.80670   0.80422   0.01267  Uiso   1.00
N25    N     0.92330   0.49489   0.86955   0.01267  Uiso   1.00
N26    N     0.14110   0.47817   0.89607   0.01267  Uiso   1.00
N27    N     0.15090   0.70888   0.85607   0.01267  Uiso   1.00
N28    N     0.96800   0.43972   0.94318   0.01267  Uiso   1.00
N29    N     0.10040   0.37264   0.89931   0.01267  Uiso   1.00
N30    N     0.20540   0.31288   0.07959   0.01267  Uiso   1.00
N31    N     0.94180   0.42726   0.32622   0.01267  Uiso   1.00
N32    N     0.11620   0.38884   0.37276   0.01267  Uiso   1.00
N33    N     0.20230   0.30670   0.19578   0.01267  Uiso   1.00
N34    N     0.57670   0.99489   0.13045   0.01267  Uiso   1.00
N35    N     0.35890   0.97817   0.10393   0.01267  Uiso   1.00
N36    N     0.34910   0.20888   0.14393   0.01267  Uiso   1.00
Ga5    Ga    0.51180   0.06635   0.88490   0.01267  Uiso   1.00
Ga6    Ga    0.98820   0.56635   0.11510   0.01267  Uiso   1.00
Ga7    Ga    0.01180   0.56635   0.61510   0.01267  Uiso   1.00
Ga8    Ga    0.48820   0.06635   0.38490   0.01267  Uiso   1.00
Ag5    Ag    0.76191   0.21969   0.13673   0.01267  Uiso   1.00
Ag6    Ag    0.73809   0.71969   0.86327   0.01267  Uiso   1.00
Ag7    Ag    0.26191   0.71969   0.36327   0.01267  Uiso   1.00
Ag8    Ag    0.23809   0.21969   0.63673   0.01267  Uiso   1.00
H121   H     0.35290   0.00740   0.94230   0.01267  Uiso   1.00
H122   H     0.34010   0.01680   0.01630   0.01267  Uiso   1.00
H123   H     0.47010   0.08100   0.03680   0.01267  Uiso   1.00
H124   H     0.73150   0.20050   0.95450   0.01267  Uiso   1.00
H125   H     0.75360   0.21640   0.88260   0.01267  Uiso   1.00
H126   H     0.65450   0.15000   0.84600   0.01267  Uiso   1.00
H127   H     0.55550   0.21370   0.00400   0.01267  Uiso   1.00
H128   H     0.62150   0.24590   0.06250   0.01267  Uiso   1.00
H129   H     0.77590   0.12350   0.08640   0.01267  Uiso   1.00
H130   H     0.70610   0.08550   0.03040   0.01267  Uiso   1.00
H131   H     0.30730   0.03140   0.32350   0.01267  Uiso   1.00
H132   H     0.30030   0.04920   0.25080   0.01267  Uiso   1.00
H133   H     0.45600   0.10130   0.23490   0.01267  Uiso   1.00
H134   H     0.76360   0.18340   0.32330   0.01267  Uiso   1.00
H135   H     0.81430   0.17700   0.39520   0.01267  Uiso   1.00
H136   H     0.68560   0.11860   0.42610   0.01267  Uiso   1.00
H137   H     0.76730   0.11500   0.26430   0.01267  Uiso   1.00
H138   H     0.82860   0.15270   0.20590   0.01267  Uiso   1.00
H139   H     0.56550   0.22930   0.19620   0.01267  Uiso   1.00
H140   H     0.49610   0.19480   0.25490   0.01267  Uiso   1.00
H141   H     0.22280   0.53290   0.14260   0.01267  Uiso   1.00
H142   H     0.27830   0.44820   0.16370   0.01267  Uiso   1.00
H143   H     0.11770   0.39390   0.15650   0.01267  Uiso   1.00
H144   H     0.72230   0.42260   0.10140   0.01267  Uiso   1.00
H145   H     0.62510   0.49600   0.07700   0.01267  Uiso   1.00
H146   H     0.74800   0.56790   0.08200   0.01267  Uiso   1.00
H147   H     0.80300   0.40050   0.17870   0.01267  Uiso   1.00
H148   H     0.75980   0.31800   0.18690   0.01267  Uiso   1.00
H149   H     0.95420   0.27940   0.10160   0.01267  Uiso   1.00
H150   H     0.00470   0.36100   0.09080   0.01267  Uiso   1.00
H151   H     0.14710   0.50740   0.05770   0.01267  Uiso   1.00
H152   H     0.15990   0.51680   0.98370   0.01267  Uiso   1.00
H153   H     0.02990   0.58100   0.96320   0.01267  Uiso   1.00
H154   H     0.76850   0.70050   0.04550   0.01267  Uiso   1.00
H155   H     0.74640   0.71640   0.11740   0.01267  Uiso   1.00
H156   H     0.84550   0.65000   0.15400   0.01267  Uiso   1.00
H157   H     0.94450   0.71370   0.99600   0.01267  Uiso   1.00
H158   H     0.87850   0.74590   0.93750   0.01267  Uiso   1.00
H159   H     0.72410   0.62350   0.91360   0.01267  Uiso   1.00
H160   H     0.79390   0.58550   0.96960   0.01267  Uiso   1.00
H161   H     0.19270   0.53140   0.67650   0.01267  Uiso   1.00
H162   H     0.19970   0.54920   0.74920   0.01267  Uiso   1.00
H163   H     0.04400   0.60130   0.76510   0.01267  Uiso   1.00
H164   H     0.73640   0.68340   0.67670   0.01267  Uiso   1.00
H165   H     0.68570   0.67700   0.60480   0.01267  Uiso   1.00
H166   H     0.81440   0.61860   0.57390   0.01267  Uiso   1.00
H167   H     0.73270   0.61500   0.73570   0.01267  Uiso   1.00
H168   H     0.67140   0.65270   0.79410   0.01267  Uiso   1.00
H169   H     0.93450   0.72930   0.80380   0.01267  Uiso   1.00
H170   H     0.00390   0.69480   0.74510   0.01267  Uiso   1.00
H171   H     0.27720   0.03290   0.85740   0.01267  Uiso   1.00
H172   H     0.22170   0.94820   0.83630   0.01267  Uiso   1.00
H173   H     0.38230   0.89390   0.84350   0.01267  Uiso   1.00
H174   H     0.77770   0.92260   0.89860   0.01267  Uiso   1.00
H175   H     0.87490   0.99600   0.92300   0.01267  Uiso   1.00
H176   H     0.75200   0.06790   0.91800   0.01267  Uiso   1.00
H177   H     0.69700   0.90050   0.82130   0.01267  Uiso   1.00
H178   H     0.74020   0.81800   0.81310   0.01267  Uiso   1.00
H179   H     0.54580   0.77940   0.89840   0.01267  Uiso   1.00
H180   H     0.49530   0.86100   0.90920   0.01267  Uiso   1.00
H181   H     0.85290   0.50740   0.55770   0.01267  Uiso   1.00
H182   H     0.84010   0.51680   0.48370   0.01267  Uiso   1.00
H183   H     0.97010   0.58100   0.46320   0.01267  Uiso   1.00
H184   H     0.23150   0.70050   0.54550   0.01267  Uiso   1.00
H185   H     0.25360   0.71640   0.61740   0.01267  Uiso   1.00
H186   H     0.15450   0.65000   0.65400   0.01267  Uiso   1.00
H187   H     0.05550   0.71370   0.49600   0.01267  Uiso   1.00
H188   H     0.12150   0.74590   0.43750   0.01267  Uiso   1.00
H189   H     0.27590   0.62350   0.41360   0.01267  Uiso   1.00
H190   H     0.20610   0.58550   0.46960   0.01267  Uiso   1.00
H191   H     0.80730   0.53140   0.17650   0.01267  Uiso   1.00
H192   H     0.80030   0.54920   0.24920   0.01267  Uiso   1.00
H193   H     0.95600   0.60130   0.26510   0.01267  Uiso   1.00
H194   H     0.26360   0.68340   0.17670   0.01267  Uiso   1.00
H195   H     0.31430   0.67700   0.10480   0.01267  Uiso   1.00
H196   H     0.18560   0.61860   0.07390   0.01267  Uiso   1.00
H197   H     0.26730   0.61500   0.23570   0.01267  Uiso   1.00
H198   H     0.32860   0.65270   0.29410   0.01267  Uiso   1.00
H199   H     0.06550   0.72930   0.30380   0.01267  Uiso   1.00
H200   H     0.99610   0.69480   0.24510   0.01267  Uiso   1.00
H201   H     0.72280   0.03290   0.35740   0.01267  Uiso   1.00
H202   H     0.77830   0.94820   0.33630   0.01267  Uiso   1.00
H203   H     0.61770   0.89390   0.34350   0.01267  Uiso   1.00
H204   H     0.22230   0.92260   0.39860   0.01267  Uiso   1.00
H205   H     0.12510   0.99600   0.42300   0.01267  Uiso   1.00
H206   H     0.24800   0.06790   0.41800   0.01267  Uiso   1.00
H207   H     0.30300   0.90050   0.32130   0.01267  Uiso   1.00
H208   H     0.25980   0.81800   0.31310   0.01267  Uiso   1.00
H209   H     0.45420   0.77940   0.39840   0.01267  Uiso   1.00
H210   H     0.50470   0.86100   0.40920   0.01267  Uiso   1.00
H211   H     0.64710   0.00740   0.44230   0.01267  Uiso   1.00
H212   H     0.65990   0.01680   0.51630   0.01267  Uiso   1.00
H213   H     0.52990   0.08100   0.53680   0.01267  Uiso   1.00
H214   H     0.26850   0.20050   0.45450   0.01267  Uiso   1.00
H215   H     0.24640   0.21640   0.38260   0.01267  Uiso   1.00
H216   H     0.34550   0.15000   0.34600   0.01267  Uiso   1.00
H217   H     0.44450   0.21370   0.50400   0.01267  Uiso   1.00
H218   H     0.37850   0.24590   0.56250   0.01267  Uiso   1.00
H219   H     0.22410   0.12350   0.58640   0.01267  Uiso   1.00
H220   H     0.29390   0.08550   0.53040   0.01267  Uiso   1.00
H221   H     0.69270   0.03140   0.82350   0.01267  Uiso   1.00
H222   H     0.69970   0.04920   0.75080   0.01267  Uiso   1.00
H223   H     0.54400   0.10130   0.73490   0.01267  Uiso   1.00
H224   H     0.23640   0.18340   0.82330   0.01267  Uiso   1.00
H225   H     0.18570   0.17700   0.89520   0.01267  Uiso   1.00
H226   H     0.31440   0.11860   0.92610   0.01267  Uiso   1.00
H227   H     0.23270   0.11500   0.76430   0.01267  Uiso   1.00
H228   H     0.17140   0.15270   0.70590   0.01267  Uiso   1.00
H229   H     0.43450   0.22930   0.69620   0.01267  Uiso   1.00
H230   H     0.50390   0.19480   0.75490   0.01267  Uiso   1.00
H231   H     0.77720   0.53290   0.64260   0.01267  Uiso   1.00
H232   H     0.72170   0.44820   0.66370   0.01267  Uiso   1.00
H233   H     0.88230   0.39390   0.65650   0.01267  Uiso   1.00
H234   H     0.27770   0.42260   0.60140   0.01267  Uiso   1.00
H235   H     0.37490   0.49600   0.57700   0.01267  Uiso   1.00
H236   H     0.25200   0.56790   0.58200   0.01267  Uiso   1.00
H237   H     0.19700   0.40050   0.67870   0.01267  Uiso   1.00
H238   H     0.24020   0.31800   0.68690   0.01267  Uiso   1.00
H239   H     0.04580   0.27940   0.60160   0.01267  Uiso   1.00
H240   H     0.99530   0.36100   0.59080   0.01267  Uiso   1.00
C169   C     0.39420   0.02950   0.95775   0.01267  Uiso   1.00
C170   C     0.38650   0.03464   0.99925   0.01267  Uiso   1.00
C171   C     0.45770   0.06970   0.01057   0.01267  Uiso   1.00
C172   C     0.50970   0.08614   0.97570   0.01267  Uiso   1.00
C173   C     0.58480   0.12412   0.97264   0.01267  Uiso   1.00
C174   C     0.62620   0.14417   0.93724   0.01267  Uiso   1.00
C175   C     0.69840   0.18300   0.93340   0.01267  Uiso   1.00
C176   C     0.71240   0.19100   0.89430   0.01267  Uiso   1.00
C177   C     0.65450   0.15440   0.87397   0.01267  Uiso   1.00
C178   C     0.62460   0.14523   0.00980   0.01267  Uiso   1.00
C179   C     0.59970   0.19413   0.02058   0.01267  Uiso   1.00
C180   C     0.64000   0.21320   0.05526   0.01267  Uiso   1.00
C181   C     0.72930   0.14170   0.06970   0.01267  Uiso   1.00
C182   C     0.68930   0.11900   0.03581   0.01267  Uiso   1.00
C183   C     0.35750   0.05090   0.30950   0.01267  Uiso   1.00
C184   C     0.35280   0.06060   0.26886   0.01267  Uiso   1.00
C185   C     0.43720   0.08920   0.26038   0.01267  Uiso   1.00
C186   C     0.49310   0.09794   0.29630   0.01267  Uiso   1.00
C187   C     0.58450   0.12520   0.30171   0.01267  Uiso   1.00
C188   C     0.64100   0.13303   0.33720   0.01267  Uiso   1.00
C189   C     0.72950   0.16390   0.34300   0.01267  Uiso   1.00
C190   C     0.75750   0.16050   0.38220   0.01267  Uiso   1.00
C191   C     0.68530   0.12780   0.39892   0.01267  Uiso   1.00
C192   C     0.62650   0.15050   0.26527   0.01267  Uiso   1.00
C193   C     0.72410   0.13830   0.25090   0.01267  Uiso   1.00
C194   C     0.76000   0.16100   0.21570   0.01267  Uiso   1.00
C195   C     0.60660   0.20570   0.21022   0.01267  Uiso   1.00
C196   C     0.56420   0.18530   0.24527   0.01267  Uiso   1.00
C197   C     0.17790   0.50470   0.14238   0.01267  Uiso   1.00
C198   C     0.20980   0.45770   0.15449   0.01267  Uiso   1.00
C199   C     0.12160   0.42800   0.15038   0.01267  Uiso   1.00
C200   C     0.03840   0.45729   0.13555   0.01267  Uiso   1.00
C201   C     0.93310   0.44175   0.12643   0.01267  Uiso   1.00
C202   C     0.85150   0.47104   0.11087   0.01267  Uiso   1.00
C203   C     0.74910   0.45520   0.09979   0.01267  Uiso   1.00
C204   C     0.69620   0.49520   0.08651   0.01267  Uiso   1.00
C205   C     0.76570   0.53520   0.08945   0.01267  Uiso   1.00
C206   C     0.90760   0.38980   0.13345   0.01267  Uiso   1.00
C207   C     0.83480   0.37634   0.16219   0.01267  Uiso   1.00
C208   C     0.80870   0.32680   0.16666   0.01267  Uiso   1.00
C209   C     0.92190   0.30450   0.11711   0.01267  Uiso   1.00
C210   C     0.95330   0.35327   0.11050   0.01267  Uiso   1.00
C211   C     0.10580   0.52950   0.04225   0.01267  Uiso   1.00
C212   C     0.11350   0.53464   0.00075   0.01267  Uiso   1.00
C213   C     0.04230   0.56970   0.98943   0.01267  Uiso   1.00
C214   C     0.99030   0.58614   0.02430   0.01267  Uiso   1.00
C215   C     0.91520   0.62412   0.02736   0.01267  Uiso   1.00
C216   C     0.87380   0.64417   0.06276   0.01267  Uiso   1.00
C217   C     0.80160   0.68300   0.06660   0.01267  Uiso   1.00
C218   C     0.78760   0.69100   0.10570   0.01267  Uiso   1.00
C219   C     0.84550   0.65440   0.12603   0.01267  Uiso   1.00
C220   C     0.87540   0.64523   0.99020   0.01267  Uiso   1.00
C221   C     0.90030   0.69413   0.97942   0.01267  Uiso   1.00
C222   C     0.86000   0.71320   0.94474   0.01267  Uiso   1.00
C223   C     0.77070   0.64170   0.93030   0.01267  Uiso   1.00
C224   C     0.81070   0.61900   0.96419   0.01267  Uiso   1.00
C225   C     0.14250   0.55090   0.69050   0.01267  Uiso   1.00
C226   C     0.14720   0.56060   0.73114   0.01267  Uiso   1.00
C227   C     0.06280   0.58920   0.73962   0.01267  Uiso   1.00
C228   C     0.00690   0.59794   0.70370   0.01267  Uiso   1.00
C229   C     0.91550   0.62520   0.69829   0.01267  Uiso   1.00
C230   C     0.85900   0.63303   0.66280   0.01267  Uiso   1.00
C231   C     0.77050   0.66390   0.65700   0.01267  Uiso   1.00
C232   C     0.74250   0.66050   0.61780   0.01267  Uiso   1.00
C233   C     0.81470   0.62780   0.60108   0.01267  Uiso   1.00
C234   C     0.87350   0.65050   0.73473   0.01267  Uiso   1.00
C235   C     0.77590   0.63830   0.74910   0.01267  Uiso   1.00
C236   C     0.74000   0.66100   0.78430   0.01267  Uiso   1.00
C237   C     0.89340   0.70570   0.78978   0.01267  Uiso   1.00
C238   C     0.93580   0.68530   0.75473   0.01267  Uiso   1.00
C239   C     0.32210   0.00470   0.85762   0.01267  Uiso   1.00
C240   C     0.29020   0.95770   0.84551   0.01267  Uiso   1.00
C241   C     0.37840   0.92800   0.84962   0.01267  Uiso   1.00
C242   C     0.46160   0.95729   0.86445   0.01267  Uiso   1.00
C243   C     0.56690   0.94175   0.87357   0.01267  Uiso   1.00
C244   C     0.64850   0.97104   0.88913   0.01267  Uiso   1.00
C245   C     0.75090   0.95520   0.90021   0.01267  Uiso   1.00
C246   C     0.80380   0.99520   0.91349   0.01267  Uiso   1.00
C247   C     0.73430   0.03520   0.91055   0.01267  Uiso   1.00
C248   C     0.59240   0.88980   0.86655   0.01267  Uiso   1.00
C249   C     0.66520   0.87634   0.83781   0.01267  Uiso   1.00
C250   C     0.69130   0.82680   0.83334   0.01267  Uiso   1.00
C251   C     0.57810   0.80450   0.88289   0.01267  Uiso   1.00
C252   C     0.54670   0.85327   0.88950   0.01267  Uiso   1.00
C253   C     0.89420   0.52950   0.54225   0.01267  Uiso   1.00
C254   C     0.88650   0.53464   0.50075   0.01267  Uiso   1.00
C255   C     0.95770   0.56970   0.48943   0.01267  Uiso   1.00
C256   C     0.00970   0.58614   0.52430   0.01267  Uiso   1.00
C257   C     0.08480   0.62412   0.52736   0.01267  Uiso   1.00
C258   C     0.12620   0.64417   0.56276   0.01267  Uiso   1.00
C259   C     0.19840   0.68300   0.56660   0.01267  Uiso   1.00
C260   C     0.21240   0.69100   0.60570   0.01267  Uiso   1.00
C261   C     0.15450   0.65440   0.62603   0.01267  Uiso   1.00
C262   C     0.12460   0.64523   0.49020   0.01267  Uiso   1.00
C263   C     0.09970   0.69413   0.47942   0.01267  Uiso   1.00
C264   C     0.14000   0.71320   0.44474   0.01267  Uiso   1.00
C265   C     0.22930   0.64170   0.43030   0.01267  Uiso   1.00
C266   C     0.18930   0.61900   0.46419   0.01267  Uiso   1.00
C267   C     0.85750   0.55090   0.19050   0.01267  Uiso   1.00
C268   C     0.85280   0.56060   0.23114   0.01267  Uiso   1.00
C269   C     0.93720   0.58920   0.23962   0.01267  Uiso   1.00
C270   C     0.99310   0.59794   0.20370   0.01267  Uiso   1.00
C271   C     0.08450   0.62520   0.19829   0.01267  Uiso   1.00
C272   C     0.14100   0.63303   0.16280   0.01267  Uiso   1.00
C273   C     0.22950   0.66390   0.15700   0.01267  Uiso   1.00
C274   C     0.25750   0.66050   0.11780   0.01267  Uiso   1.00
C275   C     0.18530   0.62780   0.10108   0.01267  Uiso   1.00
C276   C     0.12650   0.65050   0.23473   0.01267  Uiso   1.00
C277   C     0.22410   0.63830   0.24910   0.01267  Uiso   1.00
C278   C     0.26000   0.66100   0.28430   0.01267  Uiso   1.00
C279   C     0.10660   0.70570   0.28978   0.01267  Uiso   1.00
C280   C     0.06420   0.68530   0.25473   0.01267  Uiso   1.00
C281   C     0.67790   0.00470   0.35762   0.01267  Uiso   1.00
C282   C     0.70980   0.95770   0.34551   0.01267  Uiso   1.00
C283   C     0.62160   0.92800   0.34962   0.01267  Uiso   1.00
C284   C     0.53840   0.95729   0.36445   0.01267  Uiso   1.00
C285   C     0.43310   0.94175   0.37357   0.01267  Uiso   1.00
C286   C     0.35150   0.97104   0.38913   0.01267  Uiso   1.00
C287   C     0.24910   0.95520   0.40021   0.01267  Uiso   1.00
C288   C     0.19620   0.99520   0.41349   0.01267  Uiso   1.00
C289   C     0.26570   0.03520   0.41055   0.01267  Uiso   1.00
C290   C     0.40760   0.88980   0.36655   0.01267  Uiso   1.00
C291   C     0.33480   0.87634   0.33781   0.01267  Uiso   1.00
C292   C     0.30870   0.82680   0.33334   0.01267  Uiso   1.00
C293   C     0.42190   0.80450   0.38289   0.01267  Uiso   1.00
C294   C     0.45330   0.85327   0.38950   0.01267  Uiso   1.00
C295   C     0.60580   0.02950   0.45775   0.01267  Uiso   1.00
C296   C     0.61350   0.03464   0.49925   0.01267  Uiso   1.00
C297   C     0.54230   0.06970   0.51057   0.01267  Uiso   1.00
C298   C     0.49030   0.08614   0.47570   0.01267  Uiso   1.00
C299   C     0.41520   0.12412   0.47264   0.01267  Uiso   1.00
C300   C     0.37380   0.14417   0.43724   0.01267  Uiso   1.00
C301   C     0.30160   0.18300   0.43340   0.01267  Uiso   1.00
C302   C     0.28760   0.19100   0.39430   0.01267  Uiso   1.00
C303   C     0.34550   0.15440   0.37397   0.01267  Uiso   1.00
C304   C     0.37540   0.14523   0.50980   0.01267  Uiso   1.00
C305   C     0.40030   0.19413   0.52058   0.01267  Uiso   1.00
C306   C     0.36000   0.21320   0.55526   0.01267  Uiso   1.00
C307   C     0.27070   0.14170   0.56970   0.01267  Uiso   1.00
C308   C     0.31070   0.11900   0.53581   0.01267  Uiso   1.00
C309   C     0.64250   0.05090   0.80950   0.01267  Uiso   1.00
C310   C     0.64720   0.06060   0.76886   0.01267  Uiso   1.00
C311   C     0.56280   0.08920   0.76038   0.01267  Uiso   1.00
C312   C     0.50690   0.09794   0.79630   0.01267  Uiso   1.00
C313   C     0.41550   0.12520   0.80171   0.01267  Uiso   1.00
C314   C     0.35900   0.13303   0.83720   0.01267  Uiso   1.00
C315   C     0.27050   0.16390   0.84300   0.01267  Uiso   1.00
C316   C     0.24250   0.16050   0.88220   0.01267  Uiso   1.00
C317   C     0.31470   0.12780   0.89892   0.01267  Uiso   1.00
C318   C     0.37350   0.15050   0.76527   0.01267  Uiso   1.00
C319   C     0.27590   0.13830   0.75090   0.01267  Uiso   1.00
C320   C     0.24000   0.16100   0.71570   0.01267  Uiso   1.00
C321   C     0.39340   0.20570   0.71022   0.01267  Uiso   1.00
C322   C     0.43580   0.18530   0.74527   0.01267  Uiso   1.00
C323   C     0.82210   0.50470   0.64238   0.01267  Uiso   1.00
C324   C     0.79020   0.45770   0.65449   0.01267  Uiso   1.00
C325   C     0.87840   0.42800   0.65038   0.01267  Uiso   1.00
C326   C     0.96160   0.45729   0.63555   0.01267  Uiso   1.00
C327   C     0.06690   0.44175   0.62643   0.01267  Uiso   1.00
C328   C     0.14850   0.47104   0.61087   0.01267  Uiso   1.00
C329   C     0.25090   0.45520   0.59979   0.01267  Uiso   1.00
C330   C     0.30380   0.49520   0.58651   0.01267  Uiso   1.00
C331   C     0.23430   0.53520   0.58945   0.01267  Uiso   1.00
C332   C     0.09240   0.38980   0.63345   0.01267  Uiso   1.00
C333   C     0.16520   0.37634   0.66219   0.01267  Uiso   1.00
C334   C     0.19130   0.32680   0.66666   0.01267  Uiso   1.00
C335   C     0.07810   0.30450   0.61711   0.01267  Uiso   1.00
C336   C     0.04670   0.35327   0.61050   0.01267  Uiso   1.00
N37    N     0.46800   0.06028   0.94318   0.01267  Uiso   1.00
N38    N     0.60040   0.12736   0.89931   0.01267  Uiso   1.00
N39    N     0.70540   0.18712   0.07959   0.01267  Uiso   1.00
N40    N     0.44180   0.07274   0.32622   0.01267  Uiso   1.00
N41    N     0.61620   0.11116   0.37276   0.01267  Uiso   1.00
N42    N     0.70230   0.19330   0.19578   0.01267  Uiso   1.00
N43    N     0.07670   0.50511   0.13045   0.01267  Uiso   1.00
N44    N     0.85890   0.52183   0.10393   0.01267  Uiso   1.00
N45    N     0.84910   0.29112   0.14393   0.01267  Uiso   1.00
N46    N     0.03200   0.56028   0.05682   0.01267  Uiso   1.00
N47    N     0.89960   0.62736   0.10069   0.01267  Uiso   1.00
N48    N     0.79460   0.68712   0.92041   0.01267  Uiso   1.00
N49    N     0.05820   0.57274   0.67378   0.01267  Uiso   1.00
N50    N     0.88380   0.61116   0.62724   0.01267  Uiso   1.00
N51    N     0.79770   0.69330   0.80422   0.01267  Uiso   1.00
N52    N     0.42330   0.00511   0.86955   0.01267  Uiso   1.00
N53    N     0.64110   0.02183   0.89607   0.01267  Uiso   1.00
N54    N     0.65090   0.79112   0.85607   0.01267  Uiso   1.00
N55    N     0.96800   0.56028   0.55682   0.01267  Uiso   1.00
N56    N     0.10040   0.62736   0.60069   0.01267  Uiso   1.00
N57    N     0.20540   0.68712   0.42041   0.01267  Uiso   1.00
N58    N     0.94180   0.57274   0.17378   0.01267  Uiso   1.00
N59    N     0.11620   0.61116   0.12724   0.01267  Uiso   1.00
N60    N     0.20230   0.69330   0.30422   0.01267  Uiso   1.00
N61    N     0.57670   0.00511   0.36955   0.01267  Uiso   1.00
N62    N     0.35890   0.02183   0.39607   0.01267  Uiso   1.00
N63    N     0.34910   0.79112   0.35607   0.01267  Uiso   1.00
N64    N     0.53200   0.06028   0.44318   0.01267  Uiso   1.00
N65    N     0.39960   0.12736   0.39931   0.01267  Uiso   1.00
N66    N     0.29460   0.18712   0.57959   0.01267  Uiso   1.00
N67    N     0.55820   0.07274   0.82622   0.01267  Uiso   1.00
N68    N     0.38380   0.11116   0.87276   0.01267  Uiso   1.00
N69    N     0.29770   0.19330   0.69578   0.01267  Uiso   1.00
N70    N     0.92330   0.50511   0.63045   0.01267  Uiso   1.00
N71    N     0.14110   0.52183   0.60393   0.01267  Uiso   1.00
N72    N     0.15090   0.29112   0.64393   0.01267  Uiso   1.00
P1     P     0.47150   0.34358   0.62430   0.01267  Uiso   1.00
F1     F     0.58240   0.34950   0.63870   0.01267  Uiso   1.00
F2     F     0.45540   0.29710   0.65040   0.01267  Uiso   1.00
F3     F     0.36570   0.33560   0.60180   0.01267  Uiso   1.00
F4     F     0.49080   0.39080   0.59550   0.01267  Uiso   1.00
F5     F     0.50470   0.31120   0.58260   0.01267  Uiso   1.00
F6     F     0.42240   0.37690   0.65550   0.01267  Uiso   1.00
P2     P     0.02850   0.15642   0.12430   0.01267  Uiso   1.00
F7     F     0.91760   0.15050   0.13870   0.01267  Uiso   1.00
F8     F     0.04460   0.20290   0.15040   0.01267  Uiso   1.00
F9     F     0.13430   0.16440   0.10180   0.01267  Uiso   1.00
F10    F     0.00920   0.10920   0.09550   0.01267  Uiso   1.00
F11    F     0.99530   0.18880   0.08260   0.01267  Uiso   1.00
F12    F     0.07760   0.12310   0.15550   0.01267  Uiso   1.00
P3     P     0.47150   0.65642   0.87570   0.01267  Uiso   1.00
F13    F     0.58240   0.65050   0.86130   0.01267  Uiso   1.00
F14    F     0.45540   0.70290   0.84960   0.01267  Uiso   1.00
F15    F     0.36570   0.66440   0.89820   0.01267  Uiso   1.00
F16    F     0.49080   0.60920   0.90450   0.01267  Uiso   1.00
F17    F     0.50470   0.68880   0.91740   0.01267  Uiso   1.00
F18    F     0.42240   0.62310   0.84450   0.01267  Uiso   1.00
P4     P     0.02850   0.84358   0.37570   0.01267  Uiso   1.00
F19    F     0.91760   0.84950   0.36130   0.01267  Uiso   1.00
F20    F     0.04460   0.79710   0.34960   0.01267  Uiso   1.00
F21    F     0.13430   0.83560   0.39820   0.01267  Uiso   1.00
F22    F     0.00920   0.89080   0.40450   0.01267  Uiso   1.00
F23    F     0.99530   0.81120   0.41740   0.01267  Uiso   1.00
F24    F     0.07760   0.87690   0.34450   0.01267  Uiso   1.00
P5     P     0.52850   0.65642   0.37570   0.01267  Uiso   1.00
F25    F     0.41760   0.65050   0.36130   0.01267  Uiso   1.00
F26    F     0.54460   0.70290   0.34960   0.01267  Uiso   1.00
F27    F     0.63430   0.66440   0.39820   0.01267  Uiso   1.00
F28    F     0.50920   0.60920   0.40450   0.01267  Uiso   1.00
F29    F     0.49530   0.68880   0.41740   0.01267  Uiso   1.00
F30    F     0.57760   0.62310   0.34450   0.01267  Uiso   1.00
P6     P     0.97150   0.84358   0.87570   0.01267  Uiso   1.00
F31    F     0.08240   0.84950   0.86130   0.01267  Uiso   1.00
F32    F     0.95540   0.79710   0.84960   0.01267  Uiso   1.00
F33    F     0.86570   0.83560   0.89820   0.01267  Uiso   1.00
F34    F     0.99080   0.89080   0.90450   0.01267  Uiso   1.00
F35    F     0.00470   0.81120   0.91740   0.01267  Uiso   1.00
F36    F     0.92240   0.87690   0.84450   0.01267  Uiso   1.00
P7     P     0.52850   0.34358   0.12430   0.01267  Uiso   1.00
F37    F     0.41760   0.34950   0.13870   0.01267  Uiso   1.00
F38    F     0.54460   0.29710   0.15040   0.01267  Uiso   1.00
F39    F     0.63430   0.33560   0.10180   0.01267  Uiso   1.00
F40    F     0.50920   0.39080   0.09550   0.01267  Uiso   1.00
F41    F     0.49530   0.31120   0.08260   0.01267  Uiso   1.00
F42    F     0.57760   0.37690   0.15550   0.01267  Uiso   1.00
P8     P     0.97150   0.15642   0.62430   0.01267  Uiso   1.00
F43    F     0.08240   0.15050   0.63870   0.01267  Uiso   1.00
F44    F     0.95540   0.20290   0.65040   0.01267  Uiso   1.00
F45    F     0.86570   0.16440   0.60180   0.01267  Uiso   1.00
F46    F     0.99080   0.10920   0.59550   0.01267  Uiso   1.00
F47    F     0.00470   0.18880   0.58260   0.01267  Uiso   1.00
F48    F     0.92240   0.12310   0.65550   0.01267  Uiso   1.00
