data_GOJRED_clean5b
_audit_creation_date              2014-07-02
_audit_creation_method            'Materials Studio'
_symmetry_space_group_name_H-M    'P1'
_symmetry_Int_Tables_number       1
_symmetry_cell_setting            triclinic
loop_
_symmetry_equiv_pos_as_xyz
  x,y,z
_cell_length_a                    33.3373
_cell_length_b                    33.3373
_cell_length_c                    33.3373
_cell_angle_alpha                 90.0000
_cell_angle_beta                  90.0000
_cell_angle_gamma                 90.0000
loop_
_atom_site_label
_atom_site_type_symbol
_atom_site_fract_x
_atom_site_fract_y
_atom_site_fract_z
_atom_site_U_iso_or_equiv
_atom_site_adp_type
_atom_site_occupancy
Cl1    Cl    0.90007   0.10290   0.25210   0.01267  Uiso   1.00
Cl2    Cl    0.59993   0.89710   0.75210   0.01267  Uiso   1.00
Cl3    Cl    0.09993   0.60290   0.24790   0.01267  Uiso   1.00
Cl4    Cl    0.40007   0.39710   0.74790   0.01267  Uiso   1.00
Cl5    Cl    0.25210   0.90007   0.10290   0.01267  Uiso   1.00
Cl6    Cl    0.75210   0.59993   0.89710   0.01267  Uiso   1.00
Cl7    Cl    0.24790   0.09993   0.60290   0.01267  Uiso   1.00
Cl8    Cl    0.74790   0.40007   0.39710   0.01267  Uiso   1.00
Cl9    Cl    0.10290   0.25210   0.90007   0.01267  Uiso   1.00
Cl10   Cl    0.89710   0.75210   0.59993   0.01267  Uiso   1.00
Cl11   Cl    0.60290   0.24790   0.09993   0.01267  Uiso   1.00
Cl12   Cl    0.39710   0.74790   0.40007   0.01267  Uiso   1.00
Cl13   Cl    0.09993   0.89710   0.74790   0.01267  Uiso   1.00
Cl14   Cl    0.40007   0.10290   0.24790   0.01267  Uiso   1.00
Cl15   Cl    0.90007   0.39710   0.75210   0.01267  Uiso   1.00
Cl16   Cl    0.59993   0.60290   0.25210   0.01267  Uiso   1.00
Cl17   Cl    0.74790   0.09993   0.89710   0.01267  Uiso   1.00
Cl18   Cl    0.24790   0.40007   0.10290   0.01267  Uiso   1.00
Cl19   Cl    0.75210   0.90007   0.39710   0.01267  Uiso   1.00
Cl20   Cl    0.25210   0.59993   0.60290   0.01267  Uiso   1.00
Cl21   Cl    0.89710   0.74790   0.09993   0.01267  Uiso   1.00
Cl22   Cl    0.10290   0.24790   0.40007   0.01267  Uiso   1.00
Cl23   Cl    0.39710   0.75210   0.90007   0.01267  Uiso   1.00
Cl24   Cl    0.60290   0.25210   0.59993   0.01267  Uiso   1.00
Cl25   Cl    0.84451   0.14470   0.02732   0.01267  Uiso   1.00
Cl26   Cl    0.65549   0.85530   0.52732   0.01267  Uiso   1.00
Cl27   Cl    0.15549   0.64470   0.47268   0.01267  Uiso   1.00
Cl28   Cl    0.34451   0.35530   0.97268   0.01267  Uiso   1.00
Cl29   Cl    0.02732   0.84451   0.14470   0.01267  Uiso   1.00
Cl30   Cl    0.52732   0.65549   0.85530   0.01267  Uiso   1.00
Cl31   Cl    0.47268   0.15549   0.64470   0.01267  Uiso   1.00
Cl32   Cl    0.97268   0.34451   0.35530   0.01267  Uiso   1.00
Cl33   Cl    0.14470   0.02732   0.84451   0.01267  Uiso   1.00
Cl34   Cl    0.85530   0.52732   0.65549   0.01267  Uiso   1.00
Cl35   Cl    0.64470   0.47268   0.15549   0.01267  Uiso   1.00
Cl36   Cl    0.35530   0.97268   0.34451   0.01267  Uiso   1.00
Cl37   Cl    0.15549   0.85530   0.97268   0.01267  Uiso   1.00
Cl38   Cl    0.34451   0.14470   0.47268   0.01267  Uiso   1.00
Cl39   Cl    0.84451   0.35530   0.52732   0.01267  Uiso   1.00
Cl40   Cl    0.65549   0.64470   0.02732   0.01267  Uiso   1.00
Cl41   Cl    0.97268   0.15549   0.85530   0.01267  Uiso   1.00
Cl42   Cl    0.47268   0.34451   0.14470   0.01267  Uiso   1.00
Cl43   Cl    0.52732   0.84451   0.35530   0.01267  Uiso   1.00
Cl44   Cl    0.02732   0.65549   0.64470   0.01267  Uiso   1.00
Cl45   Cl    0.85530   0.97268   0.15549   0.01267  Uiso   1.00
Cl46   Cl    0.14470   0.47268   0.34451   0.01267  Uiso   1.00
Cl47   Cl    0.35530   0.52732   0.84451   0.01267  Uiso   1.00
Cl48   Cl    0.64470   0.02732   0.65549   0.01267  Uiso   1.00
C1     C     0.04805   0.18792   0.20530   0.01267  Uiso   1.00
C2     C     0.45195   0.81208   0.70530   0.01267  Uiso   1.00
C3     C     0.95195   0.68792   0.29470   0.01267  Uiso   1.00
C4     C     0.54805   0.31208   0.79470   0.01267  Uiso   1.00
C5     C     0.20530   0.04805   0.18792   0.01267  Uiso   1.00
C6     C     0.70530   0.45195   0.81208   0.01267  Uiso   1.00
C7     C     0.29470   0.95195   0.68792   0.01267  Uiso   1.00
C8     C     0.79470   0.54805   0.31208   0.01267  Uiso   1.00
C9     C     0.18792   0.20530   0.04805   0.01267  Uiso   1.00
C10    C     0.81208   0.70530   0.45195   0.01267  Uiso   1.00
C11    C     0.68792   0.29470   0.95195   0.01267  Uiso   1.00
C12    C     0.31208   0.79470   0.54805   0.01267  Uiso   1.00
C13    C     0.95195   0.81208   0.79470   0.01267  Uiso   1.00
C14    C     0.54805   0.18792   0.29470   0.01267  Uiso   1.00
C15    C     0.04805   0.31208   0.70530   0.01267  Uiso   1.00
C16    C     0.45195   0.68792   0.20530   0.01267  Uiso   1.00
C17    C     0.79470   0.95195   0.81208   0.01267  Uiso   1.00
C18    C     0.29470   0.54805   0.18792   0.01267  Uiso   1.00
C19    C     0.70530   0.04805   0.31208   0.01267  Uiso   1.00
C20    C     0.20530   0.45195   0.68792   0.01267  Uiso   1.00
C21    C     0.81208   0.79470   0.95195   0.01267  Uiso   1.00
C22    C     0.18792   0.29470   0.54805   0.01267  Uiso   1.00
C23    C     0.31208   0.70530   0.04805   0.01267  Uiso   1.00
C24    C     0.68792   0.20530   0.45195   0.01267  Uiso   1.00
C25    C     0.02527   0.23016   0.25626   0.01267  Uiso   1.00
C26    C     0.47473   0.76984   0.75626   0.01267  Uiso   1.00
C27    C     0.97473   0.73016   0.24374   0.01267  Uiso   1.00
C28    C     0.52527   0.26984   0.74374   0.01267  Uiso   1.00
C29    C     0.25626   0.02527   0.23016   0.01267  Uiso   1.00
C30    C     0.75626   0.47473   0.76984   0.01267  Uiso   1.00
C31    C     0.24374   0.97473   0.73016   0.01267  Uiso   1.00
C32    C     0.74374   0.52527   0.26984   0.01267  Uiso   1.00
C33    C     0.23016   0.25626   0.02527   0.01267  Uiso   1.00
C34    C     0.76984   0.75626   0.47473   0.01267  Uiso   1.00
C35    C     0.73016   0.24374   0.97473   0.01267  Uiso   1.00
C36    C     0.26984   0.74374   0.52527   0.01267  Uiso   1.00
C37    C     0.97473   0.76984   0.74374   0.01267  Uiso   1.00
C38    C     0.52527   0.23016   0.24374   0.01267  Uiso   1.00
C39    C     0.02527   0.26984   0.75626   0.01267  Uiso   1.00
C40    C     0.47473   0.73016   0.25626   0.01267  Uiso   1.00
C41    C     0.74374   0.97473   0.76984   0.01267  Uiso   1.00
C42    C     0.24374   0.52527   0.23016   0.01267  Uiso   1.00
C43    C     0.75626   0.02527   0.26984   0.01267  Uiso   1.00
C44    C     0.25626   0.47473   0.73016   0.01267  Uiso   1.00
C45    C     0.76984   0.74374   0.97473   0.01267  Uiso   1.00
C46    C     0.23016   0.24374   0.52527   0.01267  Uiso   1.00
C47    C     0.26984   0.75626   0.02527   0.01267  Uiso   1.00
C48    C     0.73016   0.25626   0.47473   0.01267  Uiso   1.00
C49    C     0.99131   0.19989   0.24536   0.01267  Uiso   1.00
C50    C     0.50869   0.80011   0.74536   0.01267  Uiso   1.00
C51    C     0.00869   0.69989   0.25464   0.01267  Uiso   1.00
C52    C     0.49131   0.30011   0.75464   0.01267  Uiso   1.00
C53    C     0.24536   0.99131   0.19989   0.01267  Uiso   1.00
C54    C     0.74536   0.50869   0.80011   0.01267  Uiso   1.00
C55    C     0.25464   0.00869   0.69989   0.01267  Uiso   1.00
C56    C     0.75464   0.49131   0.30011   0.01267  Uiso   1.00
C57    C     0.19989   0.24536   0.99131   0.01267  Uiso   1.00
C58    C     0.80011   0.74536   0.50869   0.01267  Uiso   1.00
C59    C     0.69989   0.25464   0.00869   0.01267  Uiso   1.00
C60    C     0.30011   0.75464   0.49131   0.01267  Uiso   1.00
C61    C     0.00869   0.80011   0.75464   0.01267  Uiso   1.00
C62    C     0.49131   0.19989   0.25464   0.01267  Uiso   1.00
C63    C     0.99131   0.30011   0.74536   0.01267  Uiso   1.00
C64    C     0.50869   0.69989   0.24536   0.01267  Uiso   1.00
C65    C     0.75464   0.00869   0.80011   0.01267  Uiso   1.00
C66    C     0.25464   0.49131   0.19989   0.01267  Uiso   1.00
C67    C     0.74536   0.99131   0.30011   0.01267  Uiso   1.00
C68    C     0.24536   0.50869   0.69989   0.01267  Uiso   1.00
C69    C     0.80011   0.75464   0.00869   0.01267  Uiso   1.00
C70    C     0.19989   0.25464   0.49131   0.01267  Uiso   1.00
C71    C     0.30011   0.74536   0.99131   0.01267  Uiso   1.00
C72    C     0.69989   0.24536   0.50869   0.01267  Uiso   1.00
C73    C     0.96772   0.26535   0.23321   0.01267  Uiso   1.00
C74    C     0.53228   0.73465   0.73321   0.01267  Uiso   1.00
C75    C     0.03228   0.76535   0.26679   0.01267  Uiso   1.00
C76    C     0.46772   0.23465   0.76679   0.01267  Uiso   1.00
C77    C     0.23321   0.96772   0.26535   0.01267  Uiso   1.00
C78    C     0.73321   0.53228   0.73465   0.01267  Uiso   1.00
C79    C     0.26679   0.03228   0.76535   0.01267  Uiso   1.00
C80    C     0.76679   0.46772   0.23465   0.01267  Uiso   1.00
C81    C     0.26535   0.23321   0.96772   0.01267  Uiso   1.00
C82    C     0.73465   0.73321   0.53228   0.01267  Uiso   1.00
C83    C     0.76535   0.26679   0.03228   0.01267  Uiso   1.00
C84    C     0.23465   0.76679   0.46772   0.01267  Uiso   1.00
C85    C     0.03228   0.73465   0.76679   0.01267  Uiso   1.00
C86    C     0.46772   0.26535   0.26679   0.01267  Uiso   1.00
C87    C     0.96772   0.23465   0.73321   0.01267  Uiso   1.00
C88    C     0.53228   0.76535   0.23321   0.01267  Uiso   1.00
C89    C     0.76679   0.03228   0.73465   0.01267  Uiso   1.00
C90    C     0.26679   0.46772   0.26535   0.01267  Uiso   1.00
C91    C     0.73321   0.96772   0.23465   0.01267  Uiso   1.00
C92    C     0.23321   0.53228   0.76535   0.01267  Uiso   1.00
C93    C     0.73465   0.76679   0.03228   0.01267  Uiso   1.00
C94    C     0.26535   0.26679   0.46772   0.01267  Uiso   1.00
C95    C     0.23465   0.73321   0.96772   0.01267  Uiso   1.00
C96    C     0.76535   0.23321   0.53228   0.01267  Uiso   1.00
C97    C     0.99118   0.14196   0.19260   0.01267  Uiso   1.00
C98    C     0.50882   0.85804   0.69260   0.01267  Uiso   1.00
C99    C     0.00882   0.64196   0.30740   0.01267  Uiso   1.00
C100   C     0.49118   0.35804   0.80740   0.01267  Uiso   1.00
C101   C     0.19260   0.99118   0.14196   0.01267  Uiso   1.00
C102   C     0.69260   0.50882   0.85804   0.01267  Uiso   1.00
C103   C     0.30740   0.00882   0.64196   0.01267  Uiso   1.00
C104   C     0.80740   0.49118   0.35804   0.01267  Uiso   1.00
C105   C     0.14196   0.19260   0.99118   0.01267  Uiso   1.00
C106   C     0.85804   0.69260   0.50882   0.01267  Uiso   1.00
C107   C     0.64196   0.30740   0.00882   0.01267  Uiso   1.00
C108   C     0.35804   0.80740   0.49118   0.01267  Uiso   1.00
C109   C     0.00882   0.85804   0.80740   0.01267  Uiso   1.00
C110   C     0.49118   0.14196   0.30740   0.01267  Uiso   1.00
C111   C     0.99118   0.35804   0.69260   0.01267  Uiso   1.00
C112   C     0.50882   0.64196   0.19260   0.01267  Uiso   1.00
C113   C     0.80740   0.00882   0.85804   0.01267  Uiso   1.00
C114   C     0.30740   0.49118   0.14196   0.01267  Uiso   1.00
C115   C     0.69260   0.99118   0.35804   0.01267  Uiso   1.00
C116   C     0.19260   0.50882   0.64196   0.01267  Uiso   1.00
C117   C     0.85804   0.80740   0.00882   0.01267  Uiso   1.00
C118   C     0.14196   0.30740   0.49118   0.01267  Uiso   1.00
C119   C     0.35804   0.69260   0.99118   0.01267  Uiso   1.00
C120   C     0.64196   0.19260   0.50882   0.01267  Uiso   1.00
H1     H     0.01200   0.12280   0.18590   0.01267  Uiso   1.00
H2     H     0.48800   0.87720   0.68590   0.01267  Uiso   1.00
H3     H     0.98800   0.62280   0.31410   0.01267  Uiso   1.00
H4     H     0.51200   0.37720   0.81410   0.01267  Uiso   1.00
H5     H     0.18590   0.01200   0.12280   0.01267  Uiso   1.00
H6     H     0.68590   0.48800   0.87720   0.01267  Uiso   1.00
H7     H     0.31410   0.98800   0.62280   0.01267  Uiso   1.00
H8     H     0.81410   0.51200   0.37720   0.01267  Uiso   1.00
H9     H     0.12280   0.18590   0.01200   0.01267  Uiso   1.00
H10    H     0.87720   0.68590   0.48800   0.01267  Uiso   1.00
H11    H     0.62280   0.31410   0.98800   0.01267  Uiso   1.00
H12    H     0.37720   0.81410   0.51200   0.01267  Uiso   1.00
H13    H     0.98800   0.87720   0.81410   0.01267  Uiso   1.00
H14    H     0.51200   0.12280   0.31410   0.01267  Uiso   1.00
H15    H     0.01200   0.37720   0.68590   0.01267  Uiso   1.00
H16    H     0.48800   0.62280   0.18590   0.01267  Uiso   1.00
H17    H     0.81410   0.98800   0.87720   0.01267  Uiso   1.00
H18    H     0.31410   0.51200   0.12280   0.01267  Uiso   1.00
H19    H     0.68590   0.01200   0.37720   0.01267  Uiso   1.00
H20    H     0.18590   0.48800   0.62280   0.01267  Uiso   1.00
H21    H     0.87720   0.81410   0.98800   0.01267  Uiso   1.00
H22    H     0.12280   0.31410   0.51200   0.01267  Uiso   1.00
H23    H     0.37720   0.68590   0.01200   0.01267  Uiso   1.00
H24    H     0.62280   0.18590   0.48800   0.01267  Uiso   1.00
H25    H     0.97270   0.12880   0.21080   0.01267  Uiso   1.00
H26    H     0.52730   0.87120   0.71080   0.01267  Uiso   1.00
H27    H     0.02730   0.62880   0.28920   0.01267  Uiso   1.00
H28    H     0.47270   0.37120   0.78920   0.01267  Uiso   1.00
H29    H     0.21080   0.97270   0.12880   0.01267  Uiso   1.00
H30    H     0.71080   0.52730   0.87120   0.01267  Uiso   1.00
H31    H     0.28920   0.02730   0.62880   0.01267  Uiso   1.00
H32    H     0.78920   0.47270   0.37120   0.01267  Uiso   1.00
H33    H     0.12880   0.21080   0.97270   0.01267  Uiso   1.00
H34    H     0.87120   0.71080   0.52730   0.01267  Uiso   1.00
H35    H     0.62880   0.28920   0.02730   0.01267  Uiso   1.00
H36    H     0.37120   0.78920   0.47270   0.01267  Uiso   1.00
H37    H     0.02730   0.87120   0.78920   0.01267  Uiso   1.00
H38    H     0.47270   0.12880   0.28920   0.01267  Uiso   1.00
H39    H     0.97270   0.37120   0.71080   0.01267  Uiso   1.00
H40    H     0.52730   0.62880   0.21080   0.01267  Uiso   1.00
H41    H     0.78920   0.02730   0.87120   0.01267  Uiso   1.00
H42    H     0.28920   0.47270   0.12880   0.01267  Uiso   1.00
H43    H     0.71080   0.97270   0.37120   0.01267  Uiso   1.00
H44    H     0.21080   0.52730   0.62880   0.01267  Uiso   1.00
H45    H     0.87120   0.78920   0.02730   0.01267  Uiso   1.00
H46    H     0.12880   0.28920   0.47270   0.01267  Uiso   1.00
H47    H     0.37120   0.71080   0.97270   0.01267  Uiso   1.00
H48    H     0.62880   0.21080   0.52730   0.01267  Uiso   1.00
C121   C     0.92012   0.21180   0.21598   0.01267  Uiso   1.00
C122   C     0.57988   0.78820   0.71598   0.01267  Uiso   1.00
C123   C     0.07988   0.71180   0.28402   0.01267  Uiso   1.00
C124   C     0.42012   0.28820   0.78402   0.01267  Uiso   1.00
C125   C     0.21598   0.92012   0.21180   0.01267  Uiso   1.00
C126   C     0.71598   0.57988   0.78820   0.01267  Uiso   1.00
C127   C     0.28402   0.07988   0.71180   0.01267  Uiso   1.00
C128   C     0.78402   0.42012   0.28820   0.01267  Uiso   1.00
C129   C     0.21180   0.21598   0.92012   0.01267  Uiso   1.00
C130   C     0.78820   0.71598   0.57988   0.01267  Uiso   1.00
C131   C     0.71180   0.28402   0.07988   0.01267  Uiso   1.00
C132   C     0.28820   0.78402   0.42012   0.01267  Uiso   1.00
C133   C     0.07988   0.78820   0.78402   0.01267  Uiso   1.00
C134   C     0.42012   0.21180   0.28402   0.01267  Uiso   1.00
C135   C     0.92012   0.28820   0.71598   0.01267  Uiso   1.00
C136   C     0.57988   0.71180   0.21598   0.01267  Uiso   1.00
C137   C     0.78402   0.07988   0.78820   0.01267  Uiso   1.00
C138   C     0.28402   0.42012   0.21180   0.01267  Uiso   1.00
C139   C     0.71598   0.92012   0.28820   0.01267  Uiso   1.00
C140   C     0.21598   0.57988   0.71180   0.01267  Uiso   1.00
C141   C     0.78820   0.78402   0.07988   0.01267  Uiso   1.00
C142   C     0.21180   0.28402   0.42012   0.01267  Uiso   1.00
C143   C     0.28820   0.71598   0.92012   0.01267  Uiso   1.00
C144   C     0.71180   0.21598   0.57988   0.01267  Uiso   1.00
H49    H     0.91230   0.18770   0.23020   0.01267  Uiso   1.00
H50    H     0.58770   0.81230   0.73020   0.01267  Uiso   1.00
H51    H     0.08770   0.68770   0.26980   0.01267  Uiso   1.00
H52    H     0.41230   0.31230   0.76980   0.01267  Uiso   1.00
H53    H     0.23020   0.91230   0.18770   0.01267  Uiso   1.00
H54    H     0.73020   0.58770   0.81230   0.01267  Uiso   1.00
H55    H     0.26980   0.08770   0.68770   0.01267  Uiso   1.00
H56    H     0.76980   0.41230   0.31230   0.01267  Uiso   1.00
H57    H     0.18770   0.23020   0.91230   0.01267  Uiso   1.00
H58    H     0.81230   0.73020   0.58770   0.01267  Uiso   1.00
H59    H     0.68770   0.26980   0.08770   0.01267  Uiso   1.00
H60    H     0.31230   0.76980   0.41230   0.01267  Uiso   1.00
H61    H     0.08770   0.81230   0.76980   0.01267  Uiso   1.00
H62    H     0.41230   0.18770   0.26980   0.01267  Uiso   1.00
H63    H     0.91230   0.31230   0.73020   0.01267  Uiso   1.00
H64    H     0.58770   0.68770   0.23020   0.01267  Uiso   1.00
H65    H     0.76980   0.08770   0.81230   0.01267  Uiso   1.00
H66    H     0.26980   0.41230   0.18770   0.01267  Uiso   1.00
H67    H     0.73020   0.91230   0.31230   0.01267  Uiso   1.00
H68    H     0.23020   0.58770   0.68770   0.01267  Uiso   1.00
H69    H     0.81230   0.76980   0.08770   0.01267  Uiso   1.00
H70    H     0.18770   0.26980   0.41230   0.01267  Uiso   1.00
H71    H     0.31230   0.73020   0.91230   0.01267  Uiso   1.00
H72    H     0.68770   0.23020   0.58770   0.01267  Uiso   1.00
H73    H     0.90000   0.23210   0.22140   0.01267  Uiso   1.00
H74    H     0.60000   0.76790   0.72140   0.01267  Uiso   1.00
H75    H     0.10000   0.73210   0.27860   0.01267  Uiso   1.00
H76    H     0.40000   0.26790   0.77860   0.01267  Uiso   1.00
H77    H     0.22140   0.90000   0.23210   0.01267  Uiso   1.00
H78    H     0.72140   0.60000   0.76790   0.01267  Uiso   1.00
H79    H     0.27860   0.10000   0.73210   0.01267  Uiso   1.00
H80    H     0.77860   0.40000   0.26790   0.01267  Uiso   1.00
H81    H     0.23210   0.22140   0.90000   0.01267  Uiso   1.00
H82    H     0.76790   0.72140   0.60000   0.01267  Uiso   1.00
H83    H     0.73210   0.27860   0.10000   0.01267  Uiso   1.00
H84    H     0.26790   0.77860   0.40000   0.01267  Uiso   1.00
H85    H     0.10000   0.76790   0.77860   0.01267  Uiso   1.00
H86    H     0.40000   0.23210   0.27860   0.01267  Uiso   1.00
H87    H     0.90000   0.26790   0.72140   0.01267  Uiso   1.00
H88    H     0.60000   0.73210   0.22140   0.01267  Uiso   1.00
H89    H     0.77860   0.10000   0.76790   0.01267  Uiso   1.00
H90    H     0.27860   0.40000   0.23210   0.01267  Uiso   1.00
H91    H     0.72140   0.90000   0.26790   0.01267  Uiso   1.00
H92    H     0.22140   0.60000   0.73210   0.01267  Uiso   1.00
H93    H     0.76790   0.77860   0.10000   0.01267  Uiso   1.00
H94    H     0.23210   0.27860   0.40000   0.01267  Uiso   1.00
H95    H     0.26790   0.72140   0.90000   0.01267  Uiso   1.00
H96    H     0.73210   0.22140   0.60000   0.01267  Uiso   1.00
C145   C     0.98533   0.15177   0.11894   0.01267  Uiso   1.00
C146   C     0.51467   0.84823   0.61894   0.01267  Uiso   1.00
C147   C     0.01467   0.65177   0.38106   0.01267  Uiso   1.00
C148   C     0.48533   0.34823   0.88106   0.01267  Uiso   1.00
C149   C     0.11894   0.98533   0.15177   0.01267  Uiso   1.00
C150   C     0.61894   0.51467   0.84823   0.01267  Uiso   1.00
C151   C     0.38106   0.01467   0.65177   0.01267  Uiso   1.00
C152   C     0.88106   0.48533   0.34823   0.01267  Uiso   1.00
C153   C     0.15177   0.11894   0.98533   0.01267  Uiso   1.00
C154   C     0.84823   0.61894   0.51467   0.01267  Uiso   1.00
C155   C     0.65177   0.38106   0.01467   0.01267  Uiso   1.00
C156   C     0.34823   0.88106   0.48533   0.01267  Uiso   1.00
C157   C     0.01467   0.84823   0.88106   0.01267  Uiso   1.00
C158   C     0.48533   0.15177   0.38106   0.01267  Uiso   1.00
C159   C     0.98533   0.34823   0.61894   0.01267  Uiso   1.00
C160   C     0.51467   0.65177   0.11894   0.01267  Uiso   1.00
C161   C     0.88106   0.01467   0.84823   0.01267  Uiso   1.00
C162   C     0.38106   0.48533   0.15177   0.01267  Uiso   1.00
C163   C     0.61894   0.98533   0.34823   0.01267  Uiso   1.00
C164   C     0.11894   0.51467   0.65177   0.01267  Uiso   1.00
C165   C     0.84823   0.88106   0.01467   0.01267  Uiso   1.00
C166   C     0.15177   0.38106   0.48533   0.01267  Uiso   1.00
C167   C     0.34823   0.61894   0.98533   0.01267  Uiso   1.00
C168   C     0.65177   0.11894   0.51467   0.01267  Uiso   1.00
C169   C     0.92837   0.16497   0.15633   0.01267  Uiso   1.00
C170   C     0.57163   0.83503   0.65633   0.01267  Uiso   1.00
C171   C     0.07163   0.66497   0.34367   0.01267  Uiso   1.00
C172   C     0.42837   0.33503   0.84367   0.01267  Uiso   1.00
C173   C     0.15633   0.92837   0.16497   0.01267  Uiso   1.00
C174   C     0.65633   0.57163   0.83503   0.01267  Uiso   1.00
C175   C     0.34367   0.07163   0.66497   0.01267  Uiso   1.00
C176   C     0.84367   0.42837   0.33503   0.01267  Uiso   1.00
C177   C     0.16497   0.15633   0.92837   0.01267  Uiso   1.00
C178   C     0.83503   0.65633   0.57163   0.01267  Uiso   1.00
C179   C     0.66497   0.34367   0.07163   0.01267  Uiso   1.00
C180   C     0.33503   0.84367   0.42837   0.01267  Uiso   1.00
C181   C     0.07163   0.83503   0.84367   0.01267  Uiso   1.00
C182   C     0.42837   0.16497   0.34367   0.01267  Uiso   1.00
C183   C     0.92837   0.33503   0.65633   0.01267  Uiso   1.00
C184   C     0.57163   0.66497   0.15633   0.01267  Uiso   1.00
C185   C     0.84367   0.07163   0.83503   0.01267  Uiso   1.00
C186   C     0.34367   0.42837   0.16497   0.01267  Uiso   1.00
C187   C     0.65633   0.92837   0.33503   0.01267  Uiso   1.00
C188   C     0.15633   0.57163   0.66497   0.01267  Uiso   1.00
C189   C     0.83503   0.84367   0.07163   0.01267  Uiso   1.00
C190   C     0.16497   0.34367   0.42837   0.01267  Uiso   1.00
C191   C     0.33503   0.65633   0.92837   0.01267  Uiso   1.00
C192   C     0.66497   0.15633   0.57163   0.01267  Uiso   1.00
H97    H     0.91110   0.14420   0.16790   0.01267  Uiso   1.00
H98    H     0.58890   0.85580   0.66790   0.01267  Uiso   1.00
H99    H     0.08890   0.64420   0.33210   0.01267  Uiso   1.00
H100   H     0.41110   0.35580   0.83210   0.01267  Uiso   1.00
H101   H     0.16790   0.91110   0.14420   0.01267  Uiso   1.00
H102   H     0.66790   0.58890   0.85580   0.01267  Uiso   1.00
H103   H     0.33210   0.08890   0.64420   0.01267  Uiso   1.00
H104   H     0.83210   0.41110   0.35580   0.01267  Uiso   1.00
H105   H     0.14420   0.16790   0.91110   0.01267  Uiso   1.00
H106   H     0.85580   0.66790   0.58890   0.01267  Uiso   1.00
H107   H     0.64420   0.33210   0.08890   0.01267  Uiso   1.00
H108   H     0.35580   0.83210   0.41110   0.01267  Uiso   1.00
H109   H     0.08890   0.85580   0.83210   0.01267  Uiso   1.00
H110   H     0.41110   0.14420   0.33210   0.01267  Uiso   1.00
H111   H     0.91110   0.35580   0.66790   0.01267  Uiso   1.00
H112   H     0.58890   0.64420   0.16790   0.01267  Uiso   1.00
H113   H     0.83210   0.08890   0.85580   0.01267  Uiso   1.00
H114   H     0.33210   0.41110   0.14420   0.01267  Uiso   1.00
H115   H     0.66790   0.91110   0.35580   0.01267  Uiso   1.00
H116   H     0.16790   0.58890   0.64420   0.01267  Uiso   1.00
H117   H     0.85580   0.83210   0.08890   0.01267  Uiso   1.00
H118   H     0.14420   0.33210   0.41110   0.01267  Uiso   1.00
H119   H     0.35580   0.66790   0.91110   0.01267  Uiso   1.00
H120   H     0.64420   0.16790   0.58890   0.01267  Uiso   1.00
C193   C     0.91968   0.17070   0.11167   0.01267  Uiso   1.00
C194   C     0.58032   0.82930   0.61167   0.01267  Uiso   1.00
C195   C     0.08032   0.67070   0.38833   0.01267  Uiso   1.00
C196   C     0.41968   0.32930   0.88833   0.01267  Uiso   1.00
C197   C     0.11167   0.91968   0.17070   0.01267  Uiso   1.00
C198   C     0.61167   0.58032   0.82930   0.01267  Uiso   1.00
C199   C     0.38833   0.08032   0.67070   0.01267  Uiso   1.00
C200   C     0.88833   0.41968   0.32930   0.01267  Uiso   1.00
C201   C     0.17070   0.11167   0.91968   0.01267  Uiso   1.00
C202   C     0.82930   0.61167   0.58032   0.01267  Uiso   1.00
C203   C     0.67070   0.38833   0.08032   0.01267  Uiso   1.00
C204   C     0.32930   0.88833   0.41968   0.01267  Uiso   1.00
C205   C     0.08032   0.82930   0.88833   0.01267  Uiso   1.00
C206   C     0.41968   0.17070   0.38833   0.01267  Uiso   1.00
C207   C     0.91968   0.32930   0.61167   0.01267  Uiso   1.00
C208   C     0.58032   0.67070   0.11167   0.01267  Uiso   1.00
C209   C     0.88833   0.08032   0.82930   0.01267  Uiso   1.00
C210   C     0.38833   0.41968   0.17070   0.01267  Uiso   1.00
C211   C     0.61167   0.91968   0.32930   0.01267  Uiso   1.00
C212   C     0.11167   0.58032   0.67070   0.01267  Uiso   1.00
C213   C     0.82930   0.88833   0.08032   0.01267  Uiso   1.00
C214   C     0.17070   0.38833   0.41968   0.01267  Uiso   1.00
C215   C     0.32930   0.61167   0.91968   0.01267  Uiso   1.00
C216   C     0.67070   0.11167   0.58032   0.01267  Uiso   1.00
H121   H     0.89940   0.15170   0.10210   0.01267  Uiso   1.00
H122   H     0.60060   0.84830   0.60210   0.01267  Uiso   1.00
H123   H     0.10060   0.65170   0.39790   0.01267  Uiso   1.00
H124   H     0.39940   0.34830   0.89790   0.01267  Uiso   1.00
H125   H     0.10210   0.89940   0.15170   0.01267  Uiso   1.00
H126   H     0.60210   0.60060   0.84830   0.01267  Uiso   1.00
H127   H     0.39790   0.10060   0.65170   0.01267  Uiso   1.00
H128   H     0.89790   0.39940   0.34830   0.01267  Uiso   1.00
H129   H     0.15170   0.10210   0.89940   0.01267  Uiso   1.00
H130   H     0.84830   0.60210   0.60060   0.01267  Uiso   1.00
H131   H     0.65170   0.39790   0.10060   0.01267  Uiso   1.00
H132   H     0.34830   0.89790   0.39940   0.01267  Uiso   1.00
H133   H     0.10060   0.84830   0.89790   0.01267  Uiso   1.00
H134   H     0.39940   0.15170   0.39790   0.01267  Uiso   1.00
H135   H     0.89940   0.34830   0.60210   0.01267  Uiso   1.00
H136   H     0.60060   0.65170   0.10210   0.01267  Uiso   1.00
H137   H     0.89790   0.10060   0.84830   0.01267  Uiso   1.00
H138   H     0.39790   0.39940   0.15170   0.01267  Uiso   1.00
H139   H     0.60210   0.89940   0.34830   0.01267  Uiso   1.00
H140   H     0.10210   0.60060   0.65170   0.01267  Uiso   1.00
H141   H     0.84830   0.89790   0.10060   0.01267  Uiso   1.00
H142   H     0.15170   0.39790   0.39940   0.01267  Uiso   1.00
H143   H     0.34830   0.60210   0.89940   0.01267  Uiso   1.00
H144   H     0.65170   0.10210   0.60060   0.01267  Uiso   1.00
C217   C     0.90445   0.22999   0.14617   0.01267  Uiso   1.00
C218   C     0.59555   0.77001   0.64617   0.01267  Uiso   1.00
C219   C     0.09555   0.72999   0.35383   0.01267  Uiso   1.00
C220   C     0.40445   0.27001   0.85383   0.01267  Uiso   1.00
C221   C     0.14617   0.90445   0.22999   0.01267  Uiso   1.00
C222   C     0.64617   0.59555   0.77001   0.01267  Uiso   1.00
C223   C     0.35383   0.09555   0.72999   0.01267  Uiso   1.00
C224   C     0.85383   0.40445   0.27001   0.01267  Uiso   1.00
C225   C     0.22999   0.14617   0.90445   0.01267  Uiso   1.00
C226   C     0.77001   0.64617   0.59555   0.01267  Uiso   1.00
C227   C     0.72999   0.35383   0.09555   0.01267  Uiso   1.00
C228   C     0.27001   0.85383   0.40445   0.01267  Uiso   1.00
C229   C     0.09555   0.77001   0.85383   0.01267  Uiso   1.00
C230   C     0.40445   0.22999   0.35383   0.01267  Uiso   1.00
C231   C     0.90445   0.27001   0.64617   0.01267  Uiso   1.00
C232   C     0.59555   0.72999   0.14617   0.01267  Uiso   1.00
C233   C     0.85383   0.09555   0.77001   0.01267  Uiso   1.00
C234   C     0.35383   0.40445   0.22999   0.01267  Uiso   1.00
C235   C     0.64617   0.90445   0.27001   0.01267  Uiso   1.00
C236   C     0.14617   0.59555   0.72999   0.01267  Uiso   1.00
C237   C     0.77001   0.85383   0.09555   0.01267  Uiso   1.00
C238   C     0.22999   0.35383   0.40445   0.01267  Uiso   1.00
C239   C     0.27001   0.64617   0.90445   0.01267  Uiso   1.00
C240   C     0.72999   0.14617   0.59555   0.01267  Uiso   1.00
C241   C     0.96359   0.16137   0.04903   0.01267  Uiso   1.00
C242   C     0.53641   0.83863   0.54903   0.01267  Uiso   1.00
C243   C     0.03641   0.66137   0.45097   0.01267  Uiso   1.00
C244   C     0.46359   0.33863   0.95097   0.01267  Uiso   1.00
C245   C     0.04903   0.96359   0.16137   0.01267  Uiso   1.00
C246   C     0.54903   0.53641   0.83863   0.01267  Uiso   1.00
C247   C     0.45097   0.03641   0.66137   0.01267  Uiso   1.00
C248   C     0.95097   0.46359   0.33863   0.01267  Uiso   1.00
C249   C     0.16137   0.04903   0.96359   0.01267  Uiso   1.00
C250   C     0.83863   0.54903   0.53641   0.01267  Uiso   1.00
C251   C     0.66137   0.45097   0.03641   0.01267  Uiso   1.00
C252   C     0.33863   0.95097   0.46359   0.01267  Uiso   1.00
C253   C     0.03641   0.83863   0.95097   0.01267  Uiso   1.00
C254   C     0.46359   0.16137   0.45097   0.01267  Uiso   1.00
C255   C     0.96359   0.33863   0.54903   0.01267  Uiso   1.00
C256   C     0.53641   0.66137   0.04903   0.01267  Uiso   1.00
C257   C     0.95097   0.03641   0.83863   0.01267  Uiso   1.00
C258   C     0.45097   0.46359   0.16137   0.01267  Uiso   1.00
C259   C     0.54903   0.96359   0.33863   0.01267  Uiso   1.00
C260   C     0.04903   0.53641   0.66137   0.01267  Uiso   1.00
C261   C     0.83863   0.95097   0.03641   0.01267  Uiso   1.00
C262   C     0.16137   0.45097   0.46359   0.01267  Uiso   1.00
C263   C     0.33863   0.54903   0.96359   0.01267  Uiso   1.00
C264   C     0.66137   0.04903   0.53641   0.01267  Uiso   1.00
H145   H     0.98480   0.14230   0.04340   0.01267  Uiso   1.00
H146   H     0.51520   0.85770   0.54340   0.01267  Uiso   1.00
H147   H     0.01520   0.64230   0.45660   0.01267  Uiso   1.00
H148   H     0.48480   0.35770   0.95660   0.01267  Uiso   1.00
H149   H     0.04340   0.98480   0.14230   0.01267  Uiso   1.00
H150   H     0.54340   0.51520   0.85770   0.01267  Uiso   1.00
H151   H     0.45660   0.01520   0.64230   0.01267  Uiso   1.00
H152   H     0.95660   0.48480   0.35770   0.01267  Uiso   1.00
H153   H     0.14230   0.04340   0.98480   0.01267  Uiso   1.00
H154   H     0.85770   0.54340   0.51520   0.01267  Uiso   1.00
H155   H     0.64230   0.45660   0.01520   0.01267  Uiso   1.00
H156   H     0.35770   0.95660   0.48480   0.01267  Uiso   1.00
H157   H     0.01520   0.85770   0.95660   0.01267  Uiso   1.00
H158   H     0.48480   0.14230   0.45660   0.01267  Uiso   1.00
H159   H     0.98480   0.35770   0.54340   0.01267  Uiso   1.00
H160   H     0.51520   0.64230   0.04340   0.01267  Uiso   1.00
H161   H     0.95660   0.01520   0.85770   0.01267  Uiso   1.00
H162   H     0.45660   0.48480   0.14230   0.01267  Uiso   1.00
H163   H     0.54340   0.98480   0.35770   0.01267  Uiso   1.00
H164   H     0.04340   0.51520   0.64230   0.01267  Uiso   1.00
H165   H     0.85770   0.95660   0.01520   0.01267  Uiso   1.00
H166   H     0.14230   0.45660   0.48480   0.01267  Uiso   1.00
H167   H     0.35770   0.54340   0.98480   0.01267  Uiso   1.00
H168   H     0.64230   0.04340   0.51520   0.01267  Uiso   1.00
H169   H     0.93910   0.15140   0.03680   0.01267  Uiso   1.00
H170   H     0.56090   0.84860   0.53680   0.01267  Uiso   1.00
H171   H     0.06090   0.65140   0.46320   0.01267  Uiso   1.00
H172   H     0.43910   0.34860   0.96320   0.01267  Uiso   1.00
H173   H     0.03680   0.93910   0.15140   0.01267  Uiso   1.00
H174   H     0.53680   0.56090   0.84860   0.01267  Uiso   1.00
H175   H     0.46320   0.06090   0.65140   0.01267  Uiso   1.00
H176   H     0.96320   0.43910   0.34860   0.01267  Uiso   1.00
H177   H     0.15140   0.03680   0.93910   0.01267  Uiso   1.00
H178   H     0.84860   0.53680   0.56090   0.01267  Uiso   1.00
H179   H     0.65140   0.46320   0.06090   0.01267  Uiso   1.00
H180   H     0.34860   0.96320   0.43910   0.01267  Uiso   1.00
H181   H     0.06090   0.84860   0.96320   0.01267  Uiso   1.00
H182   H     0.43910   0.15140   0.46320   0.01267  Uiso   1.00
H183   H     0.93910   0.34860   0.53680   0.01267  Uiso   1.00
H184   H     0.56090   0.65140   0.03680   0.01267  Uiso   1.00
H185   H     0.96320   0.06090   0.84860   0.01267  Uiso   1.00
H186   H     0.46320   0.43910   0.15140   0.01267  Uiso   1.00
H187   H     0.53680   0.93910   0.34860   0.01267  Uiso   1.00
H188   H     0.03680   0.56090   0.65140   0.01267  Uiso   1.00
H189   H     0.84860   0.96320   0.06090   0.01267  Uiso   1.00
H190   H     0.15140   0.46320   0.43910   0.01267  Uiso   1.00
H191   H     0.34860   0.53680   0.93910   0.01267  Uiso   1.00
H192   H     0.65140   0.03680   0.56090   0.01267  Uiso   1.00
C265   C     0.89078   0.23083   0.07250   0.01267  Uiso   1.00
C266   C     0.60922   0.76917   0.57250   0.01267  Uiso   1.00
C267   C     0.10922   0.73083   0.42750   0.01267  Uiso   1.00
C268   C     0.39078   0.26917   0.92750   0.01267  Uiso   1.00
C269   C     0.07250   0.89078   0.23083   0.01267  Uiso   1.00
C270   C     0.57250   0.60922   0.76917   0.01267  Uiso   1.00
C271   C     0.42750   0.10922   0.73083   0.01267  Uiso   1.00
C272   C     0.92750   0.39078   0.26917   0.01267  Uiso   1.00
C273   C     0.23083   0.07250   0.89078   0.01267  Uiso   1.00
C274   C     0.76917   0.57250   0.60922   0.01267  Uiso   1.00
C275   C     0.73083   0.42750   0.10922   0.01267  Uiso   1.00
C276   C     0.26917   0.92750   0.39078   0.01267  Uiso   1.00
C277   C     0.10922   0.76917   0.92750   0.01267  Uiso   1.00
C278   C     0.39078   0.23083   0.42750   0.01267  Uiso   1.00
C279   C     0.89078   0.26917   0.57250   0.01267  Uiso   1.00
C280   C     0.60922   0.73083   0.07250   0.01267  Uiso   1.00
C281   C     0.92750   0.10922   0.76917   0.01267  Uiso   1.00
C282   C     0.42750   0.39078   0.23083   0.01267  Uiso   1.00
C283   C     0.57250   0.89078   0.26917   0.01267  Uiso   1.00
C284   C     0.07250   0.60922   0.73083   0.01267  Uiso   1.00
C285   C     0.76917   0.92750   0.10922   0.01267  Uiso   1.00
C286   C     0.23083   0.42750   0.39078   0.01267  Uiso   1.00
C287   C     0.26917   0.57250   0.89078   0.01267  Uiso   1.00
C288   C     0.73083   0.07250   0.60922   0.01267  Uiso   1.00
H193   H     0.87720   0.21100   0.05620   0.01267  Uiso   1.00
H194   H     0.62280   0.78900   0.55620   0.01267  Uiso   1.00
H195   H     0.12280   0.71100   0.44380   0.01267  Uiso   1.00
H196   H     0.37720   0.28900   0.94380   0.01267  Uiso   1.00
H197   H     0.05620   0.87720   0.21100   0.01267  Uiso   1.00
H198   H     0.55620   0.62280   0.78900   0.01267  Uiso   1.00
H199   H     0.44380   0.12280   0.71100   0.01267  Uiso   1.00
H200   H     0.94380   0.37720   0.28900   0.01267  Uiso   1.00
H201   H     0.21100   0.05620   0.87720   0.01267  Uiso   1.00
H202   H     0.78900   0.55620   0.62280   0.01267  Uiso   1.00
H203   H     0.71100   0.44380   0.12280   0.01267  Uiso   1.00
H204   H     0.28900   0.94380   0.37720   0.01267  Uiso   1.00
H205   H     0.12280   0.78900   0.94380   0.01267  Uiso   1.00
H206   H     0.37720   0.21100   0.44380   0.01267  Uiso   1.00
H207   H     0.87720   0.28900   0.55620   0.01267  Uiso   1.00
H208   H     0.62280   0.71100   0.05620   0.01267  Uiso   1.00
H209   H     0.94380   0.12280   0.78900   0.01267  Uiso   1.00
H210   H     0.44380   0.37720   0.21100   0.01267  Uiso   1.00
H211   H     0.55620   0.87720   0.28900   0.01267  Uiso   1.00
H212   H     0.05620   0.62280   0.71100   0.01267  Uiso   1.00
H213   H     0.78900   0.94380   0.12280   0.01267  Uiso   1.00
H214   H     0.21100   0.44380   0.37720   0.01267  Uiso   1.00
H215   H     0.28900   0.55620   0.87720   0.01267  Uiso   1.00
H216   H     0.71100   0.05620   0.62280   0.01267  Uiso   1.00
H217   H     0.87140   0.25130   0.07960   0.01267  Uiso   1.00
H218   H     0.62860   0.74870   0.57960   0.01267  Uiso   1.00
H219   H     0.12860   0.75130   0.42040   0.01267  Uiso   1.00
H220   H     0.37140   0.24870   0.92040   0.01267  Uiso   1.00
H221   H     0.07960   0.87140   0.25130   0.01267  Uiso   1.00
H222   H     0.57960   0.62860   0.74870   0.01267  Uiso   1.00
H223   H     0.42040   0.12860   0.75130   0.01267  Uiso   1.00
H224   H     0.92040   0.37140   0.24870   0.01267  Uiso   1.00
H225   H     0.25130   0.07960   0.87140   0.01267  Uiso   1.00
H226   H     0.74870   0.57960   0.62860   0.01267  Uiso   1.00
H227   H     0.75130   0.42040   0.12860   0.01267  Uiso   1.00
H228   H     0.24870   0.92040   0.37140   0.01267  Uiso   1.00
H229   H     0.12860   0.74870   0.92040   0.01267  Uiso   1.00
H230   H     0.37140   0.25130   0.42040   0.01267  Uiso   1.00
H231   H     0.87140   0.24870   0.57960   0.01267  Uiso   1.00
H232   H     0.62860   0.75130   0.07960   0.01267  Uiso   1.00
H233   H     0.92040   0.12860   0.74870   0.01267  Uiso   1.00
H234   H     0.42040   0.37140   0.25130   0.01267  Uiso   1.00
H235   H     0.57960   0.87140   0.24870   0.01267  Uiso   1.00
H236   H     0.07960   0.62860   0.75130   0.01267  Uiso   1.00
H237   H     0.74870   0.92040   0.12860   0.01267  Uiso   1.00
H238   H     0.25130   0.42040   0.37140   0.01267  Uiso   1.00
H239   H     0.24870   0.57960   0.87140   0.01267  Uiso   1.00
H240   H     0.75130   0.07960   0.62860   0.01267  Uiso   1.00
C289   C     0.01193   0.21238   0.02456   0.01267  Uiso   1.00
C290   C     0.48807   0.78762   0.52456   0.01267  Uiso   1.00
C291   C     0.98807   0.71238   0.47544   0.01267  Uiso   1.00
C292   C     0.51193   0.28762   0.97544   0.01267  Uiso   1.00
C293   C     0.02456   0.01193   0.21238   0.01267  Uiso   1.00
C294   C     0.52456   0.48807   0.78762   0.01267  Uiso   1.00
C295   C     0.47544   0.98807   0.71238   0.01267  Uiso   1.00
C296   C     0.97544   0.51193   0.28762   0.01267  Uiso   1.00
C297   C     0.21238   0.02456   0.01193   0.01267  Uiso   1.00
C298   C     0.78762   0.52456   0.48807   0.01267  Uiso   1.00
C299   C     0.71238   0.47544   0.98807   0.01267  Uiso   1.00
C300   C     0.28762   0.97544   0.51193   0.01267  Uiso   1.00
C301   C     0.98807   0.78762   0.97544   0.01267  Uiso   1.00
C302   C     0.51193   0.21238   0.47544   0.01267  Uiso   1.00
C303   C     0.01193   0.28762   0.52456   0.01267  Uiso   1.00
C304   C     0.48807   0.71238   0.02456   0.01267  Uiso   1.00
C305   C     0.97544   0.98807   0.78762   0.01267  Uiso   1.00
C306   C     0.47544   0.51193   0.21238   0.01267  Uiso   1.00
C307   C     0.52456   0.01193   0.28762   0.01267  Uiso   1.00
C308   C     0.02456   0.48807   0.71238   0.01267  Uiso   1.00
C309   C     0.78762   0.97544   0.98807   0.01267  Uiso   1.00
C310   C     0.21238   0.47544   0.51193   0.01267  Uiso   1.00
C311   C     0.28762   0.52456   0.01193   0.01267  Uiso   1.00
C312   C     0.71238   0.02456   0.48807   0.01267  Uiso   1.00
C313   C     0.94449   0.22990   0.01660   0.01267  Uiso   1.00
C314   C     0.55551   0.77010   0.51660   0.01267  Uiso   1.00
C315   C     0.05551   0.72990   0.48340   0.01267  Uiso   1.00
C316   C     0.44449   0.27010   0.98340   0.01267  Uiso   1.00
C317   C     0.01660   0.94449   0.22990   0.01267  Uiso   1.00
C318   C     0.51660   0.55551   0.77010   0.01267  Uiso   1.00
C319   C     0.48340   0.05551   0.72990   0.01267  Uiso   1.00
C320   C     0.98340   0.44449   0.27010   0.01267  Uiso   1.00
C321   C     0.22990   0.01660   0.94449   0.01267  Uiso   1.00
C322   C     0.77010   0.51660   0.55551   0.01267  Uiso   1.00
C323   C     0.72990   0.48340   0.05551   0.01267  Uiso   1.00
C324   C     0.27010   0.98340   0.44449   0.01267  Uiso   1.00
C325   C     0.05551   0.77010   0.98340   0.01267  Uiso   1.00
C326   C     0.44449   0.22990   0.48340   0.01267  Uiso   1.00
C327   C     0.94449   0.27010   0.51660   0.01267  Uiso   1.00
C328   C     0.55551   0.72990   0.01660   0.01267  Uiso   1.00
C329   C     0.98340   0.05551   0.77010   0.01267  Uiso   1.00
C330   C     0.48340   0.44449   0.22990   0.01267  Uiso   1.00
C331   C     0.51660   0.94449   0.27010   0.01267  Uiso   1.00
C332   C     0.01660   0.55551   0.72990   0.01267  Uiso   1.00
C333   C     0.77010   0.98340   0.05551   0.01267  Uiso   1.00
C334   C     0.22990   0.48340   0.44449   0.01267  Uiso   1.00
C335   C     0.27010   0.51660   0.94449   0.01267  Uiso   1.00
C336   C     0.72990   0.01660   0.55551   0.01267  Uiso   1.00
C337   C     0.97236   0.26428   0.00027   0.01267  Uiso   1.00
C338   C     0.52764   0.73572   0.50027   0.01267  Uiso   1.00
C339   C     0.02764   0.76428   0.49973   0.01267  Uiso   1.00
C340   C     0.47236   0.23572   0.99973   0.01267  Uiso   1.00
C341   C     0.00027   0.97236   0.26428   0.01267  Uiso   1.00
C342   C     0.50027   0.52764   0.73572   0.01267  Uiso   1.00
C343   C     0.49973   0.02764   0.76428   0.01267  Uiso   1.00
C344   C     0.99973   0.47236   0.23572   0.01267  Uiso   1.00
C345   C     0.26428   0.00027   0.97236   0.01267  Uiso   1.00
C346   C     0.73572   0.50027   0.52764   0.01267  Uiso   1.00
C347   C     0.76428   0.49973   0.02764   0.01267  Uiso   1.00
C348   C     0.23572   0.99973   0.47236   0.01267  Uiso   1.00
C349   C     0.02764   0.73572   0.99973   0.01267  Uiso   1.00
C350   C     0.47236   0.26428   0.49973   0.01267  Uiso   1.00
C351   C     0.97236   0.23572   0.50027   0.01267  Uiso   1.00
C352   C     0.52764   0.76428   0.00027   0.01267  Uiso   1.00
C353   C     0.99973   0.02764   0.73572   0.01267  Uiso   1.00
C354   C     0.49973   0.47236   0.26428   0.01267  Uiso   1.00
C355   C     0.50027   0.97236   0.23572   0.01267  Uiso   1.00
C356   C     0.00027   0.52764   0.76428   0.01267  Uiso   1.00
C357   C     0.73572   0.99973   0.02764   0.01267  Uiso   1.00
C358   C     0.26428   0.49973   0.47236   0.01267  Uiso   1.00
C359   C     0.23572   0.50027   0.97236   0.01267  Uiso   1.00
C360   C     0.76428   0.00027   0.52764   0.01267  Uiso   1.00
C361   C     0.93259   0.28903   0.05368   0.01267  Uiso   1.00
C362   C     0.56741   0.71097   0.55368   0.01267  Uiso   1.00
C363   C     0.06741   0.78903   0.44632   0.01267  Uiso   1.00
C364   C     0.43259   0.21097   0.94632   0.01267  Uiso   1.00
C365   C     0.05368   0.93259   0.28903   0.01267  Uiso   1.00
C366   C     0.55368   0.56741   0.71097   0.01267  Uiso   1.00
C367   C     0.44632   0.06741   0.78903   0.01267  Uiso   1.00
C368   C     0.94632   0.43259   0.21097   0.01267  Uiso   1.00
C369   C     0.28903   0.05368   0.93259   0.01267  Uiso   1.00
C370   C     0.71097   0.55368   0.56741   0.01267  Uiso   1.00
C371   C     0.78903   0.44632   0.06741   0.01267  Uiso   1.00
C372   C     0.21097   0.94632   0.43259   0.01267  Uiso   1.00
C373   C     0.06741   0.71097   0.94632   0.01267  Uiso   1.00
C374   C     0.43259   0.28903   0.44632   0.01267  Uiso   1.00
C375   C     0.93259   0.21097   0.55368   0.01267  Uiso   1.00
C376   C     0.56741   0.78903   0.05368   0.01267  Uiso   1.00
C377   C     0.94632   0.06741   0.71097   0.01267  Uiso   1.00
C378   C     0.44632   0.43259   0.28903   0.01267  Uiso   1.00
C379   C     0.55368   0.93259   0.21097   0.01267  Uiso   1.00
C380   C     0.05368   0.56741   0.78903   0.01267  Uiso   1.00
C381   C     0.71097   0.94632   0.06741   0.01267  Uiso   1.00
C382   C     0.28903   0.44632   0.43259   0.01267  Uiso   1.00
C383   C     0.21097   0.55368   0.93259   0.01267  Uiso   1.00
C384   C     0.78903   0.05368   0.56741   0.01267  Uiso   1.00
C385   C     0.04909   0.26849   0.99735   0.01267  Uiso   1.00
C386   C     0.45091   0.73151   0.49735   0.01267  Uiso   1.00
C387   C     0.95091   0.76849   0.50265   0.01267  Uiso   1.00
C388   C     0.54909   0.23151   0.00265   0.01267  Uiso   1.00
C389   C     0.99735   0.04909   0.26849   0.01267  Uiso   1.00
C390   C     0.49735   0.45091   0.73151   0.01267  Uiso   1.00
C391   C     0.50265   0.95091   0.76849   0.01267  Uiso   1.00
C392   C     0.00265   0.54909   0.23151   0.01267  Uiso   1.00
C393   C     0.26849   0.99735   0.04909   0.01267  Uiso   1.00
C394   C     0.73151   0.49735   0.45091   0.01267  Uiso   1.00
C395   C     0.76849   0.50265   0.95091   0.01267  Uiso   1.00
C396   C     0.23151   0.00265   0.54909   0.01267  Uiso   1.00
C397   C     0.95091   0.73151   0.00265   0.01267  Uiso   1.00
C398   C     0.54909   0.26849   0.50265   0.01267  Uiso   1.00
C399   C     0.04909   0.23151   0.49735   0.01267  Uiso   1.00
C400   C     0.45091   0.76849   0.99735   0.01267  Uiso   1.00
C401   C     0.00265   0.95091   0.73151   0.01267  Uiso   1.00
C402   C     0.50265   0.54909   0.26849   0.01267  Uiso   1.00
C403   C     0.49735   0.04909   0.23151   0.01267  Uiso   1.00
C404   C     0.99735   0.45091   0.76849   0.01267  Uiso   1.00
C405   C     0.73151   0.00265   0.95091   0.01267  Uiso   1.00
C406   C     0.26849   0.50265   0.54909   0.01267  Uiso   1.00
C407   C     0.23151   0.49735   0.04909   0.01267  Uiso   1.00
C408   C     0.76849   0.99735   0.45091   0.01267  Uiso   1.00
H241   H     0.04550   0.28380   0.97290   0.01267  Uiso   1.00
H242   H     0.45450   0.71620   0.47290   0.01267  Uiso   1.00
H243   H     0.95450   0.78380   0.52710   0.01267  Uiso   1.00
H244   H     0.54550   0.21620   0.02710   0.01267  Uiso   1.00
H245   H     0.97290   0.04550   0.28380   0.01267  Uiso   1.00
H246   H     0.47290   0.45450   0.71620   0.01267  Uiso   1.00
H247   H     0.52710   0.95450   0.78380   0.01267  Uiso   1.00
H248   H     0.02710   0.54550   0.21620   0.01267  Uiso   1.00
H249   H     0.28380   0.97290   0.04550   0.01267  Uiso   1.00
H250   H     0.71620   0.47290   0.45450   0.01267  Uiso   1.00
H251   H     0.78380   0.52710   0.95450   0.01267  Uiso   1.00
H252   H     0.21620   0.02710   0.54550   0.01267  Uiso   1.00
H253   H     0.95450   0.71620   0.02710   0.01267  Uiso   1.00
H254   H     0.54550   0.28380   0.52710   0.01267  Uiso   1.00
H255   H     0.04550   0.21620   0.47290   0.01267  Uiso   1.00
H256   H     0.45450   0.78380   0.97290   0.01267  Uiso   1.00
H257   H     0.02710   0.95450   0.71620   0.01267  Uiso   1.00
H258   H     0.52710   0.54550   0.28380   0.01267  Uiso   1.00
H259   H     0.47290   0.04550   0.21620   0.01267  Uiso   1.00
H260   H     0.97290   0.45450   0.78380   0.01267  Uiso   1.00
H261   H     0.71620   0.02710   0.95450   0.01267  Uiso   1.00
H262   H     0.28380   0.52710   0.54550   0.01267  Uiso   1.00
H263   H     0.21620   0.47290   0.04550   0.01267  Uiso   1.00
H264   H     0.78380   0.97290   0.45450   0.01267  Uiso   1.00
H265   H     0.06960   0.24840   0.99230   0.01267  Uiso   1.00
H266   H     0.43040   0.75160   0.49230   0.01267  Uiso   1.00
H267   H     0.93040   0.74840   0.50770   0.01267  Uiso   1.00
H268   H     0.56960   0.25160   0.00770   0.01267  Uiso   1.00
H269   H     0.99230   0.06960   0.24840   0.01267  Uiso   1.00
H270   H     0.49230   0.43040   0.75160   0.01267  Uiso   1.00
H271   H     0.50770   0.93040   0.74840   0.01267  Uiso   1.00
H272   H     0.00770   0.56960   0.25160   0.01267  Uiso   1.00
H273   H     0.24840   0.99230   0.06960   0.01267  Uiso   1.00
H274   H     0.75160   0.49230   0.43040   0.01267  Uiso   1.00
H275   H     0.74840   0.50770   0.93040   0.01267  Uiso   1.00
H276   H     0.25160   0.00770   0.56960   0.01267  Uiso   1.00
H277   H     0.93040   0.75160   0.00770   0.01267  Uiso   1.00
H278   H     0.56960   0.24840   0.50770   0.01267  Uiso   1.00
H279   H     0.06960   0.25160   0.49230   0.01267  Uiso   1.00
H280   H     0.43040   0.74840   0.99230   0.01267  Uiso   1.00
H281   H     0.00770   0.93040   0.75160   0.01267  Uiso   1.00
H282   H     0.50770   0.56960   0.24840   0.01267  Uiso   1.00
H283   H     0.49230   0.06960   0.25160   0.01267  Uiso   1.00
H284   H     0.99230   0.43040   0.74840   0.01267  Uiso   1.00
H285   H     0.75160   0.00770   0.93040   0.01267  Uiso   1.00
H286   H     0.24840   0.50770   0.56960   0.01267  Uiso   1.00
H287   H     0.25160   0.49230   0.06960   0.01267  Uiso   1.00
H288   H     0.74840   0.99230   0.43040   0.01267  Uiso   1.00
C409   C     0.97711   0.33852   0.02305   0.01267  Uiso   1.00
C410   C     0.52289   0.66148   0.52305   0.01267  Uiso   1.00
C411   C     0.02289   0.83852   0.47695   0.01267  Uiso   1.00
C412   C     0.47711   0.16148   0.97695   0.01267  Uiso   1.00
C413   C     0.02305   0.97711   0.33852   0.01267  Uiso   1.00
C414   C     0.52305   0.52289   0.66148   0.01267  Uiso   1.00
C415   C     0.47695   0.02289   0.83852   0.01267  Uiso   1.00
C416   C     0.97695   0.47711   0.16148   0.01267  Uiso   1.00
C417   C     0.33852   0.02305   0.97711   0.01267  Uiso   1.00
C418   C     0.66148   0.52305   0.52289   0.01267  Uiso   1.00
C419   C     0.83852   0.47695   0.02289   0.01267  Uiso   1.00
C420   C     0.16148   0.97695   0.47711   0.01267  Uiso   1.00
C421   C     0.02289   0.66148   0.97695   0.01267  Uiso   1.00
C422   C     0.47711   0.33852   0.47695   0.01267  Uiso   1.00
C423   C     0.97711   0.16148   0.52305   0.01267  Uiso   1.00
C424   C     0.52289   0.83852   0.02305   0.01267  Uiso   1.00
C425   C     0.97695   0.02289   0.66148   0.01267  Uiso   1.00
C426   C     0.47695   0.47711   0.33852   0.01267  Uiso   1.00
C427   C     0.52305   0.97711   0.16148   0.01267  Uiso   1.00
C428   C     0.02305   0.52289   0.83852   0.01267  Uiso   1.00
C429   C     0.66148   0.97695   0.02289   0.01267  Uiso   1.00
C430   C     0.33852   0.47695   0.47711   0.01267  Uiso   1.00
C431   C     0.16148   0.52305   0.97711   0.01267  Uiso   1.00
C432   C     0.83852   0.02305   0.52289   0.01267  Uiso   1.00
H289   H     0.98260   0.34410   0.99500   0.01267  Uiso   1.00
H290   H     0.51740   0.65590   0.49500   0.01267  Uiso   1.00
H291   H     0.01740   0.84410   0.50500   0.01267  Uiso   1.00
H292   H     0.48260   0.15590   0.00500   0.01267  Uiso   1.00
H293   H     0.99500   0.98260   0.34410   0.01267  Uiso   1.00
H294   H     0.49500   0.51740   0.65590   0.01267  Uiso   1.00
H295   H     0.50500   0.01740   0.84410   0.01267  Uiso   1.00
H296   H     0.00500   0.48260   0.15590   0.01267  Uiso   1.00
H297   H     0.34410   0.99500   0.98260   0.01267  Uiso   1.00
H298   H     0.65590   0.49500   0.51740   0.01267  Uiso   1.00
H299   H     0.84410   0.50500   0.01740   0.01267  Uiso   1.00
H300   H     0.15590   0.00500   0.48260   0.01267  Uiso   1.00
H301   H     0.01740   0.65590   0.00500   0.01267  Uiso   1.00
H302   H     0.48260   0.34410   0.50500   0.01267  Uiso   1.00
H303   H     0.98260   0.15590   0.49500   0.01267  Uiso   1.00
H304   H     0.51740   0.84410   0.99500   0.01267  Uiso   1.00
H305   H     0.00500   0.01740   0.65590   0.01267  Uiso   1.00
H306   H     0.50500   0.48260   0.34410   0.01267  Uiso   1.00
H307   H     0.49500   0.98260   0.15590   0.01267  Uiso   1.00
H308   H     0.99500   0.51740   0.84410   0.01267  Uiso   1.00
H309   H     0.65590   0.00500   0.01740   0.01267  Uiso   1.00
H310   H     0.34410   0.50500   0.48260   0.01267  Uiso   1.00
H311   H     0.15590   0.49500   0.98260   0.01267  Uiso   1.00
H312   H     0.84410   0.99500   0.51740   0.01267  Uiso   1.00
H313   H     0.95620   0.35680   0.03180   0.01267  Uiso   1.00
H314   H     0.54380   0.64320   0.53180   0.01267  Uiso   1.00
H315   H     0.04380   0.85680   0.46820   0.01267  Uiso   1.00
H316   H     0.45620   0.14320   0.96820   0.01267  Uiso   1.00
H317   H     0.03180   0.95620   0.35680   0.01267  Uiso   1.00
H318   H     0.53180   0.54380   0.64320   0.01267  Uiso   1.00
H319   H     0.46820   0.04380   0.85680   0.01267  Uiso   1.00
H320   H     0.96820   0.45620   0.14320   0.01267  Uiso   1.00
H321   H     0.35680   0.03180   0.95620   0.01267  Uiso   1.00
H322   H     0.64320   0.53180   0.54380   0.01267  Uiso   1.00
H323   H     0.85680   0.46820   0.04380   0.01267  Uiso   1.00
H324   H     0.14320   0.96820   0.45620   0.01267  Uiso   1.00
H325   H     0.04380   0.64320   0.96820   0.01267  Uiso   1.00
H326   H     0.45620   0.35680   0.46820   0.01267  Uiso   1.00
H327   H     0.95620   0.14320   0.53180   0.01267  Uiso   1.00
H328   H     0.54380   0.85680   0.03180   0.01267  Uiso   1.00
H329   H     0.96820   0.04380   0.64320   0.01267  Uiso   1.00
H330   H     0.46820   0.45620   0.35680   0.01267  Uiso   1.00
H331   H     0.53180   0.95620   0.14320   0.01267  Uiso   1.00
H332   H     0.03180   0.54380   0.85680   0.01267  Uiso   1.00
H333   H     0.64320   0.96820   0.04380   0.01267  Uiso   1.00
H334   H     0.35680   0.46820   0.45620   0.01267  Uiso   1.00
H335   H     0.14320   0.53180   0.95620   0.01267  Uiso   1.00
H336   H     0.85680   0.03180   0.54380   0.01267  Uiso   1.00
C433   C     0.09194   0.28444   0.05536   0.01267  Uiso   1.00
C434   C     0.40806   0.71556   0.55536   0.01267  Uiso   1.00
C435   C     0.90806   0.78444   0.44464   0.01267  Uiso   1.00
C436   C     0.59194   0.21556   0.94464   0.01267  Uiso   1.00
C437   C     0.05536   0.09194   0.28444   0.01267  Uiso   1.00
C438   C     0.55536   0.40806   0.71556   0.01267  Uiso   1.00
C439   C     0.44464   0.90806   0.78444   0.01267  Uiso   1.00
C440   C     0.94464   0.59194   0.21556   0.01267  Uiso   1.00
C441   C     0.28444   0.05536   0.09194   0.01267  Uiso   1.00
C442   C     0.71556   0.55536   0.40806   0.01267  Uiso   1.00
C443   C     0.78444   0.44464   0.90806   0.01267  Uiso   1.00
C444   C     0.21556   0.94464   0.59194   0.01267  Uiso   1.00
C445   C     0.90806   0.71556   0.94464   0.01267  Uiso   1.00
C446   C     0.59194   0.28444   0.44464   0.01267  Uiso   1.00
C447   C     0.09194   0.21556   0.55536   0.01267  Uiso   1.00
C448   C     0.40806   0.78444   0.05536   0.01267  Uiso   1.00
C449   C     0.94464   0.90806   0.71556   0.01267  Uiso   1.00
C450   C     0.44464   0.59194   0.28444   0.01267  Uiso   1.00
C451   C     0.55536   0.09194   0.21556   0.01267  Uiso   1.00
C452   C     0.05536   0.40806   0.78444   0.01267  Uiso   1.00
C453   C     0.71556   0.94464   0.90806   0.01267  Uiso   1.00
C454   C     0.28444   0.44464   0.59194   0.01267  Uiso   1.00
C455   C     0.21556   0.55536   0.09194   0.01267  Uiso   1.00
C456   C     0.78444   0.05536   0.40806   0.01267  Uiso   1.00
C457   C     0.05292   0.33885   0.03293   0.01267  Uiso   1.00
C458   C     0.44708   0.66115   0.53293   0.01267  Uiso   1.00
C459   C     0.94708   0.83885   0.46707   0.01267  Uiso   1.00
C460   C     0.55292   0.16115   0.96707   0.01267  Uiso   1.00
C461   C     0.03293   0.05292   0.33885   0.01267  Uiso   1.00
C462   C     0.53293   0.44708   0.66115   0.01267  Uiso   1.00
C463   C     0.46707   0.94708   0.83885   0.01267  Uiso   1.00
C464   C     0.96707   0.55292   0.16115   0.01267  Uiso   1.00
C465   C     0.33885   0.03293   0.05292   0.01267  Uiso   1.00
C466   C     0.66115   0.53293   0.44708   0.01267  Uiso   1.00
C467   C     0.83885   0.46707   0.94708   0.01267  Uiso   1.00
C468   C     0.16115   0.96707   0.55292   0.01267  Uiso   1.00
C469   C     0.94708   0.66115   0.96707   0.01267  Uiso   1.00
C470   C     0.55292   0.33885   0.46707   0.01267  Uiso   1.00
C471   C     0.05292   0.16115   0.53293   0.01267  Uiso   1.00
C472   C     0.44708   0.83885   0.03293   0.01267  Uiso   1.00
C473   C     0.96707   0.94708   0.66115   0.01267  Uiso   1.00
C474   C     0.46707   0.55292   0.33885   0.01267  Uiso   1.00
C475   C     0.53293   0.05292   0.16115   0.01267  Uiso   1.00
C476   C     0.03293   0.44708   0.83885   0.01267  Uiso   1.00
C477   C     0.66115   0.96707   0.94708   0.01267  Uiso   1.00
C478   C     0.33885   0.46707   0.55292   0.01267  Uiso   1.00
C479   C     0.16115   0.53293   0.05292   0.01267  Uiso   1.00
C480   C     0.83885   0.03293   0.44708   0.01267  Uiso   1.00
H337   H     0.05920   0.35350   0.00820   0.01267  Uiso   1.00
H338   H     0.44080   0.64650   0.50820   0.01267  Uiso   1.00
H339   H     0.94080   0.85350   0.49180   0.01267  Uiso   1.00
H340   H     0.55920   0.14650   0.99180   0.01267  Uiso   1.00
H341   H     0.00820   0.05920   0.35350   0.01267  Uiso   1.00
H342   H     0.50820   0.44080   0.64650   0.01267  Uiso   1.00
H343   H     0.49180   0.94080   0.85350   0.01267  Uiso   1.00
H344   H     0.99180   0.55920   0.14650   0.01267  Uiso   1.00
H345   H     0.35350   0.00820   0.05920   0.01267  Uiso   1.00
H346   H     0.64650   0.50820   0.44080   0.01267  Uiso   1.00
H347   H     0.85350   0.49180   0.94080   0.01267  Uiso   1.00
H348   H     0.14650   0.99180   0.55920   0.01267  Uiso   1.00
H349   H     0.94080   0.64650   0.99180   0.01267  Uiso   1.00
H350   H     0.55920   0.35350   0.49180   0.01267  Uiso   1.00
H351   H     0.05920   0.14650   0.50820   0.01267  Uiso   1.00
H352   H     0.44080   0.85350   0.00820   0.01267  Uiso   1.00
H353   H     0.99180   0.94080   0.64650   0.01267  Uiso   1.00
H354   H     0.49180   0.55920   0.35350   0.01267  Uiso   1.00
H355   H     0.50820   0.05920   0.14650   0.01267  Uiso   1.00
H356   H     0.00820   0.44080   0.85350   0.01267  Uiso   1.00
H357   H     0.64650   0.99180   0.94080   0.01267  Uiso   1.00
H358   H     0.35350   0.49180   0.55920   0.01267  Uiso   1.00
H359   H     0.14650   0.50820   0.05920   0.01267  Uiso   1.00
H360   H     0.85350   0.00820   0.44080   0.01267  Uiso   1.00
C481   C     0.07873   0.35348   0.06805   0.01267  Uiso   1.00
C482   C     0.42127   0.64652   0.56805   0.01267  Uiso   1.00
C483   C     0.92127   0.85348   0.43195   0.01267  Uiso   1.00
C484   C     0.57873   0.14652   0.93195   0.01267  Uiso   1.00
C485   C     0.06805   0.07873   0.35348   0.01267  Uiso   1.00
C486   C     0.56805   0.42127   0.64652   0.01267  Uiso   1.00
C487   C     0.43195   0.92127   0.85348   0.01267  Uiso   1.00
C488   C     0.93195   0.57873   0.14652   0.01267  Uiso   1.00
C489   C     0.35348   0.06805   0.07873   0.01267  Uiso   1.00
C490   C     0.64652   0.56805   0.42127   0.01267  Uiso   1.00
C491   C     0.85348   0.43195   0.92127   0.01267  Uiso   1.00
C492   C     0.14652   0.93195   0.57873   0.01267  Uiso   1.00
C493   C     0.92127   0.64652   0.93195   0.01267  Uiso   1.00
C494   C     0.57873   0.35348   0.43195   0.01267  Uiso   1.00
C495   C     0.07873   0.14652   0.56805   0.01267  Uiso   1.00
C496   C     0.42127   0.85348   0.06805   0.01267  Uiso   1.00
C497   C     0.93195   0.92127   0.64652   0.01267  Uiso   1.00
C498   C     0.43195   0.57873   0.35348   0.01267  Uiso   1.00
C499   C     0.56805   0.07873   0.14652   0.01267  Uiso   1.00
C500   C     0.06805   0.42127   0.85348   0.01267  Uiso   1.00
C501   C     0.64652   0.93195   0.92127   0.01267  Uiso   1.00
C502   C     0.35348   0.43195   0.57873   0.01267  Uiso   1.00
C503   C     0.14652   0.56805   0.07873   0.01267  Uiso   1.00
C504   C     0.85348   0.06805   0.42127   0.01267  Uiso   1.00
H361   H     0.09610   0.37580   0.06020   0.01267  Uiso   1.00
H362   H     0.40390   0.62420   0.56020   0.01267  Uiso   1.00
H363   H     0.90390   0.87580   0.43980   0.01267  Uiso   1.00
H364   H     0.59610   0.12420   0.93980   0.01267  Uiso   1.00
H365   H     0.06020   0.09610   0.37580   0.01267  Uiso   1.00
H366   H     0.56020   0.40390   0.62420   0.01267  Uiso   1.00
H367   H     0.43980   0.90390   0.87580   0.01267  Uiso   1.00
H368   H     0.93980   0.59610   0.12420   0.01267  Uiso   1.00
H369   H     0.37580   0.06020   0.09610   0.01267  Uiso   1.00
H370   H     0.62420   0.56020   0.40390   0.01267  Uiso   1.00
H371   H     0.87580   0.43980   0.90390   0.01267  Uiso   1.00
H372   H     0.12420   0.93980   0.59610   0.01267  Uiso   1.00
H373   H     0.90390   0.62420   0.93980   0.01267  Uiso   1.00
H374   H     0.59610   0.37580   0.43980   0.01267  Uiso   1.00
H375   H     0.09610   0.12420   0.56020   0.01267  Uiso   1.00
H376   H     0.40390   0.87580   0.06020   0.01267  Uiso   1.00
H377   H     0.93980   0.90390   0.62420   0.01267  Uiso   1.00
H378   H     0.43980   0.59610   0.37580   0.01267  Uiso   1.00
H379   H     0.56020   0.09610   0.12420   0.01267  Uiso   1.00
H380   H     0.06020   0.40390   0.87580   0.01267  Uiso   1.00
H381   H     0.62420   0.93980   0.90390   0.01267  Uiso   1.00
H382   H     0.37580   0.43980   0.59610   0.01267  Uiso   1.00
H383   H     0.12420   0.56020   0.09610   0.01267  Uiso   1.00
H384   H     0.87580   0.06020   0.40390   0.01267  Uiso   1.00
C505   C     0.01136   0.36334   0.08361   0.01267  Uiso   1.00
C506   C     0.48864   0.63666   0.58361   0.01267  Uiso   1.00
C507   C     0.98864   0.86334   0.41639   0.01267  Uiso   1.00
C508   C     0.51136   0.13666   0.91639   0.01267  Uiso   1.00
C509   C     0.08361   0.01136   0.36334   0.01267  Uiso   1.00
C510   C     0.58361   0.48864   0.63666   0.01267  Uiso   1.00
C511   C     0.41639   0.98864   0.86334   0.01267  Uiso   1.00
C512   C     0.91639   0.51136   0.13666   0.01267  Uiso   1.00
C513   C     0.36334   0.08361   0.01136   0.01267  Uiso   1.00
C514   C     0.63666   0.58361   0.48864   0.01267  Uiso   1.00
C515   C     0.86334   0.41639   0.98864   0.01267  Uiso   1.00
C516   C     0.13666   0.91639   0.51136   0.01267  Uiso   1.00
C517   C     0.98864   0.63666   0.91639   0.01267  Uiso   1.00
C518   C     0.51136   0.36334   0.41639   0.01267  Uiso   1.00
C519   C     0.01136   0.13666   0.58361   0.01267  Uiso   1.00
C520   C     0.48864   0.86334   0.08361   0.01267  Uiso   1.00
C521   C     0.91639   0.98864   0.63666   0.01267  Uiso   1.00
C522   C     0.41639   0.51136   0.36334   0.01267  Uiso   1.00
C523   C     0.58361   0.01136   0.13666   0.01267  Uiso   1.00
C524   C     0.08361   0.48864   0.86334   0.01267  Uiso   1.00
C525   C     0.63666   0.91639   0.98864   0.01267  Uiso   1.00
C526   C     0.36334   0.41639   0.51136   0.01267  Uiso   1.00
C527   C     0.13666   0.58361   0.01136   0.01267  Uiso   1.00
C528   C     0.86334   0.08361   0.48864   0.01267  Uiso   1.00
C529   C     0.13162   0.31732   0.10915   0.01267  Uiso   1.00
C530   C     0.36838   0.68268   0.60915   0.01267  Uiso   1.00
C531   C     0.86838   0.81732   0.39085   0.01267  Uiso   1.00
C532   C     0.63162   0.18268   0.89085   0.01267  Uiso   1.00
C533   C     0.10915   0.13162   0.31732   0.01267  Uiso   1.00
C534   C     0.60915   0.36838   0.68268   0.01267  Uiso   1.00
C535   C     0.39085   0.86838   0.81732   0.01267  Uiso   1.00
C536   C     0.89085   0.63162   0.18268   0.01267  Uiso   1.00
C537   C     0.31732   0.10915   0.13162   0.01267  Uiso   1.00
C538   C     0.68268   0.60915   0.36838   0.01267  Uiso   1.00
C539   C     0.81732   0.39085   0.86838   0.01267  Uiso   1.00
C540   C     0.18268   0.89085   0.63162   0.01267  Uiso   1.00
C541   C     0.86838   0.68268   0.89085   0.01267  Uiso   1.00
C542   C     0.63162   0.31732   0.39085   0.01267  Uiso   1.00
C543   C     0.13162   0.18268   0.60915   0.01267  Uiso   1.00
C544   C     0.36838   0.81732   0.10915   0.01267  Uiso   1.00
C545   C     0.89085   0.86838   0.68268   0.01267  Uiso   1.00
C546   C     0.39085   0.63162   0.31732   0.01267  Uiso   1.00
C547   C     0.60915   0.13162   0.18268   0.01267  Uiso   1.00
C548   C     0.10915   0.36838   0.81732   0.01267  Uiso   1.00
C549   C     0.68268   0.89085   0.86838   0.01267  Uiso   1.00
C550   C     0.31732   0.39085   0.63162   0.01267  Uiso   1.00
C551   C     0.18268   0.60915   0.13162   0.01267  Uiso   1.00
C552   C     0.81732   0.10915   0.36838   0.01267  Uiso   1.00
H385   H     0.14500   0.34320   0.10930   0.01267  Uiso   1.00
H386   H     0.35500   0.65680   0.60930   0.01267  Uiso   1.00
H387   H     0.85500   0.84320   0.39070   0.01267  Uiso   1.00
H388   H     0.64500   0.15680   0.89070   0.01267  Uiso   1.00
H389   H     0.10930   0.14500   0.34320   0.01267  Uiso   1.00
H390   H     0.60930   0.35500   0.65680   0.01267  Uiso   1.00
H391   H     0.39070   0.85500   0.84320   0.01267  Uiso   1.00
H392   H     0.89070   0.64500   0.15680   0.01267  Uiso   1.00
H393   H     0.34320   0.10930   0.14500   0.01267  Uiso   1.00
H394   H     0.65680   0.60930   0.35500   0.01267  Uiso   1.00
H395   H     0.84320   0.39070   0.85500   0.01267  Uiso   1.00
H396   H     0.15680   0.89070   0.64500   0.01267  Uiso   1.00
H397   H     0.85500   0.65680   0.89070   0.01267  Uiso   1.00
H398   H     0.64500   0.34320   0.39070   0.01267  Uiso   1.00
H399   H     0.14500   0.15680   0.60930   0.01267  Uiso   1.00
H400   H     0.35500   0.84320   0.10930   0.01267  Uiso   1.00
H401   H     0.89070   0.85500   0.65680   0.01267  Uiso   1.00
H402   H     0.39070   0.64500   0.34320   0.01267  Uiso   1.00
H403   H     0.60930   0.14500   0.15680   0.01267  Uiso   1.00
H404   H     0.10930   0.35500   0.84320   0.01267  Uiso   1.00
H405   H     0.65680   0.89070   0.85500   0.01267  Uiso   1.00
H406   H     0.34320   0.39070   0.64500   0.01267  Uiso   1.00
H407   H     0.15680   0.60930   0.14500   0.01267  Uiso   1.00
H408   H     0.84320   0.10930   0.35500   0.01267  Uiso   1.00
H409   H     0.15150   0.29720   0.10240   0.01267  Uiso   1.00
H410   H     0.34850   0.70280   0.60240   0.01267  Uiso   1.00
H411   H     0.84850   0.79720   0.39760   0.01267  Uiso   1.00
H412   H     0.65150   0.20280   0.89760   0.01267  Uiso   1.00
H413   H     0.10240   0.15150   0.29720   0.01267  Uiso   1.00
H414   H     0.60240   0.34850   0.70280   0.01267  Uiso   1.00
H415   H     0.39760   0.84850   0.79720   0.01267  Uiso   1.00
H416   H     0.89760   0.65150   0.20280   0.01267  Uiso   1.00
H417   H     0.29720   0.10240   0.15150   0.01267  Uiso   1.00
H418   H     0.70280   0.60240   0.34850   0.01267  Uiso   1.00
H419   H     0.79720   0.39760   0.84850   0.01267  Uiso   1.00
H420   H     0.20280   0.89760   0.65150   0.01267  Uiso   1.00
H421   H     0.84850   0.70280   0.89760   0.01267  Uiso   1.00
H422   H     0.65150   0.29720   0.39760   0.01267  Uiso   1.00
H423   H     0.15150   0.20280   0.60240   0.01267  Uiso   1.00
H424   H     0.34850   0.79720   0.10240   0.01267  Uiso   1.00
H425   H     0.89760   0.84850   0.70280   0.01267  Uiso   1.00
H426   H     0.39760   0.65150   0.29720   0.01267  Uiso   1.00
H427   H     0.60240   0.15150   0.20280   0.01267  Uiso   1.00
H428   H     0.10240   0.34850   0.79720   0.01267  Uiso   1.00
H429   H     0.70280   0.89760   0.84850   0.01267  Uiso   1.00
H430   H     0.29720   0.39760   0.65150   0.01267  Uiso   1.00
H431   H     0.20280   0.60240   0.15150   0.01267  Uiso   1.00
H432   H     0.79720   0.10240   0.34850   0.01267  Uiso   1.00
C553   C     0.05899   0.38575   0.13397   0.01267  Uiso   1.00
C554   C     0.44101   0.61425   0.63397   0.01267  Uiso   1.00
C555   C     0.94101   0.88575   0.36603   0.01267  Uiso   1.00
C556   C     0.55899   0.11425   0.86603   0.01267  Uiso   1.00
C557   C     0.13397   0.05899   0.38575   0.01267  Uiso   1.00
C558   C     0.63397   0.44101   0.61425   0.01267  Uiso   1.00
C559   C     0.36603   0.94101   0.88575   0.01267  Uiso   1.00
C560   C     0.86603   0.55899   0.11425   0.01267  Uiso   1.00
C561   C     0.38575   0.13397   0.05899   0.01267  Uiso   1.00
C562   C     0.61425   0.63397   0.44101   0.01267  Uiso   1.00
C563   C     0.88575   0.36603   0.94101   0.01267  Uiso   1.00
C564   C     0.11425   0.86603   0.55899   0.01267  Uiso   1.00
C565   C     0.94101   0.61425   0.86603   0.01267  Uiso   1.00
C566   C     0.55899   0.38575   0.36603   0.01267  Uiso   1.00
C567   C     0.05899   0.11425   0.63397   0.01267  Uiso   1.00
C568   C     0.44101   0.88575   0.13397   0.01267  Uiso   1.00
C569   C     0.86603   0.94101   0.61425   0.01267  Uiso   1.00
C570   C     0.36603   0.55899   0.38575   0.01267  Uiso   1.00
C571   C     0.63397   0.05899   0.11425   0.01267  Uiso   1.00
C572   C     0.13397   0.44101   0.88575   0.01267  Uiso   1.00
C573   C     0.61425   0.86603   0.94101   0.01267  Uiso   1.00
C574   C     0.38575   0.36603   0.55899   0.01267  Uiso   1.00
C575   C     0.11425   0.63397   0.05899   0.01267  Uiso   1.00
C576   C     0.88575   0.13397   0.44101   0.01267  Uiso   1.00
H433   H     0.03700   0.40370   0.14040   0.01267  Uiso   1.00
H434   H     0.46300   0.59630   0.64040   0.01267  Uiso   1.00
H435   H     0.96300   0.90370   0.35960   0.01267  Uiso   1.00
H436   H     0.53700   0.09630   0.85960   0.01267  Uiso   1.00
H437   H     0.14040   0.03700   0.40370   0.01267  Uiso   1.00
H438   H     0.64040   0.46300   0.59630   0.01267  Uiso   1.00
H439   H     0.35960   0.96300   0.90370   0.01267  Uiso   1.00
H440   H     0.85960   0.53700   0.09630   0.01267  Uiso   1.00
H441   H     0.40370   0.14040   0.03700   0.01267  Uiso   1.00
H442   H     0.59630   0.64040   0.46300   0.01267  Uiso   1.00
H443   H     0.90370   0.35960   0.96300   0.01267  Uiso   1.00
H444   H     0.09630   0.85960   0.53700   0.01267  Uiso   1.00
H445   H     0.96300   0.59630   0.85960   0.01267  Uiso   1.00
H446   H     0.53700   0.40370   0.35960   0.01267  Uiso   1.00
H447   H     0.03700   0.09630   0.64040   0.01267  Uiso   1.00
H448   H     0.46300   0.90370   0.14040   0.01267  Uiso   1.00
H449   H     0.85960   0.96300   0.59630   0.01267  Uiso   1.00
H450   H     0.35960   0.53700   0.40370   0.01267  Uiso   1.00
H451   H     0.64040   0.03700   0.09630   0.01267  Uiso   1.00
H452   H     0.14040   0.46300   0.90370   0.01267  Uiso   1.00
H453   H     0.59630   0.85960   0.96300   0.01267  Uiso   1.00
H454   H     0.40370   0.35960   0.53700   0.01267  Uiso   1.00
H455   H     0.09630   0.64040   0.03700   0.01267  Uiso   1.00
H456   H     0.90370   0.14040   0.46300   0.01267  Uiso   1.00
H457   H     0.08290   0.40200   0.13010   0.01267  Uiso   1.00
H458   H     0.41710   0.59800   0.63010   0.01267  Uiso   1.00
H459   H     0.91710   0.90200   0.36990   0.01267  Uiso   1.00
H460   H     0.58290   0.09800   0.86990   0.01267  Uiso   1.00
H461   H     0.13010   0.08290   0.40200   0.01267  Uiso   1.00
H462   H     0.63010   0.41710   0.59800   0.01267  Uiso   1.00
H463   H     0.36990   0.91710   0.90200   0.01267  Uiso   1.00
H464   H     0.86990   0.58290   0.09800   0.01267  Uiso   1.00
H465   H     0.40200   0.13010   0.08290   0.01267  Uiso   1.00
H466   H     0.59800   0.63010   0.41710   0.01267  Uiso   1.00
H467   H     0.90200   0.36990   0.91710   0.01267  Uiso   1.00
H468   H     0.09800   0.86990   0.58290   0.01267  Uiso   1.00
H469   H     0.91710   0.59800   0.86990   0.01267  Uiso   1.00
H470   H     0.58290   0.40200   0.36990   0.01267  Uiso   1.00
H471   H     0.08290   0.09800   0.63010   0.01267  Uiso   1.00
H472   H     0.41710   0.90200   0.13010   0.01267  Uiso   1.00
H473   H     0.86990   0.91710   0.59800   0.01267  Uiso   1.00
H474   H     0.36990   0.58290   0.40200   0.01267  Uiso   1.00
H475   H     0.63010   0.08290   0.09800   0.01267  Uiso   1.00
H476   H     0.13010   0.41710   0.90200   0.01267  Uiso   1.00
H477   H     0.59800   0.86990   0.91710   0.01267  Uiso   1.00
H478   H     0.40200   0.36990   0.58290   0.01267  Uiso   1.00
H479   H     0.09800   0.63010   0.08290   0.01267  Uiso   1.00
H480   H     0.90200   0.13010   0.41710   0.01267  Uiso   1.00
C577   C     0.11613   0.27072   0.16593   0.01267  Uiso   1.00
C578   C     0.38387   0.72928   0.66593   0.01267  Uiso   1.00
C579   C     0.88387   0.77072   0.33407   0.01267  Uiso   1.00
C580   C     0.61613   0.22928   0.83407   0.01267  Uiso   1.00
C581   C     0.16593   0.11613   0.27072   0.01267  Uiso   1.00
C582   C     0.66593   0.38387   0.72928   0.01267  Uiso   1.00
C583   C     0.33407   0.88387   0.77072   0.01267  Uiso   1.00
C584   C     0.83407   0.61613   0.22928   0.01267  Uiso   1.00
C585   C     0.27072   0.16593   0.11613   0.01267  Uiso   1.00
C586   C     0.72928   0.66593   0.38387   0.01267  Uiso   1.00
C587   C     0.77072   0.33407   0.88387   0.01267  Uiso   1.00
C588   C     0.22928   0.83407   0.61613   0.01267  Uiso   1.00
C589   C     0.88387   0.72928   0.83407   0.01267  Uiso   1.00
C590   C     0.61613   0.27072   0.33407   0.01267  Uiso   1.00
C591   C     0.11613   0.22928   0.66593   0.01267  Uiso   1.00
C592   C     0.38387   0.77072   0.16593   0.01267  Uiso   1.00
C593   C     0.83407   0.88387   0.72928   0.01267  Uiso   1.00
C594   C     0.33407   0.61613   0.27072   0.01267  Uiso   1.00
C595   C     0.66593   0.11613   0.22928   0.01267  Uiso   1.00
C596   C     0.16593   0.38387   0.77072   0.01267  Uiso   1.00
C597   C     0.72928   0.83407   0.88387   0.01267  Uiso   1.00
C598   C     0.27072   0.33407   0.61613   0.01267  Uiso   1.00
C599   C     0.22928   0.66593   0.11613   0.01267  Uiso   1.00
C600   C     0.77072   0.16593   0.38387   0.01267  Uiso   1.00
C601   C     0.10317   0.33934   0.17816   0.01267  Uiso   1.00
C602   C     0.39683   0.66066   0.67816   0.01267  Uiso   1.00
C603   C     0.89683   0.83934   0.32184   0.01267  Uiso   1.00
C604   C     0.60317   0.16066   0.82184   0.01267  Uiso   1.00
C605   C     0.17816   0.10317   0.33934   0.01267  Uiso   1.00
C606   C     0.67816   0.39683   0.66066   0.01267  Uiso   1.00
C607   C     0.32184   0.89683   0.83934   0.01267  Uiso   1.00
C608   C     0.82184   0.60317   0.16066   0.01267  Uiso   1.00
C609   C     0.33934   0.17816   0.10317   0.01267  Uiso   1.00
C610   C     0.66066   0.67816   0.39683   0.01267  Uiso   1.00
C611   C     0.83934   0.32184   0.89683   0.01267  Uiso   1.00
C612   C     0.16066   0.82184   0.60317   0.01267  Uiso   1.00
C613   C     0.89683   0.66066   0.82184   0.01267  Uiso   1.00
C614   C     0.60317   0.33934   0.32184   0.01267  Uiso   1.00
C615   C     0.10317   0.16066   0.67816   0.01267  Uiso   1.00
C616   C     0.39683   0.83934   0.17816   0.01267  Uiso   1.00
C617   C     0.82184   0.89683   0.66066   0.01267  Uiso   1.00
C618   C     0.32184   0.60317   0.33934   0.01267  Uiso   1.00
C619   C     0.67816   0.10317   0.16066   0.01267  Uiso   1.00
C620   C     0.17816   0.39683   0.83934   0.01267  Uiso   1.00
C621   C     0.66066   0.82184   0.89683   0.01267  Uiso   1.00
C622   C     0.33934   0.32184   0.60317   0.01267  Uiso   1.00
C623   C     0.16066   0.67816   0.10317   0.01267  Uiso   1.00
C624   C     0.83934   0.17816   0.39683   0.01267  Uiso   1.00
C625   C     0.09114   0.31412   0.21663   0.01267  Uiso   1.00
C626   C     0.40886   0.68588   0.71663   0.01267  Uiso   1.00
C627   C     0.90886   0.81412   0.28337   0.01267  Uiso   1.00
C628   C     0.59114   0.18588   0.78337   0.01267  Uiso   1.00
C629   C     0.21663   0.09114   0.31412   0.01267  Uiso   1.00
C630   C     0.71663   0.40886   0.68588   0.01267  Uiso   1.00
C631   C     0.28337   0.90886   0.81412   0.01267  Uiso   1.00
C632   C     0.78337   0.59114   0.18588   0.01267  Uiso   1.00
C633   C     0.31412   0.21663   0.09114   0.01267  Uiso   1.00
C634   C     0.68588   0.71663   0.40886   0.01267  Uiso   1.00
C635   C     0.81412   0.28337   0.90886   0.01267  Uiso   1.00
C636   C     0.18588   0.78337   0.59114   0.01267  Uiso   1.00
C637   C     0.90886   0.68588   0.78337   0.01267  Uiso   1.00
C638   C     0.59114   0.31412   0.28337   0.01267  Uiso   1.00
C639   C     0.09114   0.18588   0.71663   0.01267  Uiso   1.00
C640   C     0.40886   0.81412   0.21663   0.01267  Uiso   1.00
C641   C     0.78337   0.90886   0.68588   0.01267  Uiso   1.00
C642   C     0.28337   0.59114   0.31412   0.01267  Uiso   1.00
C643   C     0.71663   0.09114   0.18588   0.01267  Uiso   1.00
C644   C     0.21663   0.40886   0.81412   0.01267  Uiso   1.00
C645   C     0.68588   0.78337   0.90886   0.01267  Uiso   1.00
C646   C     0.31412   0.28337   0.59114   0.01267  Uiso   1.00
C647   C     0.18588   0.71663   0.09114   0.01267  Uiso   1.00
C648   C     0.81412   0.21663   0.40886   0.01267  Uiso   1.00
C649   C     0.03558   0.34878   0.19360   0.01267  Uiso   1.00
C650   C     0.46442   0.65122   0.69360   0.01267  Uiso   1.00
C651   C     0.96442   0.84878   0.30640   0.01267  Uiso   1.00
C652   C     0.53558   0.15122   0.80640   0.01267  Uiso   1.00
C653   C     0.19360   0.03558   0.34878   0.01267  Uiso   1.00
C654   C     0.69360   0.46442   0.65122   0.01267  Uiso   1.00
C655   C     0.30640   0.96442   0.84878   0.01267  Uiso   1.00
C656   C     0.80640   0.53558   0.15122   0.01267  Uiso   1.00
C657   C     0.34878   0.19360   0.03558   0.01267  Uiso   1.00
C658   C     0.65122   0.69360   0.46442   0.01267  Uiso   1.00
C659   C     0.84878   0.30640   0.96442   0.01267  Uiso   1.00
C660   C     0.15122   0.80640   0.53558   0.01267  Uiso   1.00
C661   C     0.96442   0.65122   0.80640   0.01267  Uiso   1.00
C662   C     0.53558   0.34878   0.30640   0.01267  Uiso   1.00
C663   C     0.03558   0.15122   0.69360   0.01267  Uiso   1.00
C664   C     0.46442   0.84878   0.19360   0.01267  Uiso   1.00
C665   C     0.80640   0.96442   0.65122   0.01267  Uiso   1.00
C666   C     0.30640   0.53558   0.34878   0.01267  Uiso   1.00
C667   C     0.69360   0.03558   0.15122   0.01267  Uiso   1.00
C668   C     0.19360   0.46442   0.84878   0.01267  Uiso   1.00
C669   C     0.65122   0.80640   0.96442   0.01267  Uiso   1.00
C670   C     0.34878   0.30640   0.53558   0.01267  Uiso   1.00
C671   C     0.15122   0.69360   0.03558   0.01267  Uiso   1.00
C672   C     0.84878   0.19360   0.46442   0.01267  Uiso   1.00
C673   C     0.09652   0.23737   0.22879   0.01267  Uiso   1.00
C674   C     0.40348   0.76263   0.72879   0.01267  Uiso   1.00
C675   C     0.90348   0.73737   0.27121   0.01267  Uiso   1.00
C676   C     0.59652   0.26263   0.77121   0.01267  Uiso   1.00
C677   C     0.22879   0.09652   0.23737   0.01267  Uiso   1.00
C678   C     0.72879   0.40348   0.76263   0.01267  Uiso   1.00
C679   C     0.27121   0.90348   0.73737   0.01267  Uiso   1.00
C680   C     0.77121   0.59652   0.26263   0.01267  Uiso   1.00
C681   C     0.23737   0.22879   0.09652   0.01267  Uiso   1.00
C682   C     0.76263   0.72879   0.40348   0.01267  Uiso   1.00
C683   C     0.73737   0.27121   0.90348   0.01267  Uiso   1.00
C684   C     0.26263   0.77121   0.59652   0.01267  Uiso   1.00
C685   C     0.90348   0.76263   0.77121   0.01267  Uiso   1.00
C686   C     0.59652   0.23737   0.27121   0.01267  Uiso   1.00
C687   C     0.09652   0.26263   0.72879   0.01267  Uiso   1.00
C688   C     0.40348   0.73737   0.22879   0.01267  Uiso   1.00
C689   C     0.77121   0.90348   0.76263   0.01267  Uiso   1.00
C690   C     0.27121   0.59652   0.23737   0.01267  Uiso   1.00
C691   C     0.72879   0.09652   0.26263   0.01267  Uiso   1.00
C692   C     0.22879   0.40348   0.73737   0.01267  Uiso   1.00
C693   C     0.76263   0.77121   0.90348   0.01267  Uiso   1.00
C694   C     0.23737   0.27121   0.59652   0.01267  Uiso   1.00
C695   C     0.26263   0.72879   0.09652   0.01267  Uiso   1.00
C696   C     0.73737   0.22879   0.40348   0.01267  Uiso   1.00
H481   H     0.11580   0.21760   0.21960   0.01267  Uiso   1.00
H482   H     0.38420   0.78240   0.71960   0.01267  Uiso   1.00
H483   H     0.88420   0.71760   0.28040   0.01267  Uiso   1.00
H484   H     0.61580   0.28240   0.78040   0.01267  Uiso   1.00
H485   H     0.21960   0.11580   0.21760   0.01267  Uiso   1.00
H486   H     0.71960   0.38420   0.78240   0.01267  Uiso   1.00
H487   H     0.28040   0.88420   0.71760   0.01267  Uiso   1.00
H488   H     0.78040   0.61580   0.28240   0.01267  Uiso   1.00
H489   H     0.21760   0.21960   0.11580   0.01267  Uiso   1.00
H490   H     0.78240   0.71960   0.38420   0.01267  Uiso   1.00
H491   H     0.71760   0.28040   0.88420   0.01267  Uiso   1.00
H492   H     0.28240   0.78040   0.61580   0.01267  Uiso   1.00
H493   H     0.88420   0.78240   0.78040   0.01267  Uiso   1.00
H494   H     0.61580   0.21760   0.28040   0.01267  Uiso   1.00
H495   H     0.11580   0.28240   0.71960   0.01267  Uiso   1.00
H496   H     0.38420   0.71760   0.21960   0.01267  Uiso   1.00
H497   H     0.78040   0.88420   0.78240   0.01267  Uiso   1.00
H498   H     0.28040   0.61580   0.21760   0.01267  Uiso   1.00
H499   H     0.71960   0.11580   0.28240   0.01267  Uiso   1.00
H500   H     0.21960   0.38420   0.71760   0.01267  Uiso   1.00
H501   H     0.78240   0.78040   0.88420   0.01267  Uiso   1.00
H502   H     0.21760   0.28040   0.61580   0.01267  Uiso   1.00
H503   H     0.28240   0.71960   0.11580   0.01267  Uiso   1.00
H504   H     0.71760   0.21960   0.38420   0.01267  Uiso   1.00
H505   H     0.10360   0.24470   0.25600   0.01267  Uiso   1.00
H506   H     0.39640   0.75530   0.75600   0.01267  Uiso   1.00
H507   H     0.89640   0.74470   0.24400   0.01267  Uiso   1.00
H508   H     0.60360   0.25530   0.74400   0.01267  Uiso   1.00
H509   H     0.25600   0.10360   0.24470   0.01267  Uiso   1.00
H510   H     0.75600   0.39640   0.75530   0.01267  Uiso   1.00
H511   H     0.24400   0.89640   0.74470   0.01267  Uiso   1.00
H512   H     0.74400   0.60360   0.25530   0.01267  Uiso   1.00
H513   H     0.24470   0.25600   0.10360   0.01267  Uiso   1.00
H514   H     0.75530   0.75600   0.39640   0.01267  Uiso   1.00
H515   H     0.74470   0.24400   0.89640   0.01267  Uiso   1.00
H516   H     0.25530   0.74400   0.60360   0.01267  Uiso   1.00
H517   H     0.89640   0.75530   0.74400   0.01267  Uiso   1.00
H518   H     0.60360   0.24470   0.24400   0.01267  Uiso   1.00
H519   H     0.10360   0.25530   0.75600   0.01267  Uiso   1.00
H520   H     0.39640   0.74470   0.25600   0.01267  Uiso   1.00
H521   H     0.74400   0.89640   0.75530   0.01267  Uiso   1.00
H522   H     0.24400   0.60360   0.24470   0.01267  Uiso   1.00
H523   H     0.75600   0.10360   0.25530   0.01267  Uiso   1.00
H524   H     0.25600   0.39640   0.74470   0.01267  Uiso   1.00
H525   H     0.75530   0.74400   0.89640   0.01267  Uiso   1.00
H526   H     0.24470   0.24400   0.60360   0.01267  Uiso   1.00
H527   H     0.25530   0.75600   0.10360   0.01267  Uiso   1.00
H528   H     0.74470   0.25600   0.39640   0.01267  Uiso   1.00
C697   C     0.02457   0.30777   0.25342   0.01267  Uiso   1.00
C698   C     0.47543   0.69223   0.75342   0.01267  Uiso   1.00
C699   C     0.97543   0.80777   0.24658   0.01267  Uiso   1.00
C700   C     0.52457   0.19223   0.74658   0.01267  Uiso   1.00
C701   C     0.25342   0.02457   0.30777   0.01267  Uiso   1.00
C702   C     0.75342   0.47543   0.69223   0.01267  Uiso   1.00
C703   C     0.24658   0.97543   0.80777   0.01267  Uiso   1.00
C704   C     0.74658   0.52457   0.19223   0.01267  Uiso   1.00
C705   C     0.30777   0.25342   0.02457   0.01267  Uiso   1.00
C706   C     0.69223   0.75342   0.47543   0.01267  Uiso   1.00
C707   C     0.80777   0.24658   0.97543   0.01267  Uiso   1.00
C708   C     0.19223   0.74658   0.52457   0.01267  Uiso   1.00
C709   C     0.97543   0.69223   0.74658   0.01267  Uiso   1.00
C710   C     0.52457   0.30777   0.24658   0.01267  Uiso   1.00
C711   C     0.02457   0.19223   0.75342   0.01267  Uiso   1.00
C712   C     0.47543   0.80777   0.25342   0.01267  Uiso   1.00
C713   C     0.74658   0.97543   0.69223   0.01267  Uiso   1.00
C714   C     0.24658   0.52457   0.30777   0.01267  Uiso   1.00
C715   C     0.75342   0.02457   0.19223   0.01267  Uiso   1.00
C716   C     0.25342   0.47543   0.80777   0.01267  Uiso   1.00
C717   C     0.69223   0.74658   0.97543   0.01267  Uiso   1.00
C718   C     0.30777   0.24658   0.52457   0.01267  Uiso   1.00
C719   C     0.19223   0.75342   0.02457   0.01267  Uiso   1.00
C720   C     0.80777   0.25342   0.47543   0.01267  Uiso   1.00
H529   H     0.00340   0.32710   0.25830   0.01267  Uiso   1.00
H530   H     0.49660   0.67290   0.75830   0.01267  Uiso   1.00
H531   H     0.99660   0.82710   0.24170   0.01267  Uiso   1.00
H532   H     0.50340   0.17290   0.74170   0.01267  Uiso   1.00
H533   H     0.25830   0.00340   0.32710   0.01267  Uiso   1.00
H534   H     0.75830   0.49660   0.67290   0.01267  Uiso   1.00
H535   H     0.24170   0.99660   0.82710   0.01267  Uiso   1.00
H536   H     0.74170   0.50340   0.17290   0.01267  Uiso   1.00
H537   H     0.32710   0.25830   0.00340   0.01267  Uiso   1.00
H538   H     0.67290   0.75830   0.49660   0.01267  Uiso   1.00
H539   H     0.82710   0.24170   0.99660   0.01267  Uiso   1.00
H540   H     0.17290   0.74170   0.50340   0.01267  Uiso   1.00
H541   H     0.99660   0.67290   0.74170   0.01267  Uiso   1.00
H542   H     0.50340   0.32710   0.24170   0.01267  Uiso   1.00
H543   H     0.00340   0.17290   0.75830   0.01267  Uiso   1.00
H544   H     0.49660   0.82710   0.25830   0.01267  Uiso   1.00
H545   H     0.74170   0.99660   0.67290   0.01267  Uiso   1.00
H546   H     0.24170   0.50340   0.32710   0.01267  Uiso   1.00
H547   H     0.75830   0.00340   0.17290   0.01267  Uiso   1.00
H548   H     0.25830   0.49660   0.82710   0.01267  Uiso   1.00
H549   H     0.67290   0.74170   0.99660   0.01267  Uiso   1.00
H550   H     0.32710   0.24170   0.50340   0.01267  Uiso   1.00
H551   H     0.17290   0.75830   0.00340   0.01267  Uiso   1.00
H552   H     0.82710   0.25830   0.49660   0.01267  Uiso   1.00
H553   H     0.04070   0.30620   0.27760   0.01267  Uiso   1.00
H554   H     0.45930   0.69380   0.77760   0.01267  Uiso   1.00
H555   H     0.95930   0.80620   0.22240   0.01267  Uiso   1.00
H556   H     0.54070   0.19380   0.72240   0.01267  Uiso   1.00
H557   H     0.27760   0.04070   0.30620   0.01267  Uiso   1.00
H558   H     0.77760   0.45930   0.69380   0.01267  Uiso   1.00
H559   H     0.22240   0.95930   0.80620   0.01267  Uiso   1.00
H560   H     0.72240   0.54070   0.19380   0.01267  Uiso   1.00
H561   H     0.30620   0.27760   0.04070   0.01267  Uiso   1.00
H562   H     0.69380   0.77760   0.45930   0.01267  Uiso   1.00
H563   H     0.80620   0.22240   0.95930   0.01267  Uiso   1.00
H564   H     0.19380   0.72240   0.54070   0.01267  Uiso   1.00
H565   H     0.95930   0.69380   0.72240   0.01267  Uiso   1.00
H566   H     0.54070   0.30620   0.22240   0.01267  Uiso   1.00
H567   H     0.04070   0.19380   0.77760   0.01267  Uiso   1.00
H568   H     0.45930   0.80620   0.27760   0.01267  Uiso   1.00
H569   H     0.72240   0.95930   0.69380   0.01267  Uiso   1.00
H570   H     0.22240   0.54070   0.30620   0.01267  Uiso   1.00
H571   H     0.77760   0.04070   0.19380   0.01267  Uiso   1.00
H572   H     0.27760   0.45930   0.80620   0.01267  Uiso   1.00
H573   H     0.69380   0.72240   0.95930   0.01267  Uiso   1.00
H574   H     0.30620   0.22240   0.54070   0.01267  Uiso   1.00
H575   H     0.19380   0.77760   0.04070   0.01267  Uiso   1.00
H576   H     0.80620   0.27760   0.45930   0.01267  Uiso   1.00
C721   C     0.03857   0.22761   0.29990   0.01267  Uiso   1.00
C722   C     0.46143   0.77239   0.79990   0.01267  Uiso   1.00
C723   C     0.96143   0.72761   0.20010   0.01267  Uiso   1.00
C724   C     0.53857   0.27239   0.70010   0.01267  Uiso   1.00
C725   C     0.29990   0.03857   0.22761   0.01267  Uiso   1.00
C726   C     0.79990   0.46143   0.77239   0.01267  Uiso   1.00
C727   C     0.20010   0.96143   0.72761   0.01267  Uiso   1.00
C728   C     0.70010   0.53857   0.27239   0.01267  Uiso   1.00
C729   C     0.22761   0.29990   0.03857   0.01267  Uiso   1.00
C730   C     0.77239   0.79990   0.46143   0.01267  Uiso   1.00
C731   C     0.72761   0.20010   0.96143   0.01267  Uiso   1.00
C732   C     0.27239   0.70010   0.53857   0.01267  Uiso   1.00
C733   C     0.96143   0.77239   0.70010   0.01267  Uiso   1.00
C734   C     0.53857   0.22761   0.20010   0.01267  Uiso   1.00
C735   C     0.03857   0.27239   0.79990   0.01267  Uiso   1.00
C736   C     0.46143   0.72761   0.29990   0.01267  Uiso   1.00
C737   C     0.70010   0.96143   0.77239   0.01267  Uiso   1.00
C738   C     0.20010   0.53857   0.22761   0.01267  Uiso   1.00
C739   C     0.79990   0.03857   0.27239   0.01267  Uiso   1.00
C740   C     0.29990   0.46143   0.72761   0.01267  Uiso   1.00
C741   C     0.77239   0.70010   0.96143   0.01267  Uiso   1.00
C742   C     0.22761   0.20010   0.53857   0.01267  Uiso   1.00
C743   C     0.27239   0.79990   0.03857   0.01267  Uiso   1.00
C744   C     0.72761   0.29990   0.46143   0.01267  Uiso   1.00
H577   H     0.05670   0.24960   0.30560   0.01267  Uiso   1.00
H578   H     0.44330   0.75040   0.80560   0.01267  Uiso   1.00
H579   H     0.94330   0.74960   0.19440   0.01267  Uiso   1.00
H580   H     0.55670   0.25040   0.69440   0.01267  Uiso   1.00
H581   H     0.30560   0.05670   0.24960   0.01267  Uiso   1.00
H582   H     0.80560   0.44330   0.75040   0.01267  Uiso   1.00
H583   H     0.19440   0.94330   0.74960   0.01267  Uiso   1.00
H584   H     0.69440   0.55670   0.25040   0.01267  Uiso   1.00
H585   H     0.24960   0.30560   0.05670   0.01267  Uiso   1.00
H586   H     0.75040   0.80560   0.44330   0.01267  Uiso   1.00
H587   H     0.74960   0.19440   0.94330   0.01267  Uiso   1.00
H588   H     0.25040   0.69440   0.55670   0.01267  Uiso   1.00
H589   H     0.94330   0.75040   0.69440   0.01267  Uiso   1.00
H590   H     0.55670   0.24960   0.19440   0.01267  Uiso   1.00
H591   H     0.05670   0.25040   0.80560   0.01267  Uiso   1.00
H592   H     0.44330   0.74960   0.30560   0.01267  Uiso   1.00
H593   H     0.69440   0.94330   0.75040   0.01267  Uiso   1.00
H594   H     0.19440   0.55670   0.24960   0.01267  Uiso   1.00
H595   H     0.80560   0.05670   0.25040   0.01267  Uiso   1.00
H596   H     0.30560   0.44330   0.74960   0.01267  Uiso   1.00
H597   H     0.75040   0.69440   0.94330   0.01267  Uiso   1.00
H598   H     0.24960   0.19440   0.55670   0.01267  Uiso   1.00
H599   H     0.25040   0.80560   0.05670   0.01267  Uiso   1.00
H600   H     0.74960   0.30560   0.44330   0.01267  Uiso   1.00
H601   H     0.05320   0.20280   0.30400   0.01267  Uiso   1.00
H602   H     0.44680   0.79720   0.80400   0.01267  Uiso   1.00
H603   H     0.94680   0.70280   0.19600   0.01267  Uiso   1.00
H604   H     0.55320   0.29720   0.69600   0.01267  Uiso   1.00
H605   H     0.30400   0.05320   0.20280   0.01267  Uiso   1.00
H606   H     0.80400   0.44680   0.79720   0.01267  Uiso   1.00
H607   H     0.19600   0.94680   0.70280   0.01267  Uiso   1.00
H608   H     0.69600   0.55320   0.29720   0.01267  Uiso   1.00
H609   H     0.20280   0.30400   0.05320   0.01267  Uiso   1.00
H610   H     0.79720   0.80400   0.44680   0.01267  Uiso   1.00
H611   H     0.70280   0.19600   0.94680   0.01267  Uiso   1.00
H612   H     0.29720   0.69600   0.55320   0.01267  Uiso   1.00
H613   H     0.94680   0.79720   0.69600   0.01267  Uiso   1.00
H614   H     0.55320   0.20280   0.19600   0.01267  Uiso   1.00
H615   H     0.05320   0.29720   0.80400   0.01267  Uiso   1.00
H616   H     0.44680   0.70280   0.30400   0.01267  Uiso   1.00
H617   H     0.69600   0.94680   0.79720   0.01267  Uiso   1.00
H618   H     0.19600   0.55320   0.20280   0.01267  Uiso   1.00
H619   H     0.80400   0.05320   0.29720   0.01267  Uiso   1.00
H620   H     0.30400   0.44680   0.70280   0.01267  Uiso   1.00
H621   H     0.79720   0.69600   0.94680   0.01267  Uiso   1.00
H622   H     0.20280   0.19600   0.55320   0.01267  Uiso   1.00
H623   H     0.29720   0.80400   0.05320   0.01267  Uiso   1.00
H624   H     0.70280   0.30400   0.44680   0.01267  Uiso   1.00
C745   C     0.00254   0.22925   0.32965   0.01267  Uiso   1.00
C746   C     0.49746   0.77075   0.82965   0.01267  Uiso   1.00
C747   C     0.99746   0.72925   0.17035   0.01267  Uiso   1.00
C748   C     0.50254   0.27075   0.67035   0.01267  Uiso   1.00
C749   C     0.32965   0.00254   0.22925   0.01267  Uiso   1.00
C750   C     0.82965   0.49746   0.77075   0.01267  Uiso   1.00
C751   C     0.17035   0.99746   0.72925   0.01267  Uiso   1.00
C752   C     0.67035   0.50254   0.27075   0.01267  Uiso   1.00
C753   C     0.22925   0.32965   0.00254   0.01267  Uiso   1.00
C754   C     0.77075   0.82965   0.49746   0.01267  Uiso   1.00
C755   C     0.72925   0.17035   0.99746   0.01267  Uiso   1.00
C756   C     0.27075   0.67035   0.50254   0.01267  Uiso   1.00
C757   C     0.99746   0.77075   0.67035   0.01267  Uiso   1.00
C758   C     0.50254   0.22925   0.17035   0.01267  Uiso   1.00
C759   C     0.00254   0.27075   0.82965   0.01267  Uiso   1.00
C760   C     0.49746   0.72925   0.32965   0.01267  Uiso   1.00
C761   C     0.67035   0.99746   0.77075   0.01267  Uiso   1.00
C762   C     0.17035   0.50254   0.22925   0.01267  Uiso   1.00
C763   C     0.82965   0.00254   0.27075   0.01267  Uiso   1.00
C764   C     0.32965   0.49746   0.72925   0.01267  Uiso   1.00
C765   C     0.77075   0.67035   0.99746   0.01267  Uiso   1.00
C766   C     0.22925   0.17035   0.50254   0.01267  Uiso   1.00
C767   C     0.27075   0.82965   0.00254   0.01267  Uiso   1.00
C768   C     0.72925   0.32965   0.49746   0.01267  Uiso   1.00
H625   H     0.01190   0.22250   0.35640   0.01267  Uiso   1.00
H626   H     0.48810   0.77750   0.85640   0.01267  Uiso   1.00
H627   H     0.98810   0.72250   0.14360   0.01267  Uiso   1.00
H628   H     0.51190   0.27750   0.64360   0.01267  Uiso   1.00
H629   H     0.35640   0.01190   0.22250   0.01267  Uiso   1.00
H630   H     0.85640   0.48810   0.77750   0.01267  Uiso   1.00
H631   H     0.14360   0.98810   0.72250   0.01267  Uiso   1.00
H632   H     0.64360   0.51190   0.27750   0.01267  Uiso   1.00
H633   H     0.22250   0.35640   0.01190   0.01267  Uiso   1.00
H634   H     0.77750   0.85640   0.48810   0.01267  Uiso   1.00
H635   H     0.72250   0.14360   0.98810   0.01267  Uiso   1.00
H636   H     0.27750   0.64360   0.51190   0.01267  Uiso   1.00
H637   H     0.98810   0.77750   0.64360   0.01267  Uiso   1.00
H638   H     0.51190   0.22250   0.14360   0.01267  Uiso   1.00
H639   H     0.01190   0.27750   0.85640   0.01267  Uiso   1.00
H640   H     0.48810   0.72250   0.35640   0.01267  Uiso   1.00
H641   H     0.64360   0.98810   0.77750   0.01267  Uiso   1.00
H642   H     0.14360   0.51190   0.22250   0.01267  Uiso   1.00
H643   H     0.85640   0.01190   0.27750   0.01267  Uiso   1.00
H644   H     0.35640   0.48810   0.72250   0.01267  Uiso   1.00
H645   H     0.77750   0.64360   0.98810   0.01267  Uiso   1.00
H646   H     0.22250   0.14360   0.51190   0.01267  Uiso   1.00
H647   H     0.27750   0.85640   0.01190   0.01267  Uiso   1.00
H648   H     0.72250   0.35640   0.48810   0.01267  Uiso   1.00
H649   H     0.99210   0.25640   0.33050   0.01267  Uiso   1.00
H650   H     0.50790   0.74360   0.83050   0.01267  Uiso   1.00
H651   H     0.00790   0.75640   0.16950   0.01267  Uiso   1.00
H652   H     0.49210   0.24360   0.66950   0.01267  Uiso   1.00
H653   H     0.33050   0.99210   0.25640   0.01267  Uiso   1.00
H654   H     0.83050   0.50790   0.74360   0.01267  Uiso   1.00
H655   H     0.16950   0.00790   0.75640   0.01267  Uiso   1.00
H656   H     0.66950   0.49210   0.24360   0.01267  Uiso   1.00
H657   H     0.25640   0.33050   0.99210   0.01267  Uiso   1.00
H658   H     0.74360   0.83050   0.50790   0.01267  Uiso   1.00
H659   H     0.75640   0.16950   0.00790   0.01267  Uiso   1.00
H660   H     0.24360   0.66950   0.49210   0.01267  Uiso   1.00
H661   H     0.00790   0.74360   0.66950   0.01267  Uiso   1.00
H662   H     0.49210   0.25640   0.16950   0.01267  Uiso   1.00
H663   H     0.99210   0.24360   0.83050   0.01267  Uiso   1.00
H664   H     0.50790   0.75640   0.33050   0.01267  Uiso   1.00
H665   H     0.66950   0.00790   0.74360   0.01267  Uiso   1.00
H666   H     0.16950   0.49210   0.25640   0.01267  Uiso   1.00
H667   H     0.83050   0.99210   0.24360   0.01267  Uiso   1.00
H668   H     0.33050   0.50790   0.75640   0.01267  Uiso   1.00
H669   H     0.74360   0.66950   0.00790   0.01267  Uiso   1.00
H670   H     0.25640   0.16950   0.49210   0.01267  Uiso   1.00
H671   H     0.24360   0.83050   0.99210   0.01267  Uiso   1.00
H672   H     0.75640   0.33050   0.50790   0.01267  Uiso   1.00
C769   C     0.96828   0.20001   0.31765   0.01267  Uiso   1.00
C770   C     0.53172   0.79999   0.81765   0.01267  Uiso   1.00
C771   C     0.03172   0.70001   0.18235   0.01267  Uiso   1.00
C772   C     0.46828   0.29999   0.68235   0.01267  Uiso   1.00
C773   C     0.31765   0.96828   0.20001   0.01267  Uiso   1.00
C774   C     0.81765   0.53172   0.79999   0.01267  Uiso   1.00
C775   C     0.18235   0.03172   0.70001   0.01267  Uiso   1.00
C776   C     0.68235   0.46828   0.29999   0.01267  Uiso   1.00
C777   C     0.20001   0.31765   0.96828   0.01267  Uiso   1.00
C778   C     0.79999   0.81765   0.53172   0.01267  Uiso   1.00
C779   C     0.70001   0.18235   0.03172   0.01267  Uiso   1.00
C780   C     0.29999   0.68235   0.46828   0.01267  Uiso   1.00
C781   C     0.03172   0.79999   0.68235   0.01267  Uiso   1.00
C782   C     0.46828   0.20001   0.18235   0.01267  Uiso   1.00
C783   C     0.96828   0.29999   0.81765   0.01267  Uiso   1.00
C784   C     0.53172   0.70001   0.31765   0.01267  Uiso   1.00
C785   C     0.68235   0.03172   0.79999   0.01267  Uiso   1.00
C786   C     0.18235   0.46828   0.20001   0.01267  Uiso   1.00
C787   C     0.81765   0.96828   0.29999   0.01267  Uiso   1.00
C788   C     0.31765   0.53172   0.70001   0.01267  Uiso   1.00
C789   C     0.79999   0.68235   0.03172   0.01267  Uiso   1.00
C790   C     0.20001   0.18235   0.46828   0.01267  Uiso   1.00
C791   C     0.29999   0.81765   0.96828   0.01267  Uiso   1.00
C792   C     0.70001   0.31765   0.53172   0.01267  Uiso   1.00
H673   H     0.96240   0.18270   0.34030   0.01267  Uiso   1.00
H674   H     0.53760   0.81730   0.84030   0.01267  Uiso   1.00
H675   H     0.03760   0.68270   0.15970   0.01267  Uiso   1.00
H676   H     0.46240   0.31730   0.65970   0.01267  Uiso   1.00
H677   H     0.34030   0.96240   0.18270   0.01267  Uiso   1.00
H678   H     0.84030   0.53760   0.81730   0.01267  Uiso   1.00
H679   H     0.15970   0.03760   0.68270   0.01267  Uiso   1.00
H680   H     0.65970   0.46240   0.31730   0.01267  Uiso   1.00
H681   H     0.18270   0.34030   0.96240   0.01267  Uiso   1.00
H682   H     0.81730   0.84030   0.53760   0.01267  Uiso   1.00
H683   H     0.68270   0.15970   0.03760   0.01267  Uiso   1.00
H684   H     0.31730   0.65970   0.46240   0.01267  Uiso   1.00
H685   H     0.03760   0.81730   0.65970   0.01267  Uiso   1.00
H686   H     0.46240   0.18270   0.15970   0.01267  Uiso   1.00
H687   H     0.96240   0.31730   0.84030   0.01267  Uiso   1.00
H688   H     0.53760   0.68270   0.34030   0.01267  Uiso   1.00
H689   H     0.65970   0.03760   0.81730   0.01267  Uiso   1.00
H690   H     0.15970   0.46240   0.18270   0.01267  Uiso   1.00
H691   H     0.84030   0.96240   0.31730   0.01267  Uiso   1.00
H692   H     0.34030   0.53760   0.68270   0.01267  Uiso   1.00
H693   H     0.81730   0.65970   0.03760   0.01267  Uiso   1.00
H694   H     0.18270   0.15970   0.46240   0.01267  Uiso   1.00
H695   H     0.31730   0.84030   0.96240   0.01267  Uiso   1.00
H696   H     0.68270   0.34030   0.53760   0.01267  Uiso   1.00
H697   H     0.94430   0.21550   0.31190   0.01267  Uiso   1.00
H698   H     0.55570   0.78450   0.81190   0.01267  Uiso   1.00
H699   H     0.05570   0.71550   0.18810   0.01267  Uiso   1.00
H700   H     0.44430   0.28450   0.68810   0.01267  Uiso   1.00
H701   H     0.31190   0.94430   0.21550   0.01267  Uiso   1.00
H702   H     0.81190   0.55570   0.78450   0.01267  Uiso   1.00
H703   H     0.18810   0.05570   0.71550   0.01267  Uiso   1.00
H704   H     0.68810   0.44430   0.28450   0.01267  Uiso   1.00
H705   H     0.21550   0.31190   0.94430   0.01267  Uiso   1.00
H706   H     0.78450   0.81190   0.55570   0.01267  Uiso   1.00
H707   H     0.71550   0.18810   0.05570   0.01267  Uiso   1.00
H708   H     0.28450   0.68810   0.44430   0.01267  Uiso   1.00
H709   H     0.05570   0.78450   0.68810   0.01267  Uiso   1.00
H710   H     0.44430   0.21550   0.18810   0.01267  Uiso   1.00
H711   H     0.94430   0.28450   0.81190   0.01267  Uiso   1.00
H712   H     0.55570   0.71550   0.31190   0.01267  Uiso   1.00
H713   H     0.68810   0.05570   0.78450   0.01267  Uiso   1.00
H714   H     0.18810   0.44430   0.21550   0.01267  Uiso   1.00
H715   H     0.81190   0.94430   0.28450   0.01267  Uiso   1.00
H716   H     0.31190   0.55570   0.71550   0.01267  Uiso   1.00
H717   H     0.78450   0.68810   0.05570   0.01267  Uiso   1.00
H718   H     0.21550   0.18810   0.44430   0.01267  Uiso   1.00
H719   H     0.28450   0.81190   0.94430   0.01267  Uiso   1.00
H720   H     0.71550   0.31190   0.55570   0.01267  Uiso   1.00
C793   C     0.97821   0.17420   0.28153   0.01267  Uiso   1.00
C794   C     0.52179   0.82580   0.78153   0.01267  Uiso   1.00
C795   C     0.02179   0.67420   0.21847   0.01267  Uiso   1.00
C796   C     0.47821   0.32580   0.71847   0.01267  Uiso   1.00
C797   C     0.28153   0.97821   0.17420   0.01267  Uiso   1.00
C798   C     0.78153   0.52179   0.82580   0.01267  Uiso   1.00
C799   C     0.21847   0.02179   0.67420   0.01267  Uiso   1.00
C800   C     0.71847   0.47821   0.32580   0.01267  Uiso   1.00
C801   C     0.17420   0.28153   0.97821   0.01267  Uiso   1.00
C802   C     0.82580   0.78153   0.52179   0.01267  Uiso   1.00
C803   C     0.67420   0.21847   0.02179   0.01267  Uiso   1.00
C804   C     0.32580   0.71847   0.47821   0.01267  Uiso   1.00
C805   C     0.02179   0.82580   0.71847   0.01267  Uiso   1.00
C806   C     0.47821   0.17420   0.21847   0.01267  Uiso   1.00
C807   C     0.97821   0.32580   0.78153   0.01267  Uiso   1.00
C808   C     0.52179   0.67420   0.28153   0.01267  Uiso   1.00
C809   C     0.71847   0.02179   0.82580   0.01267  Uiso   1.00
C810   C     0.21847   0.47821   0.17420   0.01267  Uiso   1.00
C811   C     0.78153   0.97821   0.32580   0.01267  Uiso   1.00
C812   C     0.28153   0.52179   0.67420   0.01267  Uiso   1.00
C813   C     0.82580   0.71847   0.02179   0.01267  Uiso   1.00
C814   C     0.17420   0.21847   0.47821   0.01267  Uiso   1.00
C815   C     0.32580   0.78153   0.97821   0.01267  Uiso   1.00
C816   C     0.67420   0.28153   0.52179   0.01267  Uiso   1.00
H721   H     0.95480   0.15850   0.27420   0.01267  Uiso   1.00
H722   H     0.54520   0.84150   0.77420   0.01267  Uiso   1.00
H723   H     0.04520   0.65850   0.22580   0.01267  Uiso   1.00
H724   H     0.45480   0.34150   0.72580   0.01267  Uiso   1.00
H725   H     0.27420   0.95480   0.15850   0.01267  Uiso   1.00
H726   H     0.77420   0.54520   0.84150   0.01267  Uiso   1.00
H727   H     0.22580   0.04520   0.65850   0.01267  Uiso   1.00
H728   H     0.72580   0.45480   0.34150   0.01267  Uiso   1.00
H729   H     0.15850   0.27420   0.95480   0.01267  Uiso   1.00
H730   H     0.84150   0.77420   0.54520   0.01267  Uiso   1.00
H731   H     0.65850   0.22580   0.04520   0.01267  Uiso   1.00
H732   H     0.34150   0.72580   0.45480   0.01267  Uiso   1.00
H733   H     0.04520   0.84150   0.72580   0.01267  Uiso   1.00
H734   H     0.45480   0.15850   0.22580   0.01267  Uiso   1.00
H735   H     0.95480   0.34150   0.77420   0.01267  Uiso   1.00
H736   H     0.54520   0.65850   0.27420   0.01267  Uiso   1.00
H737   H     0.72580   0.04520   0.84150   0.01267  Uiso   1.00
H738   H     0.22580   0.45480   0.15850   0.01267  Uiso   1.00
H739   H     0.77420   0.95480   0.34150   0.01267  Uiso   1.00
H740   H     0.27420   0.54520   0.65850   0.01267  Uiso   1.00
H741   H     0.84150   0.72580   0.04520   0.01267  Uiso   1.00
H742   H     0.15850   0.22580   0.45480   0.01267  Uiso   1.00
H743   H     0.34150   0.77420   0.95480   0.01267  Uiso   1.00
H744   H     0.65850   0.27420   0.54520   0.01267  Uiso   1.00
H745   H     0.99960   0.15570   0.28850   0.01267  Uiso   1.00
H746   H     0.50040   0.84430   0.78850   0.01267  Uiso   1.00
H747   H     0.00040   0.65570   0.21150   0.01267  Uiso   1.00
H748   H     0.49960   0.34430   0.71150   0.01267  Uiso   1.00
H749   H     0.28850   0.99960   0.15570   0.01267  Uiso   1.00
H750   H     0.78850   0.50040   0.84430   0.01267  Uiso   1.00
H751   H     0.21150   0.00040   0.65570   0.01267  Uiso   1.00
H752   H     0.71150   0.49960   0.34430   0.01267  Uiso   1.00
H753   H     0.15570   0.28850   0.99960   0.01267  Uiso   1.00
H754   H     0.84430   0.78850   0.50040   0.01267  Uiso   1.00
H755   H     0.65570   0.21150   0.00040   0.01267  Uiso   1.00
H756   H     0.34430   0.71150   0.49960   0.01267  Uiso   1.00
H757   H     0.00040   0.84430   0.71150   0.01267  Uiso   1.00
H758   H     0.49960   0.15570   0.21150   0.01267  Uiso   1.00
H759   H     0.99960   0.34430   0.78850   0.01267  Uiso   1.00
H760   H     0.50040   0.65570   0.28850   0.01267  Uiso   1.00
H761   H     0.71150   0.00040   0.84430   0.01267  Uiso   1.00
H762   H     0.21150   0.49960   0.15570   0.01267  Uiso   1.00
H763   H     0.78850   0.99960   0.34430   0.01267  Uiso   1.00
H764   H     0.28850   0.50040   0.65570   0.01267  Uiso   1.00
H765   H     0.84430   0.71150   0.00040   0.01267  Uiso   1.00
H766   H     0.15570   0.21150   0.49960   0.01267  Uiso   1.00
H767   H     0.34430   0.78850   0.99960   0.01267  Uiso   1.00
H768   H     0.65570   0.28850   0.50040   0.01267  Uiso   1.00
C817   C     0.91654   0.21301   0.98421   0.01267  Uiso   1.00
C818   C     0.58346   0.78699   0.48421   0.01267  Uiso   1.00
C819   C     0.08346   0.71301   0.51579   0.01267  Uiso   1.00
C820   C     0.41654   0.28699   0.01579   0.01267  Uiso   1.00
C821   C     0.98421   0.91654   0.21301   0.01267  Uiso   1.00
C822   C     0.48421   0.58346   0.78699   0.01267  Uiso   1.00
C823   C     0.51579   0.08346   0.71301   0.01267  Uiso   1.00
C824   C     0.01579   0.41654   0.28699   0.01267  Uiso   1.00
C825   C     0.21301   0.98421   0.91654   0.01267  Uiso   1.00
C826   C     0.78699   0.48421   0.58346   0.01267  Uiso   1.00
C827   C     0.71301   0.51579   0.08346   0.01267  Uiso   1.00
C828   C     0.28699   0.01579   0.41654   0.01267  Uiso   1.00
C829   C     0.08346   0.78699   0.01579   0.01267  Uiso   1.00
C830   C     0.41654   0.21301   0.51579   0.01267  Uiso   1.00
C831   C     0.91654   0.28699   0.48421   0.01267  Uiso   1.00
C832   C     0.58346   0.71301   0.98421   0.01267  Uiso   1.00
C833   C     0.01579   0.08346   0.78699   0.01267  Uiso   1.00
C834   C     0.51579   0.41654   0.21301   0.01267  Uiso   1.00
C835   C     0.48421   0.91654   0.28699   0.01267  Uiso   1.00
C836   C     0.98421   0.58346   0.71301   0.01267  Uiso   1.00
C837   C     0.78699   0.01579   0.08346   0.01267  Uiso   1.00
C838   C     0.21301   0.51579   0.41654   0.01267  Uiso   1.00
C839   C     0.28699   0.48421   0.91654   0.01267  Uiso   1.00
C840   C     0.71301   0.98421   0.58346   0.01267  Uiso   1.00
H769   H     0.89690   0.23320   0.97690   0.01267  Uiso   1.00
H770   H     0.60310   0.76680   0.47690   0.01267  Uiso   1.00
H771   H     0.10310   0.73320   0.52310   0.01267  Uiso   1.00
H772   H     0.39690   0.26680   0.02310   0.01267  Uiso   1.00
H773   H     0.97690   0.89690   0.23320   0.01267  Uiso   1.00
H774   H     0.47690   0.60310   0.76680   0.01267  Uiso   1.00
H775   H     0.52310   0.10310   0.73320   0.01267  Uiso   1.00
H776   H     0.02310   0.39690   0.26680   0.01267  Uiso   1.00
H777   H     0.23320   0.97690   0.89690   0.01267  Uiso   1.00
H778   H     0.76680   0.47690   0.60310   0.01267  Uiso   1.00
H779   H     0.73320   0.52310   0.10310   0.01267  Uiso   1.00
H780   H     0.26680   0.02310   0.39690   0.01267  Uiso   1.00
H781   H     0.10310   0.76680   0.02310   0.01267  Uiso   1.00
H782   H     0.39690   0.23320   0.52310   0.01267  Uiso   1.00
H783   H     0.89690   0.26680   0.47690   0.01267  Uiso   1.00
H784   H     0.60310   0.73320   0.97690   0.01267  Uiso   1.00
H785   H     0.02310   0.10310   0.76680   0.01267  Uiso   1.00
H786   H     0.52310   0.39690   0.23320   0.01267  Uiso   1.00
H787   H     0.47690   0.89690   0.26680   0.01267  Uiso   1.00
H788   H     0.97690   0.60310   0.73320   0.01267  Uiso   1.00
H789   H     0.76680   0.02310   0.10310   0.01267  Uiso   1.00
H790   H     0.23320   0.52310   0.39690   0.01267  Uiso   1.00
H791   H     0.26680   0.47690   0.89690   0.01267  Uiso   1.00
H792   H     0.73320   0.97690   0.60310   0.01267  Uiso   1.00
H793   H     0.90230   0.18990   0.99470   0.01267  Uiso   1.00
H794   H     0.59770   0.81010   0.49470   0.01267  Uiso   1.00
H795   H     0.09770   0.68990   0.50530   0.01267  Uiso   1.00
H796   H     0.40230   0.31010   0.00530   0.01267  Uiso   1.00
H797   H     0.99470   0.90230   0.18990   0.01267  Uiso   1.00
H798   H     0.49470   0.59770   0.81010   0.01267  Uiso   1.00
H799   H     0.50530   0.09770   0.68990   0.01267  Uiso   1.00
H800   H     0.00530   0.40230   0.31010   0.01267  Uiso   1.00
H801   H     0.18990   0.99470   0.90230   0.01267  Uiso   1.00
H802   H     0.81010   0.49470   0.59770   0.01267  Uiso   1.00
H803   H     0.68990   0.50530   0.09770   0.01267  Uiso   1.00
H804   H     0.31010   0.00530   0.40230   0.01267  Uiso   1.00
H805   H     0.09770   0.81010   0.00530   0.01267  Uiso   1.00
H806   H     0.40230   0.18990   0.50530   0.01267  Uiso   1.00
H807   H     0.90230   0.31010   0.49470   0.01267  Uiso   1.00
H808   H     0.59770   0.68990   0.99470   0.01267  Uiso   1.00
H809   H     0.00530   0.09770   0.81010   0.01267  Uiso   1.00
H810   H     0.50530   0.40230   0.18990   0.01267  Uiso   1.00
H811   H     0.49470   0.90230   0.31010   0.01267  Uiso   1.00
H812   H     0.99470   0.59770   0.68990   0.01267  Uiso   1.00
H813   H     0.81010   0.00530   0.09770   0.01267  Uiso   1.00
H814   H     0.18990   0.50530   0.40230   0.01267  Uiso   1.00
H815   H     0.31010   0.49470   0.90230   0.01267  Uiso   1.00
H816   H     0.68990   0.99470   0.59770   0.01267  Uiso   1.00
C841   C     0.94085   0.20054   0.94655   0.01267  Uiso   1.00
C842   C     0.55915   0.79946   0.44655   0.01267  Uiso   1.00
C843   C     0.05915   0.70054   0.55345   0.01267  Uiso   1.00
C844   C     0.44085   0.29946   0.05345   0.01267  Uiso   1.00
C845   C     0.94655   0.94085   0.20054   0.01267  Uiso   1.00
C846   C     0.44655   0.55915   0.79946   0.01267  Uiso   1.00
C847   C     0.55345   0.05915   0.70054   0.01267  Uiso   1.00
C848   C     0.05345   0.44085   0.29946   0.01267  Uiso   1.00
C849   C     0.20054   0.94655   0.94085   0.01267  Uiso   1.00
C850   C     0.79946   0.44655   0.55915   0.01267  Uiso   1.00
C851   C     0.70054   0.55345   0.05915   0.01267  Uiso   1.00
C852   C     0.29946   0.05345   0.44085   0.01267  Uiso   1.00
C853   C     0.05915   0.79946   0.05345   0.01267  Uiso   1.00
C854   C     0.44085   0.20054   0.55345   0.01267  Uiso   1.00
C855   C     0.94085   0.29946   0.44655   0.01267  Uiso   1.00
C856   C     0.55915   0.70054   0.94655   0.01267  Uiso   1.00
C857   C     0.05345   0.05915   0.79946   0.01267  Uiso   1.00
C858   C     0.55345   0.44085   0.20054   0.01267  Uiso   1.00
C859   C     0.44655   0.94085   0.29946   0.01267  Uiso   1.00
C860   C     0.94655   0.55915   0.70054   0.01267  Uiso   1.00
C861   C     0.79946   0.05345   0.05915   0.01267  Uiso   1.00
C862   C     0.20054   0.55345   0.44085   0.01267  Uiso   1.00
C863   C     0.29946   0.44655   0.94085   0.01267  Uiso   1.00
C864   C     0.70054   0.94655   0.55915   0.01267  Uiso   1.00
H817   H     0.92250   0.19220   0.92560   0.01267  Uiso   1.00
H818   H     0.57750   0.80780   0.42560   0.01267  Uiso   1.00
H819   H     0.07750   0.69220   0.57440   0.01267  Uiso   1.00
H820   H     0.42250   0.30780   0.07440   0.01267  Uiso   1.00
H821   H     0.92560   0.92250   0.19220   0.01267  Uiso   1.00
H822   H     0.42560   0.57750   0.80780   0.01267  Uiso   1.00
H823   H     0.57440   0.07750   0.69220   0.01267  Uiso   1.00
H824   H     0.07440   0.42250   0.30780   0.01267  Uiso   1.00
H825   H     0.19220   0.92560   0.92250   0.01267  Uiso   1.00
H826   H     0.80780   0.42560   0.57750   0.01267  Uiso   1.00
H827   H     0.69220   0.57440   0.07750   0.01267  Uiso   1.00
H828   H     0.30780   0.07440   0.42250   0.01267  Uiso   1.00
H829   H     0.07750   0.80780   0.07440   0.01267  Uiso   1.00
H830   H     0.42250   0.19220   0.57440   0.01267  Uiso   1.00
H831   H     0.92250   0.30780   0.42560   0.01267  Uiso   1.00
H832   H     0.57750   0.69220   0.92560   0.01267  Uiso   1.00
H833   H     0.07440   0.07750   0.80780   0.01267  Uiso   1.00
H834   H     0.57440   0.42250   0.19220   0.01267  Uiso   1.00
H835   H     0.42560   0.92250   0.30780   0.01267  Uiso   1.00
H836   H     0.92560   0.57750   0.69220   0.01267  Uiso   1.00
H837   H     0.80780   0.07440   0.07750   0.01267  Uiso   1.00
H838   H     0.19220   0.57440   0.42250   0.01267  Uiso   1.00
H839   H     0.30780   0.42560   0.92250   0.01267  Uiso   1.00
H840   H     0.69220   0.92560   0.57750   0.01267  Uiso   1.00
H841   H     0.95780   0.17780   0.95320   0.01267  Uiso   1.00
H842   H     0.54220   0.82220   0.45320   0.01267  Uiso   1.00
H843   H     0.04220   0.67780   0.54680   0.01267  Uiso   1.00
H844   H     0.45780   0.32220   0.04680   0.01267  Uiso   1.00
H845   H     0.95320   0.95780   0.17780   0.01267  Uiso   1.00
H846   H     0.45320   0.54220   0.82220   0.01267  Uiso   1.00
H847   H     0.54680   0.04220   0.67780   0.01267  Uiso   1.00
H848   H     0.04680   0.45780   0.32220   0.01267  Uiso   1.00
H849   H     0.17780   0.95320   0.95780   0.01267  Uiso   1.00
H850   H     0.82220   0.45320   0.54220   0.01267  Uiso   1.00
H851   H     0.67780   0.54680   0.04220   0.01267  Uiso   1.00
H852   H     0.32220   0.04680   0.45780   0.01267  Uiso   1.00
H853   H     0.04220   0.82220   0.04680   0.01267  Uiso   1.00
H854   H     0.45780   0.17780   0.54680   0.01267  Uiso   1.00
H855   H     0.95780   0.32220   0.45320   0.01267  Uiso   1.00
H856   H     0.54220   0.67780   0.95320   0.01267  Uiso   1.00
H857   H     0.04680   0.04220   0.82220   0.01267  Uiso   1.00
H858   H     0.54680   0.45780   0.17780   0.01267  Uiso   1.00
H859   H     0.45320   0.95780   0.32220   0.01267  Uiso   1.00
H860   H     0.95320   0.54220   0.67780   0.01267  Uiso   1.00
H861   H     0.82220   0.04680   0.04220   0.01267  Uiso   1.00
H862   H     0.17780   0.54680   0.45780   0.01267  Uiso   1.00
H863   H     0.32220   0.45320   0.95780   0.01267  Uiso   1.00
H864   H     0.67780   0.95320   0.54220   0.01267  Uiso   1.00
C865   C     0.96780   0.23580   0.93051   0.01267  Uiso   1.00
C866   C     0.53220   0.76420   0.43051   0.01267  Uiso   1.00
C867   C     0.03220   0.73580   0.56949   0.01267  Uiso   1.00
C868   C     0.46780   0.26420   0.06949   0.01267  Uiso   1.00
C869   C     0.93051   0.96780   0.23580   0.01267  Uiso   1.00
C870   C     0.43051   0.53220   0.76420   0.01267  Uiso   1.00
C871   C     0.56949   0.03220   0.73580   0.01267  Uiso   1.00
C872   C     0.06949   0.46780   0.26420   0.01267  Uiso   1.00
C873   C     0.23580   0.93051   0.96780   0.01267  Uiso   1.00
C874   C     0.76420   0.43051   0.53220   0.01267  Uiso   1.00
C875   C     0.73580   0.56949   0.03220   0.01267  Uiso   1.00
C876   C     0.26420   0.06949   0.46780   0.01267  Uiso   1.00
C877   C     0.03220   0.76420   0.06949   0.01267  Uiso   1.00
C878   C     0.46780   0.23580   0.56949   0.01267  Uiso   1.00
C879   C     0.96780   0.26420   0.43051   0.01267  Uiso   1.00
C880   C     0.53220   0.73580   0.93051   0.01267  Uiso   1.00
C881   C     0.06949   0.03220   0.76420   0.01267  Uiso   1.00
C882   C     0.56949   0.46780   0.23580   0.01267  Uiso   1.00
C883   C     0.43051   0.96780   0.26420   0.01267  Uiso   1.00
C884   C     0.93051   0.53220   0.73580   0.01267  Uiso   1.00
C885   C     0.76420   0.06949   0.03220   0.01267  Uiso   1.00
C886   C     0.23580   0.56949   0.46780   0.01267  Uiso   1.00
C887   C     0.26420   0.43051   0.96780   0.01267  Uiso   1.00
C888   C     0.73580   0.93051   0.53220   0.01267  Uiso   1.00
H865   H     0.99560   0.22720   0.93010   0.01267  Uiso   1.00
H866   H     0.50440   0.77280   0.43010   0.01267  Uiso   1.00
H867   H     0.00440   0.72720   0.56990   0.01267  Uiso   1.00
H868   H     0.49560   0.27280   0.06990   0.01267  Uiso   1.00
H869   H     0.93010   0.99560   0.22720   0.01267  Uiso   1.00
H870   H     0.43010   0.50440   0.77280   0.01267  Uiso   1.00
H871   H     0.56990   0.00440   0.72720   0.01267  Uiso   1.00
H872   H     0.06990   0.49560   0.27280   0.01267  Uiso   1.00
H873   H     0.22720   0.93010   0.99560   0.01267  Uiso   1.00
H874   H     0.77280   0.43010   0.50440   0.01267  Uiso   1.00
H875   H     0.72720   0.56990   0.00440   0.01267  Uiso   1.00
H876   H     0.27280   0.06990   0.49560   0.01267  Uiso   1.00
H877   H     0.00440   0.77280   0.06990   0.01267  Uiso   1.00
H878   H     0.49560   0.22720   0.56990   0.01267  Uiso   1.00
H879   H     0.99560   0.27280   0.43010   0.01267  Uiso   1.00
H880   H     0.50440   0.72720   0.93010   0.01267  Uiso   1.00
H881   H     0.06990   0.00440   0.77280   0.01267  Uiso   1.00
H882   H     0.56990   0.49560   0.22720   0.01267  Uiso   1.00
H883   H     0.43010   0.99560   0.27280   0.01267  Uiso   1.00
H884   H     0.93010   0.50440   0.72720   0.01267  Uiso   1.00
H885   H     0.77280   0.06990   0.00440   0.01267  Uiso   1.00
H886   H     0.22720   0.56990   0.49560   0.01267  Uiso   1.00
H887   H     0.27280   0.43010   0.99560   0.01267  Uiso   1.00
H888   H     0.72720   0.93010   0.50440   0.01267  Uiso   1.00
H889   H     0.96000   0.24210   0.90320   0.01267  Uiso   1.00
H890   H     0.54000   0.75790   0.40320   0.01267  Uiso   1.00
H891   H     0.04000   0.74210   0.59680   0.01267  Uiso   1.00
H892   H     0.46000   0.25790   0.09680   0.01267  Uiso   1.00
H893   H     0.90320   0.96000   0.24210   0.01267  Uiso   1.00
H894   H     0.40320   0.54000   0.75790   0.01267  Uiso   1.00
H895   H     0.59680   0.04000   0.74210   0.01267  Uiso   1.00
H896   H     0.09680   0.46000   0.25790   0.01267  Uiso   1.00
H897   H     0.24210   0.90320   0.96000   0.01267  Uiso   1.00
H898   H     0.75790   0.40320   0.54000   0.01267  Uiso   1.00
H899   H     0.74210   0.59680   0.04000   0.01267  Uiso   1.00
H900   H     0.25790   0.09680   0.46000   0.01267  Uiso   1.00
H901   H     0.04000   0.75790   0.09680   0.01267  Uiso   1.00
H902   H     0.46000   0.24210   0.59680   0.01267  Uiso   1.00
H903   H     0.96000   0.25790   0.40320   0.01267  Uiso   1.00
H904   H     0.54000   0.74210   0.90320   0.01267  Uiso   1.00
H905   H     0.09680   0.04000   0.75790   0.01267  Uiso   1.00
H906   H     0.59680   0.46000   0.24210   0.01267  Uiso   1.00
H907   H     0.40320   0.96000   0.25790   0.01267  Uiso   1.00
H908   H     0.90320   0.54000   0.74210   0.01267  Uiso   1.00
H909   H     0.75790   0.09680   0.04000   0.01267  Uiso   1.00
H910   H     0.24210   0.59680   0.46000   0.01267  Uiso   1.00
H911   H     0.25790   0.40320   0.96000   0.01267  Uiso   1.00
H912   H     0.74210   0.90320   0.54000   0.01267  Uiso   1.00
C889   C     0.96413   0.27305   0.95590   0.01267  Uiso   1.00
C890   C     0.53587   0.72695   0.45590   0.01267  Uiso   1.00
C891   C     0.03587   0.77305   0.54410   0.01267  Uiso   1.00
C892   C     0.46413   0.22695   0.04410   0.01267  Uiso   1.00
C893   C     0.95590   0.96413   0.27305   0.01267  Uiso   1.00
C894   C     0.45590   0.53587   0.72695   0.01267  Uiso   1.00
C895   C     0.54410   0.03587   0.77305   0.01267  Uiso   1.00
C896   C     0.04410   0.46413   0.22695   0.01267  Uiso   1.00
C897   C     0.27305   0.95590   0.96413   0.01267  Uiso   1.00
C898   C     0.72695   0.45590   0.53587   0.01267  Uiso   1.00
C899   C     0.77305   0.54410   0.03587   0.01267  Uiso   1.00
C900   C     0.22695   0.04410   0.46413   0.01267  Uiso   1.00
C901   C     0.03587   0.72695   0.04410   0.01267  Uiso   1.00
C902   C     0.46413   0.27305   0.54410   0.01267  Uiso   1.00
C903   C     0.96413   0.22695   0.45590   0.01267  Uiso   1.00
C904   C     0.53587   0.77305   0.95590   0.01267  Uiso   1.00
C905   C     0.04410   0.03587   0.72695   0.01267  Uiso   1.00
C906   C     0.54410   0.46413   0.27305   0.01267  Uiso   1.00
C907   C     0.45590   0.96413   0.22695   0.01267  Uiso   1.00
C908   C     0.95590   0.53587   0.77305   0.01267  Uiso   1.00
C909   C     0.72695   0.04410   0.03587   0.01267  Uiso   1.00
C910   C     0.27305   0.54410   0.46413   0.01267  Uiso   1.00
C911   C     0.22695   0.45590   0.96413   0.01267  Uiso   1.00
C912   C     0.77305   0.95590   0.53587   0.01267  Uiso   1.00
H913   H     0.93730   0.28400   0.95310   0.01267  Uiso   1.00
H914   H     0.56270   0.71600   0.45310   0.01267  Uiso   1.00
H915   H     0.06270   0.78400   0.54690   0.01267  Uiso   1.00
H916   H     0.43730   0.21600   0.04690   0.01267  Uiso   1.00
H917   H     0.95310   0.93730   0.28400   0.01267  Uiso   1.00
H918   H     0.45310   0.56270   0.71600   0.01267  Uiso   1.00
H919   H     0.54690   0.06270   0.78400   0.01267  Uiso   1.00
H920   H     0.04690   0.43730   0.21600   0.01267  Uiso   1.00
H921   H     0.28400   0.95310   0.93730   0.01267  Uiso   1.00
H922   H     0.71600   0.45310   0.56270   0.01267  Uiso   1.00
H923   H     0.78400   0.54690   0.06270   0.01267  Uiso   1.00
H924   H     0.21600   0.04690   0.43730   0.01267  Uiso   1.00
H925   H     0.06270   0.71600   0.04690   0.01267  Uiso   1.00
H926   H     0.43730   0.28400   0.54690   0.01267  Uiso   1.00
H927   H     0.93730   0.21600   0.45310   0.01267  Uiso   1.00
H928   H     0.56270   0.78400   0.95310   0.01267  Uiso   1.00
H929   H     0.04690   0.06270   0.71600   0.01267  Uiso   1.00
H930   H     0.54690   0.43730   0.28400   0.01267  Uiso   1.00
H931   H     0.45310   0.93730   0.21600   0.01267  Uiso   1.00
H932   H     0.95310   0.56270   0.78400   0.01267  Uiso   1.00
H933   H     0.71600   0.04690   0.06270   0.01267  Uiso   1.00
H934   H     0.28400   0.54690   0.43730   0.01267  Uiso   1.00
H935   H     0.21600   0.45310   0.93730   0.01267  Uiso   1.00
H936   H     0.78400   0.95310   0.56270   0.01267  Uiso   1.00
H937   H     0.98300   0.29300   0.94640   0.01267  Uiso   1.00
H938   H     0.51700   0.70700   0.44640   0.01267  Uiso   1.00
H939   H     0.01700   0.79300   0.55360   0.01267  Uiso   1.00
H940   H     0.48300   0.20700   0.05360   0.01267  Uiso   1.00
H941   H     0.94640   0.98300   0.29300   0.01267  Uiso   1.00
H942   H     0.44640   0.51700   0.70700   0.01267  Uiso   1.00
H943   H     0.55360   0.01700   0.79300   0.01267  Uiso   1.00
H944   H     0.05360   0.48300   0.20700   0.01267  Uiso   1.00
H945   H     0.29300   0.94640   0.98300   0.01267  Uiso   1.00
H946   H     0.70700   0.44640   0.51700   0.01267  Uiso   1.00
H947   H     0.79300   0.55360   0.01700   0.01267  Uiso   1.00
H948   H     0.20700   0.05360   0.48300   0.01267  Uiso   1.00
H949   H     0.01700   0.70700   0.05360   0.01267  Uiso   1.00
H950   H     0.48300   0.29300   0.55360   0.01267  Uiso   1.00
H951   H     0.98300   0.20700   0.44640   0.01267  Uiso   1.00
H952   H     0.51700   0.79300   0.94640   0.01267  Uiso   1.00
H953   H     0.05360   0.01700   0.70700   0.01267  Uiso   1.00
H954   H     0.55360   0.48300   0.29300   0.01267  Uiso   1.00
H955   H     0.44640   0.98300   0.20700   0.01267  Uiso   1.00
H956   H     0.94640   0.51700   0.79300   0.01267  Uiso   1.00
H957   H     0.70700   0.05360   0.01700   0.01267  Uiso   1.00
H958   H     0.29300   0.55360   0.48300   0.01267  Uiso   1.00
H959   H     0.20700   0.44640   0.98300   0.01267  Uiso   1.00
H960   H     0.79300   0.94640   0.51700   0.01267  Uiso   1.00
C913   C     0.13554   0.36993   0.18880   0.01267  Uiso   1.00
C914   C     0.36446   0.63007   0.68880   0.01267  Uiso   1.00
C915   C     0.86446   0.86993   0.31120   0.01267  Uiso   1.00
C916   C     0.63554   0.13007   0.81120   0.01267  Uiso   1.00
C917   C     0.18880   0.13554   0.36993   0.01267  Uiso   1.00
C918   C     0.68880   0.36446   0.63007   0.01267  Uiso   1.00
C919   C     0.31120   0.86446   0.86993   0.01267  Uiso   1.00
C920   C     0.81120   0.63554   0.13007   0.01267  Uiso   1.00
C921   C     0.36993   0.18880   0.13554   0.01267  Uiso   1.00
C922   C     0.63007   0.68880   0.36446   0.01267  Uiso   1.00
C923   C     0.86993   0.31120   0.86446   0.01267  Uiso   1.00
C924   C     0.13007   0.81120   0.63554   0.01267  Uiso   1.00
C925   C     0.86446   0.63007   0.81120   0.01267  Uiso   1.00
C926   C     0.63554   0.36993   0.31120   0.01267  Uiso   1.00
C927   C     0.13554   0.13007   0.68880   0.01267  Uiso   1.00
C928   C     0.36446   0.86993   0.18880   0.01267  Uiso   1.00
C929   C     0.81120   0.86446   0.63007   0.01267  Uiso   1.00
C930   C     0.31120   0.63554   0.36993   0.01267  Uiso   1.00
C931   C     0.68880   0.13554   0.13007   0.01267  Uiso   1.00
C932   C     0.18880   0.36446   0.86993   0.01267  Uiso   1.00
C933   C     0.63007   0.81120   0.86446   0.01267  Uiso   1.00
C934   C     0.36993   0.31120   0.63554   0.01267  Uiso   1.00
C935   C     0.13007   0.68880   0.13554   0.01267  Uiso   1.00
C936   C     0.86993   0.18880   0.36446   0.01267  Uiso   1.00
H961   H     0.14360   0.38380   0.16450   0.01267  Uiso   1.00
H962   H     0.35640   0.61620   0.66450   0.01267  Uiso   1.00
H963   H     0.85640   0.88380   0.33550   0.01267  Uiso   1.00
H964   H     0.64360   0.11620   0.83550   0.01267  Uiso   1.00
H965   H     0.16450   0.14360   0.38380   0.01267  Uiso   1.00
H966   H     0.66450   0.35640   0.61620   0.01267  Uiso   1.00
H967   H     0.33550   0.85640   0.88380   0.01267  Uiso   1.00
H968   H     0.83550   0.64360   0.11620   0.01267  Uiso   1.00
H969   H     0.38380   0.16450   0.14360   0.01267  Uiso   1.00
H970   H     0.61620   0.66450   0.35640   0.01267  Uiso   1.00
H971   H     0.88380   0.33550   0.85640   0.01267  Uiso   1.00
H972   H     0.11620   0.83550   0.64360   0.01267  Uiso   1.00
H973   H     0.85640   0.61620   0.83550   0.01267  Uiso   1.00
H974   H     0.64360   0.38380   0.33550   0.01267  Uiso   1.00
H975   H     0.14360   0.11620   0.66450   0.01267  Uiso   1.00
H976   H     0.35640   0.88380   0.16450   0.01267  Uiso   1.00
H977   H     0.83550   0.85640   0.61620   0.01267  Uiso   1.00
H978   H     0.33550   0.64360   0.38380   0.01267  Uiso   1.00
H979   H     0.66450   0.14360   0.11620   0.01267  Uiso   1.00
H980   H     0.16450   0.35640   0.88380   0.01267  Uiso   1.00
H981   H     0.61620   0.83550   0.85640   0.01267  Uiso   1.00
H982   H     0.38380   0.33550   0.64360   0.01267  Uiso   1.00
H983   H     0.11620   0.66450   0.14360   0.01267  Uiso   1.00
H984   H     0.88380   0.16450   0.35640   0.01267  Uiso   1.00
H985   H     0.12410   0.38970   0.20680   0.01267  Uiso   1.00
H986   H     0.37590   0.61030   0.70680   0.01267  Uiso   1.00
H987   H     0.87590   0.88970   0.29320   0.01267  Uiso   1.00
H988   H     0.62410   0.11030   0.79320   0.01267  Uiso   1.00
H989   H     0.20680   0.12410   0.38970   0.01267  Uiso   1.00
H990   H     0.70680   0.37590   0.61030   0.01267  Uiso   1.00
H991   H     0.29320   0.87590   0.88970   0.01267  Uiso   1.00
H992   H     0.79320   0.62410   0.11030   0.01267  Uiso   1.00
H993   H     0.38970   0.20680   0.12410   0.01267  Uiso   1.00
H994   H     0.61030   0.70680   0.37590   0.01267  Uiso   1.00
H995   H     0.88970   0.29320   0.87590   0.01267  Uiso   1.00
H996   H     0.11030   0.79320   0.62410   0.01267  Uiso   1.00
H997   H     0.87590   0.61030   0.79320   0.01267  Uiso   1.00
H998   H     0.62410   0.38970   0.29320   0.01267  Uiso   1.00
H999   H     0.12410   0.11030   0.70680   0.01267  Uiso   1.00
H1000  H     0.37590   0.88970   0.20680   0.01267  Uiso   1.00
H1001  H     0.79320   0.87590   0.61030   0.01267  Uiso   1.00
H1002  H     0.29320   0.62410   0.38970   0.01267  Uiso   1.00
H1003  H     0.70680   0.12410   0.11030   0.01267  Uiso   1.00
H1004  H     0.20680   0.37590   0.88970   0.01267  Uiso   1.00
H1005  H     0.61030   0.79320   0.87590   0.01267  Uiso   1.00
H1006  H     0.38970   0.29320   0.62410   0.01267  Uiso   1.00
H1007  H     0.11030   0.70680   0.12410   0.01267  Uiso   1.00
H1008  H     0.88970   0.20680   0.37590   0.01267  Uiso   1.00
C937   C     0.17167   0.35267   0.20780   0.01267  Uiso   1.00
C938   C     0.32833   0.64733   0.70780   0.01267  Uiso   1.00
C939   C     0.82833   0.85267   0.29220   0.01267  Uiso   1.00
C940   C     0.67167   0.14733   0.79220   0.01267  Uiso   1.00
C941   C     0.20780   0.17167   0.35267   0.01267  Uiso   1.00
C942   C     0.70780   0.32833   0.64733   0.01267  Uiso   1.00
C943   C     0.29220   0.82833   0.85267   0.01267  Uiso   1.00
C944   C     0.79220   0.67167   0.14733   0.01267  Uiso   1.00
C945   C     0.35267   0.20780   0.17167   0.01267  Uiso   1.00
C946   C     0.64733   0.70780   0.32833   0.01267  Uiso   1.00
C947   C     0.85267   0.29220   0.82833   0.01267  Uiso   1.00
C948   C     0.14733   0.79220   0.67167   0.01267  Uiso   1.00
C949   C     0.82833   0.64733   0.79220   0.01267  Uiso   1.00
C950   C     0.67167   0.35267   0.29220   0.01267  Uiso   1.00
C951   C     0.17167   0.14733   0.70780   0.01267  Uiso   1.00
C952   C     0.32833   0.85267   0.20780   0.01267  Uiso   1.00
C953   C     0.79220   0.82833   0.64733   0.01267  Uiso   1.00
C954   C     0.29220   0.67167   0.35267   0.01267  Uiso   1.00
C955   C     0.70780   0.17167   0.14733   0.01267  Uiso   1.00
C956   C     0.20780   0.32833   0.85267   0.01267  Uiso   1.00
C957   C     0.64733   0.79220   0.82833   0.01267  Uiso   1.00
C958   C     0.35267   0.29220   0.67167   0.01267  Uiso   1.00
C959   C     0.14733   0.70780   0.17167   0.01267  Uiso   1.00
C960   C     0.85267   0.20780   0.32833   0.01267  Uiso   1.00
H1009  H     0.18810   0.37410   0.21860   0.01267  Uiso   1.00
H1010  H     0.31190   0.62590   0.71860   0.01267  Uiso   1.00
H1011  H     0.81190   0.87410   0.28140   0.01267  Uiso   1.00
H1012  H     0.68810   0.12590   0.78140   0.01267  Uiso   1.00
H1013  H     0.21860   0.18810   0.37410   0.01267  Uiso   1.00
H1014  H     0.71860   0.31190   0.62590   0.01267  Uiso   1.00
H1015  H     0.28140   0.81190   0.87410   0.01267  Uiso   1.00
H1016  H     0.78140   0.68810   0.12590   0.01267  Uiso   1.00
H1017  H     0.37410   0.21860   0.18810   0.01267  Uiso   1.00
H1018  H     0.62590   0.71860   0.31190   0.01267  Uiso   1.00
H1019  H     0.87410   0.28140   0.81190   0.01267  Uiso   1.00
H1020  H     0.12590   0.78140   0.68810   0.01267  Uiso   1.00
H1021  H     0.81190   0.62590   0.78140   0.01267  Uiso   1.00
H1022  H     0.68810   0.37410   0.28140   0.01267  Uiso   1.00
H1023  H     0.18810   0.12590   0.71860   0.01267  Uiso   1.00
H1024  H     0.31190   0.87410   0.21860   0.01267  Uiso   1.00
H1025  H     0.78140   0.81190   0.62590   0.01267  Uiso   1.00
H1026  H     0.28140   0.68810   0.37410   0.01267  Uiso   1.00
H1027  H     0.71860   0.18810   0.12590   0.01267  Uiso   1.00
H1028  H     0.21860   0.31190   0.87410   0.01267  Uiso   1.00
H1029  H     0.62590   0.78140   0.81190   0.01267  Uiso   1.00
H1030  H     0.37410   0.28140   0.68810   0.01267  Uiso   1.00
H1031  H     0.12590   0.71860   0.18810   0.01267  Uiso   1.00
H1032  H     0.87410   0.21860   0.31190   0.01267  Uiso   1.00
H1033  H     0.18740   0.33860   0.18770   0.01267  Uiso   1.00
H1034  H     0.31260   0.66140   0.68770   0.01267  Uiso   1.00
H1035  H     0.81260   0.83860   0.31230   0.01267  Uiso   1.00
H1036  H     0.68740   0.16140   0.81230   0.01267  Uiso   1.00
H1037  H     0.18770   0.18740   0.33860   0.01267  Uiso   1.00
H1038  H     0.68770   0.31260   0.66140   0.01267  Uiso   1.00
H1039  H     0.31230   0.81260   0.83860   0.01267  Uiso   1.00
H1040  H     0.81230   0.68740   0.16140   0.01267  Uiso   1.00
H1041  H     0.33860   0.18770   0.18740   0.01267  Uiso   1.00
H1042  H     0.66140   0.68770   0.31260   0.01267  Uiso   1.00
H1043  H     0.83860   0.31230   0.81260   0.01267  Uiso   1.00
H1044  H     0.16140   0.81230   0.68740   0.01267  Uiso   1.00
H1045  H     0.81260   0.66140   0.81230   0.01267  Uiso   1.00
H1046  H     0.68740   0.33860   0.31230   0.01267  Uiso   1.00
H1047  H     0.18740   0.16140   0.68770   0.01267  Uiso   1.00
H1048  H     0.31260   0.83860   0.18770   0.01267  Uiso   1.00
H1049  H     0.81230   0.81260   0.66140   0.01267  Uiso   1.00
H1050  H     0.31230   0.68740   0.33860   0.01267  Uiso   1.00
H1051  H     0.68770   0.18740   0.16140   0.01267  Uiso   1.00
H1052  H     0.18770   0.31260   0.83860   0.01267  Uiso   1.00
H1053  H     0.66140   0.81230   0.81260   0.01267  Uiso   1.00
H1054  H     0.33860   0.31230   0.68740   0.01267  Uiso   1.00
H1055  H     0.16140   0.68770   0.18740   0.01267  Uiso   1.00
H1056  H     0.83860   0.18770   0.31260   0.01267  Uiso   1.00
C961   C     0.16085   0.32448   0.24041   0.01267  Uiso   1.00
C962   C     0.33915   0.67552   0.74041   0.01267  Uiso   1.00
C963   C     0.83915   0.82448   0.25959   0.01267  Uiso   1.00
C964   C     0.66085   0.17552   0.75959   0.01267  Uiso   1.00
C965   C     0.24041   0.16085   0.32448   0.01267  Uiso   1.00
C966   C     0.74041   0.33915   0.67552   0.01267  Uiso   1.00
C967   C     0.25959   0.83915   0.82448   0.01267  Uiso   1.00
C968   C     0.75959   0.66085   0.17552   0.01267  Uiso   1.00
C969   C     0.32448   0.24041   0.16085   0.01267  Uiso   1.00
C970   C     0.67552   0.74041   0.33915   0.01267  Uiso   1.00
C971   C     0.82448   0.25959   0.83915   0.01267  Uiso   1.00
C972   C     0.17552   0.75959   0.66085   0.01267  Uiso   1.00
C973   C     0.83915   0.67552   0.75959   0.01267  Uiso   1.00
C974   C     0.66085   0.32448   0.25959   0.01267  Uiso   1.00
C975   C     0.16085   0.17552   0.74041   0.01267  Uiso   1.00
C976   C     0.33915   0.82448   0.24041   0.01267  Uiso   1.00
C977   C     0.75959   0.83915   0.67552   0.01267  Uiso   1.00
C978   C     0.25959   0.66085   0.32448   0.01267  Uiso   1.00
C979   C     0.74041   0.16085   0.17552   0.01267  Uiso   1.00
C980   C     0.24041   0.33915   0.82448   0.01267  Uiso   1.00
C981   C     0.67552   0.75959   0.83915   0.01267  Uiso   1.00
C982   C     0.32448   0.25959   0.66085   0.01267  Uiso   1.00
C983   C     0.17552   0.74041   0.16085   0.01267  Uiso   1.00
C984   C     0.82448   0.24041   0.33915   0.01267  Uiso   1.00
H1057  H     0.17720   0.33050   0.26370   0.01267  Uiso   1.00
H1058  H     0.32280   0.66950   0.76370   0.01267  Uiso   1.00
H1059  H     0.82280   0.83050   0.23630   0.01267  Uiso   1.00
H1060  H     0.67720   0.16950   0.73630   0.01267  Uiso   1.00
H1061  H     0.26370   0.17720   0.33050   0.01267  Uiso   1.00
H1062  H     0.76370   0.32280   0.66950   0.01267  Uiso   1.00
H1063  H     0.23630   0.82280   0.83050   0.01267  Uiso   1.00
H1064  H     0.73630   0.67720   0.16950   0.01267  Uiso   1.00
H1065  H     0.33050   0.26370   0.17720   0.01267  Uiso   1.00
H1066  H     0.66950   0.76370   0.32280   0.01267  Uiso   1.00
H1067  H     0.83050   0.23630   0.82280   0.01267  Uiso   1.00
H1068  H     0.16950   0.73630   0.67720   0.01267  Uiso   1.00
H1069  H     0.82280   0.66950   0.73630   0.01267  Uiso   1.00
H1070  H     0.67720   0.33050   0.23630   0.01267  Uiso   1.00
H1071  H     0.17720   0.16950   0.76370   0.01267  Uiso   1.00
H1072  H     0.32280   0.83050   0.26370   0.01267  Uiso   1.00
H1073  H     0.73630   0.82280   0.66950   0.01267  Uiso   1.00
H1074  H     0.23630   0.67720   0.33050   0.01267  Uiso   1.00
H1075  H     0.76370   0.17720   0.16950   0.01267  Uiso   1.00
H1076  H     0.26370   0.32280   0.83050   0.01267  Uiso   1.00
H1077  H     0.66950   0.73630   0.82280   0.01267  Uiso   1.00
H1078  H     0.33050   0.23630   0.67720   0.01267  Uiso   1.00
H1079  H     0.16950   0.76370   0.17720   0.01267  Uiso   1.00
H1080  H     0.83050   0.26370   0.32280   0.01267  Uiso   1.00
H1081  H     0.16740   0.29740   0.23190   0.01267  Uiso   1.00
H1082  H     0.33260   0.70260   0.73190   0.01267  Uiso   1.00
H1083  H     0.83260   0.79740   0.26810   0.01267  Uiso   1.00
H1084  H     0.66740   0.20260   0.76810   0.01267  Uiso   1.00
H1085  H     0.23190   0.16740   0.29740   0.01267  Uiso   1.00
H1086  H     0.73190   0.33260   0.70260   0.01267  Uiso   1.00
H1087  H     0.26810   0.83260   0.79740   0.01267  Uiso   1.00
H1088  H     0.76810   0.66740   0.20260   0.01267  Uiso   1.00
H1089  H     0.29740   0.23190   0.16740   0.01267  Uiso   1.00
H1090  H     0.70260   0.73190   0.33260   0.01267  Uiso   1.00
H1091  H     0.79740   0.26810   0.83260   0.01267  Uiso   1.00
H1092  H     0.20260   0.76810   0.66740   0.01267  Uiso   1.00
H1093  H     0.83260   0.70260   0.76810   0.01267  Uiso   1.00
H1094  H     0.66740   0.29740   0.26810   0.01267  Uiso   1.00
H1095  H     0.16740   0.20260   0.73190   0.01267  Uiso   1.00
H1096  H     0.33260   0.79740   0.23190   0.01267  Uiso   1.00
H1097  H     0.76810   0.83260   0.70260   0.01267  Uiso   1.00
H1098  H     0.26810   0.66740   0.29740   0.01267  Uiso   1.00
H1099  H     0.73190   0.16740   0.20260   0.01267  Uiso   1.00
H1100  H     0.23190   0.33260   0.79740   0.01267  Uiso   1.00
H1101  H     0.70260   0.76810   0.83260   0.01267  Uiso   1.00
H1102  H     0.29740   0.26810   0.66740   0.01267  Uiso   1.00
H1103  H     0.20260   0.73190   0.16740   0.01267  Uiso   1.00
H1104  H     0.79740   0.23190   0.33260   0.01267  Uiso   1.00
C985   C     0.11679   0.32561   0.25281   0.01267  Uiso   1.00
C986   C     0.38321   0.67439   0.75281   0.01267  Uiso   1.00
C987   C     0.88321   0.82561   0.24719   0.01267  Uiso   1.00
C988   C     0.61679   0.17439   0.74719   0.01267  Uiso   1.00
C989   C     0.25281   0.11679   0.32561   0.01267  Uiso   1.00
C990   C     0.75281   0.38321   0.67439   0.01267  Uiso   1.00
C991   C     0.24719   0.88321   0.82561   0.01267  Uiso   1.00
C992   C     0.74719   0.61679   0.17439   0.01267  Uiso   1.00
C993   C     0.32561   0.25281   0.11679   0.01267  Uiso   1.00
C994   C     0.67439   0.75281   0.38321   0.01267  Uiso   1.00
C995   C     0.82561   0.24719   0.88321   0.01267  Uiso   1.00
C996   C     0.17439   0.74719   0.61679   0.01267  Uiso   1.00
C997   C     0.88321   0.67439   0.74719   0.01267  Uiso   1.00
C998   C     0.61679   0.32561   0.24719   0.01267  Uiso   1.00
C999   C     0.11679   0.17439   0.75281   0.01267  Uiso   1.00
C1000  C     0.38321   0.82561   0.25281   0.01267  Uiso   1.00
C1001  C     0.74719   0.88321   0.67439   0.01267  Uiso   1.00
C1002  C     0.24719   0.61679   0.32561   0.01267  Uiso   1.00
C1003  C     0.75281   0.11679   0.17439   0.01267  Uiso   1.00
C1004  C     0.25281   0.38321   0.82561   0.01267  Uiso   1.00
C1005  C     0.67439   0.74719   0.88321   0.01267  Uiso   1.00
C1006  C     0.32561   0.24719   0.61679   0.01267  Uiso   1.00
C1007  C     0.17439   0.75281   0.11679   0.01267  Uiso   1.00
C1008  C     0.82561   0.25281   0.38321   0.01267  Uiso   1.00
H1105  H     0.11210   0.30690   0.27460   0.01267  Uiso   1.00
H1106  H     0.38790   0.69310   0.77460   0.01267  Uiso   1.00
H1107  H     0.88790   0.80690   0.22540   0.01267  Uiso   1.00
H1108  H     0.61210   0.19310   0.72540   0.01267  Uiso   1.00
H1109  H     0.27460   0.11210   0.30690   0.01267  Uiso   1.00
H1110  H     0.77460   0.38790   0.69310   0.01267  Uiso   1.00
H1111  H     0.22540   0.88790   0.80690   0.01267  Uiso   1.00
H1112  H     0.72540   0.61210   0.19310   0.01267  Uiso   1.00
H1113  H     0.30690   0.27460   0.11210   0.01267  Uiso   1.00
H1114  H     0.69310   0.77460   0.38790   0.01267  Uiso   1.00
H1115  H     0.80690   0.22540   0.88790   0.01267  Uiso   1.00
H1116  H     0.19310   0.72540   0.61210   0.01267  Uiso   1.00
H1117  H     0.88790   0.69310   0.72540   0.01267  Uiso   1.00
H1118  H     0.61210   0.30690   0.22540   0.01267  Uiso   1.00
H1119  H     0.11210   0.19310   0.77460   0.01267  Uiso   1.00
H1120  H     0.38790   0.80690   0.27460   0.01267  Uiso   1.00
H1121  H     0.72540   0.88790   0.69310   0.01267  Uiso   1.00
H1122  H     0.22540   0.61210   0.30690   0.01267  Uiso   1.00
H1123  H     0.77460   0.11210   0.19310   0.01267  Uiso   1.00
H1124  H     0.27460   0.38790   0.80690   0.01267  Uiso   1.00
H1125  H     0.69310   0.72540   0.88790   0.01267  Uiso   1.00
H1126  H     0.30690   0.22540   0.61210   0.01267  Uiso   1.00
H1127  H     0.19310   0.77460   0.11210   0.01267  Uiso   1.00
H1128  H     0.80690   0.27460   0.38790   0.01267  Uiso   1.00
H1129  H     0.10970   0.35230   0.26190   0.01267  Uiso   1.00
H1130  H     0.39030   0.64770   0.76190   0.01267  Uiso   1.00
H1131  H     0.89030   0.85230   0.23810   0.01267  Uiso   1.00
H1132  H     0.60970   0.14770   0.73810   0.01267  Uiso   1.00
H1133  H     0.26190   0.10970   0.35230   0.01267  Uiso   1.00
H1134  H     0.76190   0.39030   0.64770   0.01267  Uiso   1.00
H1135  H     0.23810   0.89030   0.85230   0.01267  Uiso   1.00
H1136  H     0.73810   0.60970   0.14770   0.01267  Uiso   1.00
H1137  H     0.35230   0.26190   0.10970   0.01267  Uiso   1.00
H1138  H     0.64770   0.76190   0.39030   0.01267  Uiso   1.00
H1139  H     0.85230   0.23810   0.89030   0.01267  Uiso   1.00
H1140  H     0.14770   0.73810   0.60970   0.01267  Uiso   1.00
H1141  H     0.89030   0.64770   0.73810   0.01267  Uiso   1.00
H1142  H     0.60970   0.35230   0.23810   0.01267  Uiso   1.00
H1143  H     0.10970   0.14770   0.76190   0.01267  Uiso   1.00
H1144  H     0.39030   0.85230   0.26190   0.01267  Uiso   1.00
H1145  H     0.73810   0.89030   0.64770   0.01267  Uiso   1.00
H1146  H     0.23810   0.60970   0.35230   0.01267  Uiso   1.00
H1147  H     0.76190   0.10970   0.14770   0.01267  Uiso   1.00
H1148  H     0.26190   0.39030   0.85230   0.01267  Uiso   1.00
H1149  H     0.64770   0.73810   0.89030   0.01267  Uiso   1.00
H1150  H     0.35230   0.23810   0.60970   0.01267  Uiso   1.00
H1151  H     0.14770   0.76190   0.10970   0.01267  Uiso   1.00
H1152  H     0.85230   0.26190   0.39030   0.01267  Uiso   1.00
N1     N     0.05699   0.21954   0.22888   0.01267  Uiso   1.00
N2     N     0.44301   0.78046   0.72888   0.01267  Uiso   1.00
N3     N     0.94301   0.71954   0.27112   0.01267  Uiso   1.00
N4     N     0.55699   0.28046   0.77112   0.01267  Uiso   1.00
N5     N     0.22888   0.05699   0.21954   0.01267  Uiso   1.00
N6     N     0.72888   0.44301   0.78046   0.01267  Uiso   1.00
N7     N     0.27112   0.94301   0.71954   0.01267  Uiso   1.00
N8     N     0.77112   0.55699   0.28046   0.01267  Uiso   1.00
N9     N     0.21954   0.22888   0.05699   0.01267  Uiso   1.00
N10    N     0.78046   0.72888   0.44301   0.01267  Uiso   1.00
N11    N     0.71954   0.27112   0.94301   0.01267  Uiso   1.00
N12    N     0.28046   0.77112   0.55699   0.01267  Uiso   1.00
N13    N     0.94301   0.78046   0.77112   0.01267  Uiso   1.00
N14    N     0.55699   0.21954   0.27112   0.01267  Uiso   1.00
N15    N     0.05699   0.28046   0.72888   0.01267  Uiso   1.00
N16    N     0.44301   0.71954   0.22888   0.01267  Uiso   1.00
N17    N     0.77112   0.94301   0.78046   0.01267  Uiso   1.00
N18    N     0.27112   0.55699   0.21954   0.01267  Uiso   1.00
N19    N     0.72888   0.05699   0.28046   0.01267  Uiso   1.00
N20    N     0.22888   0.44301   0.71954   0.01267  Uiso   1.00
N21    N     0.78046   0.77112   0.94301   0.01267  Uiso   1.00
N22    N     0.21954   0.27112   0.55699   0.01267  Uiso   1.00
N23    N     0.28046   0.72888   0.05699   0.01267  Uiso   1.00
N24    N     0.71954   0.22888   0.44301   0.01267  Uiso   1.00
N25    N     0.00951   0.17625   0.21325   0.01267  Uiso   1.00
N26    N     0.49049   0.82375   0.71325   0.01267  Uiso   1.00
N27    N     0.99049   0.67625   0.28675   0.01267  Uiso   1.00
N28    N     0.50951   0.32375   0.78675   0.01267  Uiso   1.00
N29    N     0.21325   0.00951   0.17625   0.01267  Uiso   1.00
N30    N     0.71325   0.49049   0.82375   0.01267  Uiso   1.00
N31    N     0.28675   0.99049   0.67625   0.01267  Uiso   1.00
N32    N     0.78675   0.50951   0.32375   0.01267  Uiso   1.00
N33    N     0.17625   0.21325   0.00951   0.01267  Uiso   1.00
N34    N     0.82375   0.71325   0.49049   0.01267  Uiso   1.00
N35    N     0.67625   0.28675   0.99049   0.01267  Uiso   1.00
N36    N     0.32375   0.78675   0.50951   0.01267  Uiso   1.00
N37    N     0.99049   0.82375   0.78675   0.01267  Uiso   1.00
N38    N     0.50951   0.17625   0.28675   0.01267  Uiso   1.00
N39    N     0.00951   0.32375   0.71325   0.01267  Uiso   1.00
N40    N     0.49049   0.67625   0.21325   0.01267  Uiso   1.00
N41    N     0.78675   0.99049   0.82375   0.01267  Uiso   1.00
N42    N     0.28675   0.50951   0.17625   0.01267  Uiso   1.00
N43    N     0.71325   0.00951   0.32375   0.01267  Uiso   1.00
N44    N     0.21325   0.49049   0.67625   0.01267  Uiso   1.00
N45    N     0.82375   0.78675   0.99049   0.01267  Uiso   1.00
N46    N     0.17625   0.28675   0.50951   0.01267  Uiso   1.00
N47    N     0.32375   0.71325   0.00951   0.01267  Uiso   1.00
N48    N     0.67625   0.21325   0.49049   0.01267  Uiso   1.00
N49    N     0.00647   0.26914   0.24665   0.01267  Uiso   1.00
N50    N     0.49353   0.73086   0.74665   0.01267  Uiso   1.00
N51    N     0.99353   0.76914   0.25335   0.01267  Uiso   1.00
N52    N     0.50647   0.23086   0.75335   0.01267  Uiso   1.00
N53    N     0.24665   0.00647   0.26914   0.01267  Uiso   1.00
N54    N     0.74665   0.49353   0.73086   0.01267  Uiso   1.00
N55    N     0.25335   0.99353   0.76914   0.01267  Uiso   1.00
N56    N     0.75335   0.50647   0.23086   0.01267  Uiso   1.00
N57    N     0.26914   0.24665   0.00647   0.01267  Uiso   1.00
N58    N     0.73086   0.74665   0.49353   0.01267  Uiso   1.00
N59    N     0.76914   0.25335   0.99353   0.01267  Uiso   1.00
N60    N     0.23086   0.75335   0.50647   0.01267  Uiso   1.00
N61    N     0.99353   0.73086   0.75335   0.01267  Uiso   1.00
N62    N     0.50647   0.26914   0.25335   0.01267  Uiso   1.00
N63    N     0.00647   0.23086   0.74665   0.01267  Uiso   1.00
N64    N     0.49353   0.76914   0.24665   0.01267  Uiso   1.00
N65    N     0.75335   0.99353   0.73086   0.01267  Uiso   1.00
N66    N     0.25335   0.50647   0.26914   0.01267  Uiso   1.00
N67    N     0.74665   0.00647   0.23086   0.01267  Uiso   1.00
N68    N     0.24665   0.49353   0.76914   0.01267  Uiso   1.00
N69    N     0.73086   0.75335   0.99353   0.01267  Uiso   1.00
N70    N     0.26914   0.25335   0.50647   0.01267  Uiso   1.00
N71    N     0.23086   0.74665   0.00647   0.01267  Uiso   1.00
N72    N     0.76914   0.24665   0.49353   0.01267  Uiso   1.00
N73    N     0.95852   0.22549   0.23171   0.01267  Uiso   1.00
N74    N     0.54148   0.77451   0.73171   0.01267  Uiso   1.00
N75    N     0.04148   0.72549   0.26829   0.01267  Uiso   1.00
N76    N     0.45852   0.27451   0.76829   0.01267  Uiso   1.00
N77    N     0.23171   0.95852   0.22549   0.01267  Uiso   1.00
N78    N     0.73171   0.54148   0.77451   0.01267  Uiso   1.00
N79    N     0.26829   0.04148   0.72549   0.01267  Uiso   1.00
N80    N     0.76829   0.45852   0.27451   0.01267  Uiso   1.00
N81    N     0.22549   0.23171   0.95852   0.01267  Uiso   1.00
N82    N     0.77451   0.73171   0.54148   0.01267  Uiso   1.00
N83    N     0.72549   0.26829   0.04148   0.01267  Uiso   1.00
N84    N     0.27451   0.76829   0.45852   0.01267  Uiso   1.00
N85    N     0.04148   0.77451   0.76829   0.01267  Uiso   1.00
N86    N     0.45852   0.22549   0.26829   0.01267  Uiso   1.00
N87    N     0.95852   0.27451   0.73171   0.01267  Uiso   1.00
N88    N     0.54148   0.72549   0.23171   0.01267  Uiso   1.00
N89    N     0.76829   0.04148   0.77451   0.01267  Uiso   1.00
N90    N     0.26829   0.45852   0.22549   0.01267  Uiso   1.00
N91    N     0.73171   0.95852   0.27451   0.01267  Uiso   1.00
N92    N     0.23171   0.54148   0.72549   0.01267  Uiso   1.00
N93    N     0.77451   0.76829   0.04148   0.01267  Uiso   1.00
N94    N     0.22549   0.26829   0.45852   0.01267  Uiso   1.00
N95    N     0.27451   0.73171   0.95852   0.01267  Uiso   1.00
N96    N     0.72549   0.23171   0.54148   0.01267  Uiso   1.00
N97    N     0.97001   0.15266   0.15660   0.01267  Uiso   1.00
N98    N     0.52999   0.84734   0.65660   0.01267  Uiso   1.00
N99    N     0.02999   0.65266   0.34340   0.01267  Uiso   1.00
N100   N     0.47001   0.34734   0.84340   0.01267  Uiso   1.00
N101   N     0.15660   0.97001   0.15266   0.01267  Uiso   1.00
N102   N     0.65660   0.52999   0.84734   0.01267  Uiso   1.00
N103   N     0.34340   0.02999   0.65266   0.01267  Uiso   1.00
N104   N     0.84340   0.47001   0.34734   0.01267  Uiso   1.00
N105   N     0.15266   0.15660   0.97001   0.01267  Uiso   1.00
N106   N     0.84734   0.65660   0.52999   0.01267  Uiso   1.00
N107   N     0.65266   0.34340   0.02999   0.01267  Uiso   1.00
N108   N     0.34734   0.84340   0.47001   0.01267  Uiso   1.00
N109   N     0.02999   0.84734   0.84340   0.01267  Uiso   1.00
N110   N     0.47001   0.15266   0.34340   0.01267  Uiso   1.00
N111   N     0.97001   0.34734   0.65660   0.01267  Uiso   1.00
N112   N     0.52999   0.65266   0.15660   0.01267  Uiso   1.00
N113   N     0.84340   0.02999   0.84734   0.01267  Uiso   1.00
N114   N     0.34340   0.47001   0.15266   0.01267  Uiso   1.00
N115   N     0.65660   0.97001   0.34734   0.01267  Uiso   1.00
N116   N     0.15660   0.52999   0.65266   0.01267  Uiso   1.00
N117   N     0.84734   0.84340   0.02999   0.01267  Uiso   1.00
N118   N     0.15266   0.34340   0.47001   0.01267  Uiso   1.00
N119   N     0.34734   0.65660   0.97001   0.01267  Uiso   1.00
N120   N     0.65266   0.15660   0.52999   0.01267  Uiso   1.00
N121   N     0.95779   0.16408   0.09275   0.01267  Uiso   1.00
N122   N     0.54221   0.83592   0.59275   0.01267  Uiso   1.00
N123   N     0.04221   0.66408   0.40725   0.01267  Uiso   1.00
N124   N     0.45779   0.33592   0.90725   0.01267  Uiso   1.00
N125   N     0.09275   0.95779   0.16408   0.01267  Uiso   1.00
N126   N     0.59275   0.54221   0.83592   0.01267  Uiso   1.00
N127   N     0.40725   0.04221   0.66408   0.01267  Uiso   1.00
N128   N     0.90725   0.45779   0.33592   0.01267  Uiso   1.00
N129   N     0.16408   0.09275   0.95779   0.01267  Uiso   1.00
N130   N     0.83592   0.59275   0.54221   0.01267  Uiso   1.00
N131   N     0.66408   0.40725   0.04221   0.01267  Uiso   1.00
N132   N     0.33592   0.90725   0.45779   0.01267  Uiso   1.00
N133   N     0.04221   0.83592   0.90725   0.01267  Uiso   1.00
N134   N     0.45779   0.16408   0.40725   0.01267  Uiso   1.00
N135   N     0.95779   0.33592   0.59275   0.01267  Uiso   1.00
N136   N     0.54221   0.66408   0.09275   0.01267  Uiso   1.00
N137   N     0.90725   0.04221   0.83592   0.01267  Uiso   1.00
N138   N     0.40725   0.45779   0.16408   0.01267  Uiso   1.00
N139   N     0.59275   0.95779   0.33592   0.01267  Uiso   1.00
N140   N     0.09275   0.54221   0.66408   0.01267  Uiso   1.00
N141   N     0.83592   0.90725   0.04221   0.01267  Uiso   1.00
N142   N     0.16408   0.40725   0.45779   0.01267  Uiso   1.00
N143   N     0.33592   0.59275   0.95779   0.01267  Uiso   1.00
N144   N     0.66408   0.09275   0.54221   0.01267  Uiso   1.00
N145   N     0.92031   0.20354   0.17407   0.01267  Uiso   1.00
N146   N     0.57969   0.79646   0.67407   0.01267  Uiso   1.00
N147   N     0.07969   0.70354   0.32593   0.01267  Uiso   1.00
N148   N     0.42031   0.29646   0.82593   0.01267  Uiso   1.00
N149   N     0.17407   0.92031   0.20354   0.01267  Uiso   1.00
N150   N     0.67407   0.57969   0.79646   0.01267  Uiso   1.00
N151   N     0.32593   0.07969   0.70354   0.01267  Uiso   1.00
N152   N     0.82593   0.42031   0.29646   0.01267  Uiso   1.00
N153   N     0.20354   0.17407   0.92031   0.01267  Uiso   1.00
N154   N     0.79646   0.67407   0.57969   0.01267  Uiso   1.00
N155   N     0.70354   0.32593   0.07969   0.01267  Uiso   1.00
N156   N     0.29646   0.82593   0.42031   0.01267  Uiso   1.00
N157   N     0.07969   0.79646   0.82593   0.01267  Uiso   1.00
N158   N     0.42031   0.20354   0.32593   0.01267  Uiso   1.00
N159   N     0.92031   0.29646   0.67407   0.01267  Uiso   1.00
N160   N     0.57969   0.70354   0.17407   0.01267  Uiso   1.00
N161   N     0.82593   0.07969   0.79646   0.01267  Uiso   1.00
N162   N     0.32593   0.42031   0.20354   0.01267  Uiso   1.00
N163   N     0.67407   0.92031   0.29646   0.01267  Uiso   1.00
N164   N     0.17407   0.57969   0.70354   0.01267  Uiso   1.00
N165   N     0.79646   0.82593   0.07969   0.01267  Uiso   1.00
N166   N     0.20354   0.32593   0.42031   0.01267  Uiso   1.00
N167   N     0.29646   0.67407   0.92031   0.01267  Uiso   1.00
N168   N     0.70354   0.17407   0.57969   0.01267  Uiso   1.00
N169   N     0.90551   0.21166   0.10909   0.01267  Uiso   1.00
N170   N     0.59449   0.78834   0.60909   0.01267  Uiso   1.00
N171   N     0.09449   0.71166   0.39091   0.01267  Uiso   1.00
N172   N     0.40551   0.28834   0.89091   0.01267  Uiso   1.00
N173   N     0.10909   0.90551   0.21166   0.01267  Uiso   1.00
N174   N     0.60909   0.59449   0.78834   0.01267  Uiso   1.00
N175   N     0.39091   0.09449   0.71166   0.01267  Uiso   1.00
N176   N     0.89091   0.40551   0.28834   0.01267  Uiso   1.00
N177   N     0.21166   0.10909   0.90551   0.01267  Uiso   1.00
N178   N     0.78834   0.60909   0.59449   0.01267  Uiso   1.00
N179   N     0.71166   0.39091   0.09449   0.01267  Uiso   1.00
N180   N     0.28834   0.89091   0.40551   0.01267  Uiso   1.00
N181   N     0.09449   0.78834   0.89091   0.01267  Uiso   1.00
N182   N     0.40551   0.21166   0.39091   0.01267  Uiso   1.00
N183   N     0.90551   0.28834   0.60909   0.01267  Uiso   1.00
N184   N     0.59449   0.71166   0.10909   0.01267  Uiso   1.00
N185   N     0.89091   0.09449   0.78834   0.01267  Uiso   1.00
N186   N     0.39091   0.40551   0.21166   0.01267  Uiso   1.00
N187   N     0.60909   0.90551   0.28834   0.01267  Uiso   1.00
N188   N     0.10909   0.59449   0.71166   0.01267  Uiso   1.00
N189   N     0.78834   0.89091   0.09449   0.01267  Uiso   1.00
N190   N     0.21166   0.39091   0.40551   0.01267  Uiso   1.00
N191   N     0.28834   0.60909   0.90551   0.01267  Uiso   1.00
N192   N     0.71166   0.10909   0.59449   0.01267  Uiso   1.00
N193   N     0.97393   0.20004   0.03088   0.01267  Uiso   1.00
N194   N     0.52607   0.79996   0.53088   0.01267  Uiso   1.00
N195   N     0.02607   0.70004   0.46912   0.01267  Uiso   1.00
N196   N     0.47393   0.29996   0.96912   0.01267  Uiso   1.00
N197   N     0.03088   0.97393   0.20004   0.01267  Uiso   1.00
N198   N     0.53088   0.52607   0.79996   0.01267  Uiso   1.00
N199   N     0.46912   0.02607   0.70004   0.01267  Uiso   1.00
N200   N     0.96912   0.47393   0.29996   0.01267  Uiso   1.00
N201   N     0.20004   0.03088   0.97393   0.01267  Uiso   1.00
N202   N     0.79996   0.53088   0.52607   0.01267  Uiso   1.00
N203   N     0.70004   0.46912   0.02607   0.01267  Uiso   1.00
N204   N     0.29996   0.96912   0.47393   0.01267  Uiso   1.00
N205   N     0.02607   0.79996   0.96912   0.01267  Uiso   1.00
N206   N     0.47393   0.20004   0.46912   0.01267  Uiso   1.00
N207   N     0.97393   0.29996   0.53088   0.01267  Uiso   1.00
N208   N     0.52607   0.70004   0.03088   0.01267  Uiso   1.00
N209   N     0.96912   0.02607   0.79996   0.01267  Uiso   1.00
N210   N     0.46912   0.47393   0.20004   0.01267  Uiso   1.00
N211   N     0.53088   0.97393   0.29996   0.01267  Uiso   1.00
N212   N     0.03088   0.52607   0.70004   0.01267  Uiso   1.00
N213   N     0.79996   0.96912   0.02607   0.01267  Uiso   1.00
N214   N     0.20004   0.46912   0.47393   0.01267  Uiso   1.00
N215   N     0.29996   0.53088   0.97393   0.01267  Uiso   1.00
N216   N     0.70004   0.03088   0.52607   0.01267  Uiso   1.00
N217   N     0.01191   0.24854   0.00702   0.01267  Uiso   1.00
N218   N     0.48809   0.75146   0.50702   0.01267  Uiso   1.00
N219   N     0.98809   0.74854   0.49298   0.01267  Uiso   1.00
N220   N     0.51191   0.25146   0.99298   0.01267  Uiso   1.00
N221   N     0.00702   0.01191   0.24854   0.01267  Uiso   1.00
N222   N     0.50702   0.48809   0.75146   0.01267  Uiso   1.00
N223   N     0.49298   0.98809   0.74854   0.01267  Uiso   1.00
N224   N     0.99298   0.51191   0.25146   0.01267  Uiso   1.00
N225   N     0.24854   0.00702   0.01191   0.01267  Uiso   1.00
N226   N     0.75146   0.50702   0.48809   0.01267  Uiso   1.00
N227   N     0.74854   0.49298   0.98809   0.01267  Uiso   1.00
N228   N     0.25146   0.99298   0.51191   0.01267  Uiso   1.00
N229   N     0.98809   0.75146   0.99298   0.01267  Uiso   1.00
N230   N     0.51191   0.24854   0.49298   0.01267  Uiso   1.00
N231   N     0.01191   0.25146   0.50702   0.01267  Uiso   1.00
N232   N     0.48809   0.74854   0.00702   0.01267  Uiso   1.00
N233   N     0.99298   0.98809   0.75146   0.01267  Uiso   1.00
N234   N     0.49298   0.51191   0.24854   0.01267  Uiso   1.00
N235   N     0.50702   0.01191   0.25146   0.01267  Uiso   1.00
N236   N     0.00702   0.48809   0.74854   0.01267  Uiso   1.00
N237   N     0.75146   0.99298   0.98809   0.01267  Uiso   1.00
N238   N     0.24854   0.49298   0.51191   0.01267  Uiso   1.00
N239   N     0.25146   0.50702   0.01191   0.01267  Uiso   1.00
N240   N     0.74854   0.00702   0.48809   0.01267  Uiso   1.00
N241   N     0.92273   0.24895   0.04918   0.01267  Uiso   1.00
N242   N     0.57727   0.75105   0.54918   0.01267  Uiso   1.00
N243   N     0.07727   0.74895   0.45082   0.01267  Uiso   1.00
N244   N     0.42273   0.25105   0.95082   0.01267  Uiso   1.00
N245   N     0.04918   0.92273   0.24895   0.01267  Uiso   1.00
N246   N     0.54918   0.57727   0.75105   0.01267  Uiso   1.00
N247   N     0.45082   0.07727   0.74895   0.01267  Uiso   1.00
N248   N     0.95082   0.42273   0.25105   0.01267  Uiso   1.00
N249   N     0.24895   0.04918   0.92273   0.01267  Uiso   1.00
N250   N     0.75105   0.54918   0.57727   0.01267  Uiso   1.00
N251   N     0.74895   0.45082   0.07727   0.01267  Uiso   1.00
N252   N     0.25105   0.95082   0.42273   0.01267  Uiso   1.00
N253   N     0.07727   0.75105   0.95082   0.01267  Uiso   1.00
N254   N     0.42273   0.24895   0.45082   0.01267  Uiso   1.00
N255   N     0.92273   0.25105   0.54918   0.01267  Uiso   1.00
N256   N     0.57727   0.74895   0.04918   0.01267  Uiso   1.00
N257   N     0.95082   0.07727   0.75105   0.01267  Uiso   1.00
N258   N     0.45082   0.42273   0.24895   0.01267  Uiso   1.00
N259   N     0.54918   0.92273   0.25105   0.01267  Uiso   1.00
N260   N     0.04918   0.57727   0.74895   0.01267  Uiso   1.00
N261   N     0.75105   0.95082   0.07727   0.01267  Uiso   1.00
N262   N     0.24895   0.45082   0.42273   0.01267  Uiso   1.00
N263   N     0.25105   0.54918   0.92273   0.01267  Uiso   1.00
N264   N     0.74895   0.04918   0.57727   0.01267  Uiso   1.00
N265   N     0.96249   0.29787   0.02654   0.01267  Uiso   1.00
N266   N     0.53751   0.70213   0.52654   0.01267  Uiso   1.00
N267   N     0.03751   0.79787   0.47346   0.01267  Uiso   1.00
N268   N     0.46249   0.20213   0.97346   0.01267  Uiso   1.00
N269   N     0.02654   0.96249   0.29787   0.01267  Uiso   1.00
N270   N     0.52654   0.53751   0.70213   0.01267  Uiso   1.00
N271   N     0.47346   0.03751   0.79787   0.01267  Uiso   1.00
N272   N     0.97346   0.46249   0.20213   0.01267  Uiso   1.00
N273   N     0.29787   0.02654   0.96249   0.01267  Uiso   1.00
N274   N     0.70213   0.52654   0.53751   0.01267  Uiso   1.00
N275   N     0.79787   0.47346   0.03751   0.01267  Uiso   1.00
N276   N     0.20213   0.97346   0.46249   0.01267  Uiso   1.00
N277   N     0.03751   0.70213   0.97346   0.01267  Uiso   1.00
N278   N     0.46249   0.29787   0.47346   0.01267  Uiso   1.00
N279   N     0.96249   0.20213   0.52654   0.01267  Uiso   1.00
N280   N     0.53751   0.79787   0.02654   0.01267  Uiso   1.00
N281   N     0.97346   0.03751   0.70213   0.01267  Uiso   1.00
N282   N     0.47346   0.46249   0.29787   0.01267  Uiso   1.00
N283   N     0.52654   0.96249   0.20213   0.01267  Uiso   1.00
N284   N     0.02654   0.53751   0.79787   0.01267  Uiso   1.00
N285   N     0.70213   0.97346   0.03751   0.01267  Uiso   1.00
N286   N     0.29787   0.47346   0.46249   0.01267  Uiso   1.00
N287   N     0.20213   0.52654   0.96249   0.01267  Uiso   1.00
N288   N     0.79787   0.02654   0.53751   0.01267  Uiso   1.00
N289   N     0.06288   0.29527   0.02900   0.01267  Uiso   1.00
N290   N     0.43712   0.70473   0.52900   0.01267  Uiso   1.00
N291   N     0.93712   0.79527   0.47100   0.01267  Uiso   1.00
N292   N     0.56288   0.20473   0.97100   0.01267  Uiso   1.00
N293   N     0.02900   0.06288   0.29527   0.01267  Uiso   1.00
N294   N     0.52900   0.43712   0.70473   0.01267  Uiso   1.00
N295   N     0.47100   0.93712   0.79527   0.01267  Uiso   1.00
N296   N     0.97100   0.56288   0.20473   0.01267  Uiso   1.00
N297   N     0.29527   0.02900   0.06288   0.01267  Uiso   1.00
N298   N     0.70473   0.52900   0.43712   0.01267  Uiso   1.00
N299   N     0.79527   0.47100   0.93712   0.01267  Uiso   1.00
N300   N     0.20473   0.97100   0.56288   0.01267  Uiso   1.00
N301   N     0.93712   0.70473   0.97100   0.01267  Uiso   1.00
N302   N     0.56288   0.29527   0.47100   0.01267  Uiso   1.00
N303   N     0.06288   0.20473   0.52900   0.01267  Uiso   1.00
N304   N     0.43712   0.79527   0.02900   0.01267  Uiso   1.00
N305   N     0.97100   0.93712   0.70473   0.01267  Uiso   1.00
N306   N     0.47100   0.56288   0.29527   0.01267  Uiso   1.00
N307   N     0.52900   0.06288   0.20473   0.01267  Uiso   1.00
N308   N     0.02900   0.43712   0.79527   0.01267  Uiso   1.00
N309   N     0.70473   0.97100   0.93712   0.01267  Uiso   1.00
N310   N     0.29527   0.47100   0.56288   0.01267  Uiso   1.00
N311   N     0.20473   0.52900   0.06288   0.01267  Uiso   1.00
N312   N     0.79527   0.02900   0.43712   0.01267  Uiso   1.00
N313   N     0.10215   0.31767   0.07920   0.01267  Uiso   1.00
N314   N     0.39785   0.68233   0.57920   0.01267  Uiso   1.00
N315   N     0.89785   0.81767   0.42080   0.01267  Uiso   1.00
N316   N     0.60215   0.18233   0.92080   0.01267  Uiso   1.00
N317   N     0.07920   0.10215   0.31767   0.01267  Uiso   1.00
N318   N     0.57920   0.39785   0.68233   0.01267  Uiso   1.00
N319   N     0.42080   0.89785   0.81767   0.01267  Uiso   1.00
N320   N     0.92080   0.60215   0.18233   0.01267  Uiso   1.00
N321   N     0.31767   0.07920   0.10215   0.01267  Uiso   1.00
N322   N     0.68233   0.57920   0.39785   0.01267  Uiso   1.00
N323   N     0.81767   0.42080   0.89785   0.01267  Uiso   1.00
N324   N     0.18233   0.92080   0.60215   0.01267  Uiso   1.00
N325   N     0.89785   0.68233   0.92080   0.01267  Uiso   1.00
N326   N     0.60215   0.31767   0.42080   0.01267  Uiso   1.00
N327   N     0.10215   0.18233   0.57920   0.01267  Uiso   1.00
N328   N     0.39785   0.81767   0.07920   0.01267  Uiso   1.00
N329   N     0.92080   0.89785   0.68233   0.01267  Uiso   1.00
N330   N     0.42080   0.60215   0.31767   0.01267  Uiso   1.00
N331   N     0.57920   0.10215   0.18233   0.01267  Uiso   1.00
N332   N     0.07920   0.39785   0.81767   0.01267  Uiso   1.00
N333   N     0.68233   0.92080   0.89785   0.01267  Uiso   1.00
N334   N     0.31767   0.42080   0.60215   0.01267  Uiso   1.00
N335   N     0.18233   0.57920   0.10215   0.01267  Uiso   1.00
N336   N     0.81767   0.07920   0.39785   0.01267  Uiso   1.00
N337   N     0.01257   0.34641   0.04582   0.01267  Uiso   1.00
N338   N     0.48743   0.65359   0.54582   0.01267  Uiso   1.00
N339   N     0.98743   0.84641   0.45418   0.01267  Uiso   1.00
N340   N     0.51257   0.15359   0.95418   0.01267  Uiso   1.00
N341   N     0.04582   0.01257   0.34641   0.01267  Uiso   1.00
N342   N     0.54582   0.48743   0.65359   0.01267  Uiso   1.00
N343   N     0.45418   0.98743   0.84641   0.01267  Uiso   1.00
N344   N     0.95418   0.51257   0.15359   0.01267  Uiso   1.00
N345   N     0.34641   0.04582   0.01257   0.01267  Uiso   1.00
N346   N     0.65359   0.54582   0.48743   0.01267  Uiso   1.00
N347   N     0.84641   0.45418   0.98743   0.01267  Uiso   1.00
N348   N     0.15359   0.95418   0.51257   0.01267  Uiso   1.00
N349   N     0.98743   0.65359   0.95418   0.01267  Uiso   1.00
N350   N     0.51257   0.34641   0.45418   0.01267  Uiso   1.00
N351   N     0.01257   0.15359   0.54582   0.01267  Uiso   1.00
N352   N     0.48743   0.84641   0.04582   0.01267  Uiso   1.00
N353   N     0.95418   0.98743   0.65359   0.01267  Uiso   1.00
N354   N     0.45418   0.51257   0.34641   0.01267  Uiso   1.00
N355   N     0.54582   0.01257   0.15359   0.01267  Uiso   1.00
N356   N     0.04582   0.48743   0.84641   0.01267  Uiso   1.00
N357   N     0.65359   0.95418   0.98743   0.01267  Uiso   1.00
N358   N     0.34641   0.45418   0.51257   0.01267  Uiso   1.00
N359   N     0.15359   0.54582   0.01257   0.01267  Uiso   1.00
N360   N     0.84641   0.04582   0.48743   0.01267  Uiso   1.00
N361   N     0.04996   0.36540   0.09702   0.01267  Uiso   1.00
N362   N     0.45004   0.63460   0.59702   0.01267  Uiso   1.00
N363   N     0.95004   0.86540   0.40298   0.01267  Uiso   1.00
N364   N     0.54996   0.13460   0.90298   0.01267  Uiso   1.00
N365   N     0.09702   0.04996   0.36540   0.01267  Uiso   1.00
N366   N     0.59702   0.45004   0.63460   0.01267  Uiso   1.00
N367   N     0.40298   0.95004   0.86540   0.01267  Uiso   1.00
N368   N     0.90298   0.54996   0.13460   0.01267  Uiso   1.00
N369   N     0.36540   0.09702   0.04996   0.01267  Uiso   1.00
N370   N     0.63460   0.59702   0.45004   0.01267  Uiso   1.00
N371   N     0.86540   0.40298   0.95004   0.01267  Uiso   1.00
N372   N     0.13460   0.90298   0.54996   0.01267  Uiso   1.00
N373   N     0.95004   0.63460   0.90298   0.01267  Uiso   1.00
N374   N     0.54996   0.36540   0.40298   0.01267  Uiso   1.00
N375   N     0.04996   0.13460   0.59702   0.01267  Uiso   1.00
N376   N     0.45004   0.86540   0.09702   0.01267  Uiso   1.00
N377   N     0.90298   0.95004   0.63460   0.01267  Uiso   1.00
N378   N     0.40298   0.54996   0.36540   0.01267  Uiso   1.00
N379   N     0.59702   0.04996   0.13460   0.01267  Uiso   1.00
N380   N     0.09702   0.45004   0.86540   0.01267  Uiso   1.00
N381   N     0.63460   0.90298   0.95004   0.01267  Uiso   1.00
N382   N     0.36540   0.40298   0.54996   0.01267  Uiso   1.00
N383   N     0.13460   0.59702   0.04996   0.01267  Uiso   1.00
N384   N     0.86540   0.09702   0.45004   0.01267  Uiso   1.00
N385   N     0.11637   0.30898   0.14977   0.01267  Uiso   1.00
N386   N     0.38363   0.69102   0.64977   0.01267  Uiso   1.00
N387   N     0.88363   0.80898   0.35023   0.01267  Uiso   1.00
N388   N     0.61637   0.19102   0.85023   0.01267  Uiso   1.00
N389   N     0.14977   0.11637   0.30898   0.01267  Uiso   1.00
N390   N     0.64977   0.38363   0.69102   0.01267  Uiso   1.00
N391   N     0.35023   0.88363   0.80898   0.01267  Uiso   1.00
N392   N     0.85023   0.61637   0.19102   0.01267  Uiso   1.00
N393   N     0.30898   0.14977   0.11637   0.01267  Uiso   1.00
N394   N     0.69102   0.64977   0.38363   0.01267  Uiso   1.00
N395   N     0.80898   0.35023   0.88363   0.01267  Uiso   1.00
N396   N     0.19102   0.85023   0.61637   0.01267  Uiso   1.00
N397   N     0.88363   0.69102   0.85023   0.01267  Uiso   1.00
N398   N     0.61637   0.30898   0.35023   0.01267  Uiso   1.00
N399   N     0.11637   0.19102   0.64977   0.01267  Uiso   1.00
N400   N     0.38363   0.80898   0.14977   0.01267  Uiso   1.00
N401   N     0.85023   0.88363   0.69102   0.01267  Uiso   1.00
N402   N     0.35023   0.61637   0.30898   0.01267  Uiso   1.00
N403   N     0.64977   0.11637   0.19102   0.01267  Uiso   1.00
N404   N     0.14977   0.38363   0.80898   0.01267  Uiso   1.00
N405   N     0.69102   0.85023   0.88363   0.01267  Uiso   1.00
N406   N     0.30898   0.35023   0.61637   0.01267  Uiso   1.00
N407   N     0.19102   0.64977   0.11637   0.01267  Uiso   1.00
N408   N     0.80898   0.14977   0.38363   0.01267  Uiso   1.00
N409   N     0.09958   0.27316   0.20315   0.01267  Uiso   1.00
N410   N     0.40042   0.72684   0.70315   0.01267  Uiso   1.00
N411   N     0.90042   0.77316   0.29685   0.01267  Uiso   1.00
N412   N     0.59958   0.22684   0.79685   0.01267  Uiso   1.00
N413   N     0.20315   0.09958   0.27316   0.01267  Uiso   1.00
N414   N     0.70315   0.40042   0.72684   0.01267  Uiso   1.00
N415   N     0.29685   0.90042   0.77316   0.01267  Uiso   1.00
N416   N     0.79685   0.59958   0.22684   0.01267  Uiso   1.00
N417   N     0.27316   0.20315   0.09958   0.01267  Uiso   1.00
N418   N     0.72684   0.70315   0.40042   0.01267  Uiso   1.00
N419   N     0.77316   0.29685   0.90042   0.01267  Uiso   1.00
N420   N     0.22684   0.79685   0.59958   0.01267  Uiso   1.00
N421   N     0.90042   0.72684   0.79685   0.01267  Uiso   1.00
N422   N     0.59958   0.27316   0.29685   0.01267  Uiso   1.00
N423   N     0.09958   0.22684   0.70315   0.01267  Uiso   1.00
N424   N     0.40042   0.77316   0.20315   0.01267  Uiso   1.00
N425   N     0.79685   0.90042   0.72684   0.01267  Uiso   1.00
N426   N     0.29685   0.59958   0.27316   0.01267  Uiso   1.00
N427   N     0.70315   0.09958   0.22684   0.01267  Uiso   1.00
N428   N     0.20315   0.40042   0.77316   0.01267  Uiso   1.00
N429   N     0.72684   0.79685   0.90042   0.01267  Uiso   1.00
N430   N     0.27316   0.29685   0.59958   0.01267  Uiso   1.00
N431   N     0.22684   0.70315   0.09958   0.01267  Uiso   1.00
N432   N     0.77316   0.20315   0.40042   0.01267  Uiso   1.00
N433   N     0.06549   0.35891   0.16780   0.01267  Uiso   1.00
N434   N     0.43451   0.64109   0.66780   0.01267  Uiso   1.00
N435   N     0.93451   0.85891   0.33220   0.01267  Uiso   1.00
N436   N     0.56549   0.14109   0.83220   0.01267  Uiso   1.00
N437   N     0.16780   0.06549   0.35891   0.01267  Uiso   1.00
N438   N     0.66780   0.43451   0.64109   0.01267  Uiso   1.00
N439   N     0.33220   0.93451   0.85891   0.01267  Uiso   1.00
N440   N     0.83220   0.56549   0.14109   0.01267  Uiso   1.00
N441   N     0.35891   0.16780   0.06549   0.01267  Uiso   1.00
N442   N     0.64109   0.66780   0.43451   0.01267  Uiso   1.00
N443   N     0.85891   0.33220   0.93451   0.01267  Uiso   1.00
N444   N     0.14109   0.83220   0.56549   0.01267  Uiso   1.00
N445   N     0.93451   0.64109   0.83220   0.01267  Uiso   1.00
N446   N     0.56549   0.35891   0.33220   0.01267  Uiso   1.00
N447   N     0.06549   0.14109   0.66780   0.01267  Uiso   1.00
N448   N     0.43451   0.85891   0.16780   0.01267  Uiso   1.00
N449   N     0.83220   0.93451   0.64109   0.01267  Uiso   1.00
N450   N     0.33220   0.56549   0.35891   0.01267  Uiso   1.00
N451   N     0.66780   0.06549   0.14109   0.01267  Uiso   1.00
N452   N     0.16780   0.43451   0.85891   0.01267  Uiso   1.00
N453   N     0.64109   0.83220   0.93451   0.01267  Uiso   1.00
N454   N     0.35891   0.33220   0.56549   0.01267  Uiso   1.00
N455   N     0.14109   0.66780   0.06549   0.01267  Uiso   1.00
N456   N     0.85891   0.16780   0.43451   0.01267  Uiso   1.00
N457   N     0.04936   0.32259   0.22142   0.01267  Uiso   1.00
N458   N     0.45064   0.67741   0.72142   0.01267  Uiso   1.00
N459   N     0.95064   0.82259   0.27858   0.01267  Uiso   1.00
N460   N     0.54936   0.17741   0.77858   0.01267  Uiso   1.00
N461   N     0.22142   0.04936   0.32259   0.01267  Uiso   1.00
N462   N     0.72142   0.45064   0.67741   0.01267  Uiso   1.00
N463   N     0.27858   0.95064   0.82259   0.01267  Uiso   1.00
N464   N     0.77858   0.54936   0.17741   0.01267  Uiso   1.00
N465   N     0.32259   0.22142   0.04936   0.01267  Uiso   1.00
N466   N     0.67741   0.72142   0.45064   0.01267  Uiso   1.00
N467   N     0.82259   0.27858   0.95064   0.01267  Uiso   1.00
N468   N     0.17741   0.77858   0.54936   0.01267  Uiso   1.00
N469   N     0.95064   0.67741   0.77858   0.01267  Uiso   1.00
N470   N     0.54936   0.32259   0.27858   0.01267  Uiso   1.00
N471   N     0.04936   0.17741   0.72142   0.01267  Uiso   1.00
N472   N     0.45064   0.82259   0.22142   0.01267  Uiso   1.00
N473   N     0.77858   0.95064   0.67741   0.01267  Uiso   1.00
N474   N     0.27858   0.54936   0.32259   0.01267  Uiso   1.00
N475   N     0.72142   0.04936   0.17741   0.01267  Uiso   1.00
N476   N     0.22142   0.45064   0.82259   0.01267  Uiso   1.00
N477   N     0.67741   0.77858   0.95064   0.01267  Uiso   1.00
N478   N     0.32259   0.27858   0.54936   0.01267  Uiso   1.00
N479   N     0.17741   0.72142   0.04936   0.01267  Uiso   1.00
N480   N     0.82259   0.22142   0.45064   0.01267  Uiso   1.00
O1     O     0.07008   0.17220   0.18047   0.01267  Uiso   1.00
O2     O     0.42992   0.82780   0.68047   0.01267  Uiso   1.00
O3     O     0.92992   0.67220   0.31953   0.01267  Uiso   1.00
O4     O     0.57008   0.32780   0.81953   0.01267  Uiso   1.00
O5     O     0.18047   0.07008   0.17220   0.01267  Uiso   1.00
O6     O     0.68047   0.42992   0.82780   0.01267  Uiso   1.00
O7     O     0.31953   0.92992   0.67220   0.01267  Uiso   1.00
O8     O     0.81953   0.57008   0.32780   0.01267  Uiso   1.00
O9     O     0.17220   0.18047   0.07008   0.01267  Uiso   1.00
O10    O     0.82780   0.68047   0.42992   0.01267  Uiso   1.00
O11    O     0.67220   0.31953   0.92992   0.01267  Uiso   1.00
O12    O     0.32780   0.81953   0.57008   0.01267  Uiso   1.00
O13    O     0.92992   0.82780   0.81953   0.01267  Uiso   1.00
O14    O     0.57008   0.17220   0.31953   0.01267  Uiso   1.00
O15    O     0.07008   0.32780   0.68047   0.01267  Uiso   1.00
O16    O     0.42992   0.67220   0.18047   0.01267  Uiso   1.00
O17    O     0.81953   0.92992   0.82780   0.01267  Uiso   1.00
O18    O     0.31953   0.57008   0.17220   0.01267  Uiso   1.00
O19    O     0.68047   0.07008   0.32780   0.01267  Uiso   1.00
O20    O     0.18047   0.42992   0.67220   0.01267  Uiso   1.00
O21    O     0.82780   0.81953   0.92992   0.01267  Uiso   1.00
O22    O     0.17220   0.31953   0.57008   0.01267  Uiso   1.00
O23    O     0.32780   0.68047   0.07008   0.01267  Uiso   1.00
O24    O     0.67220   0.18047   0.42992   0.01267  Uiso   1.00
O25    O     0.02037   0.14037   0.11054   0.01267  Uiso   1.00
O26    O     0.47963   0.85963   0.61054   0.01267  Uiso   1.00
O27    O     0.97963   0.64037   0.38946   0.01267  Uiso   1.00
O28    O     0.52037   0.35963   0.88946   0.01267  Uiso   1.00
O29    O     0.11054   0.02037   0.14037   0.01267  Uiso   1.00
O30    O     0.61054   0.47963   0.85963   0.01267  Uiso   1.00
O31    O     0.38946   0.97963   0.64037   0.01267  Uiso   1.00
O32    O     0.88946   0.52037   0.35963   0.01267  Uiso   1.00
O33    O     0.14037   0.11054   0.02037   0.01267  Uiso   1.00
O34    O     0.85963   0.61054   0.47963   0.01267  Uiso   1.00
O35    O     0.64037   0.38946   0.97963   0.01267  Uiso   1.00
O36    O     0.35963   0.88946   0.52037   0.01267  Uiso   1.00
O37    O     0.97963   0.85963   0.88946   0.01267  Uiso   1.00
O38    O     0.52037   0.14037   0.38946   0.01267  Uiso   1.00
O39    O     0.02037   0.35963   0.61054   0.01267  Uiso   1.00
O40    O     0.47963   0.64037   0.11054   0.01267  Uiso   1.00
O41    O     0.88946   0.97963   0.85963   0.01267  Uiso   1.00
O42    O     0.38946   0.52037   0.14037   0.01267  Uiso   1.00
O43    O     0.61054   0.02037   0.35963   0.01267  Uiso   1.00
O44    O     0.11054   0.47963   0.64037   0.01267  Uiso   1.00
O45    O     0.85963   0.88946   0.97963   0.01267  Uiso   1.00
O46    O     0.14037   0.38946   0.52037   0.01267  Uiso   1.00
O47    O     0.35963   0.61054   0.02037   0.01267  Uiso   1.00
O48    O     0.64037   0.11054   0.47963   0.01267  Uiso   1.00
O49    O     0.04266   0.19218   0.03264   0.01267  Uiso   1.00
O50    O     0.45734   0.80782   0.53264   0.01267  Uiso   1.00
O51    O     0.95734   0.69218   0.46736   0.01267  Uiso   1.00
O52    O     0.54266   0.30782   0.96736   0.01267  Uiso   1.00
O53    O     0.03264   0.04266   0.19218   0.01267  Uiso   1.00
O54    O     0.53264   0.45734   0.80782   0.01267  Uiso   1.00
O55    O     0.46736   0.95734   0.69218   0.01267  Uiso   1.00
O56    O     0.96736   0.54266   0.30782   0.01267  Uiso   1.00
O57    O     0.19218   0.03264   0.04266   0.01267  Uiso   1.00
O58    O     0.80782   0.53264   0.45734   0.01267  Uiso   1.00
O59    O     0.69218   0.46736   0.95734   0.01267  Uiso   1.00
O60    O     0.30782   0.96736   0.54266   0.01267  Uiso   1.00
O61    O     0.95734   0.80782   0.96736   0.01267  Uiso   1.00
O62    O     0.54266   0.19218   0.46736   0.01267  Uiso   1.00
O63    O     0.04266   0.30782   0.53264   0.01267  Uiso   1.00
O64    O     0.45734   0.69218   0.03264   0.01267  Uiso   1.00
O65    O     0.96736   0.95734   0.80782   0.01267  Uiso   1.00
O66    O     0.46736   0.54266   0.19218   0.01267  Uiso   1.00
O67    O     0.53264   0.04266   0.30782   0.01267  Uiso   1.00
O68    O     0.03264   0.45734   0.69218   0.01267  Uiso   1.00
O69    O     0.80782   0.96736   0.95734   0.01267  Uiso   1.00
O70    O     0.19218   0.46736   0.54266   0.01267  Uiso   1.00
O71    O     0.30782   0.53264   0.04266   0.01267  Uiso   1.00
O72    O     0.69218   0.03264   0.45734   0.01267  Uiso   1.00
O73    O     0.10763   0.25185   0.05836   0.01267  Uiso   1.00
O74    O     0.39237   0.74815   0.55836   0.01267  Uiso   1.00
O75    O     0.89237   0.75185   0.44164   0.01267  Uiso   1.00
O76    O     0.60763   0.24815   0.94164   0.01267  Uiso   1.00
O77    O     0.05836   0.10763   0.25185   0.01267  Uiso   1.00
O78    O     0.55836   0.39237   0.74815   0.01267  Uiso   1.00
O79    O     0.44164   0.89237   0.75185   0.01267  Uiso   1.00
O80    O     0.94164   0.60763   0.24815   0.01267  Uiso   1.00
O81    O     0.25185   0.05836   0.10763   0.01267  Uiso   1.00
O82    O     0.74815   0.55836   0.39237   0.01267  Uiso   1.00
O83    O     0.75185   0.44164   0.89237   0.01267  Uiso   1.00
O84    O     0.24815   0.94164   0.60763   0.01267  Uiso   1.00
O85    O     0.89237   0.74815   0.94164   0.01267  Uiso   1.00
O86    O     0.60763   0.25185   0.44164   0.01267  Uiso   1.00
O87    O     0.10763   0.24815   0.55836   0.01267  Uiso   1.00
O88    O     0.39237   0.75185   0.05836   0.01267  Uiso   1.00
O89    O     0.94164   0.89237   0.74815   0.01267  Uiso   1.00
O90    O     0.44164   0.60763   0.25185   0.01267  Uiso   1.00
O91    O     0.55836   0.10763   0.24815   0.01267  Uiso   1.00
O92    O     0.05836   0.39237   0.75185   0.01267  Uiso   1.00
O93    O     0.74815   0.94164   0.89237   0.01267  Uiso   1.00
O94    O     0.25185   0.44164   0.60763   0.01267  Uiso   1.00
O95    O     0.24815   0.55836   0.10763   0.01267  Uiso   1.00
O96    O     0.75185   0.05836   0.39237   0.01267  Uiso   1.00
O97    O     0.12802   0.24131   0.14890   0.01267  Uiso   1.00
O98    O     0.37198   0.75869   0.64890   0.01267  Uiso   1.00
O99    O     0.87198   0.74131   0.35110   0.01267  Uiso   1.00
O100   O     0.62802   0.25869   0.85110   0.01267  Uiso   1.00
O101   O     0.14890   0.12802   0.24131   0.01267  Uiso   1.00
O102   O     0.64890   0.37198   0.75869   0.01267  Uiso   1.00
O103   O     0.35110   0.87198   0.74131   0.01267  Uiso   1.00
O104   O     0.85110   0.62802   0.25869   0.01267  Uiso   1.00
O105   O     0.24131   0.14890   0.12802   0.01267  Uiso   1.00
O106   O     0.75869   0.64890   0.37198   0.01267  Uiso   1.00
O107   O     0.74131   0.35110   0.87198   0.01267  Uiso   1.00
O108   O     0.25869   0.85110   0.62802   0.01267  Uiso   1.00
O109   O     0.87198   0.75869   0.85110   0.01267  Uiso   1.00
O110   O     0.62802   0.24131   0.35110   0.01267  Uiso   1.00
O111   O     0.12802   0.25869   0.64890   0.01267  Uiso   1.00
O112   O     0.37198   0.74131   0.14890   0.01267  Uiso   1.00
O113   O     0.85110   0.87198   0.75869   0.01267  Uiso   1.00
O114   O     0.35110   0.62802   0.24131   0.01267  Uiso   1.00
O115   O     0.64890   0.12802   0.25869   0.01267  Uiso   1.00
O116   O     0.14890   0.37198   0.74131   0.01267  Uiso   1.00
O117   O     0.75869   0.85110   0.87198   0.01267  Uiso   1.00
O118   O     0.24131   0.35110   0.62802   0.01267  Uiso   1.00
O119   O     0.25869   0.64890   0.12802   0.01267  Uiso   1.00
O120   O     0.74131   0.14890   0.37198   0.01267  Uiso   1.00
O121   O     0.94528   0.29352   0.22505   0.01267  Uiso   1.00
O122   O     0.55472   0.70648   0.72505   0.01267  Uiso   1.00
O123   O     0.05472   0.79352   0.27495   0.01267  Uiso   1.00
O124   O     0.44528   0.20648   0.77495   0.01267  Uiso   1.00
O125   O     0.22505   0.94528   0.29352   0.01267  Uiso   1.00
O126   O     0.72505   0.55472   0.70648   0.01267  Uiso   1.00
O127   O     0.27495   0.05472   0.79352   0.01267  Uiso   1.00
O128   O     0.77495   0.44528   0.20648   0.01267  Uiso   1.00
O129   O     0.29352   0.22505   0.94528   0.01267  Uiso   1.00
O130   O     0.70648   0.72505   0.55472   0.01267  Uiso   1.00
O131   O     0.79352   0.27495   0.05472   0.01267  Uiso   1.00
O132   O     0.20648   0.77495   0.44528   0.01267  Uiso   1.00
O133   O     0.05472   0.70648   0.77495   0.01267  Uiso   1.00
O134   O     0.44528   0.29352   0.27495   0.01267  Uiso   1.00
O135   O     0.94528   0.20648   0.72505   0.01267  Uiso   1.00
O136   O     0.55472   0.79352   0.22505   0.01267  Uiso   1.00
O137   O     0.77495   0.05472   0.70648   0.01267  Uiso   1.00
O138   O     0.27495   0.44528   0.29352   0.01267  Uiso   1.00
O139   O     0.72505   0.94528   0.20648   0.01267  Uiso   1.00
O140   O     0.22505   0.55472   0.79352   0.01267  Uiso   1.00
O141   O     0.70648   0.77495   0.05472   0.01267  Uiso   1.00
O142   O     0.29352   0.27495   0.44528   0.01267  Uiso   1.00
O143   O     0.20648   0.72505   0.94528   0.01267  Uiso   1.00
O144   O     0.79352   0.22505   0.55472   0.01267  Uiso   1.00
O145   O     0.89209   0.26398   0.15368   0.01267  Uiso   1.00
O146   O     0.60791   0.73602   0.65368   0.01267  Uiso   1.00
O147   O     0.10791   0.76398   0.34632   0.01267  Uiso   1.00
O148   O     0.39209   0.23602   0.84632   0.01267  Uiso   1.00
O149   O     0.15368   0.89209   0.26398   0.01267  Uiso   1.00
O150   O     0.65368   0.60791   0.73602   0.01267  Uiso   1.00
O151   O     0.34632   0.10791   0.76398   0.01267  Uiso   1.00
O152   O     0.84632   0.39209   0.23602   0.01267  Uiso   1.00
O153   O     0.26398   0.15368   0.89209   0.01267  Uiso   1.00
O154   O     0.73602   0.65368   0.60791   0.01267  Uiso   1.00
O155   O     0.76398   0.34632   0.10791   0.01267  Uiso   1.00
O156   O     0.23602   0.84632   0.39209   0.01267  Uiso   1.00
O157   O     0.10791   0.73602   0.84632   0.01267  Uiso   1.00
O158   O     0.39209   0.26398   0.34632   0.01267  Uiso   1.00
O159   O     0.89209   0.23602   0.65368   0.01267  Uiso   1.00
O160   O     0.60791   0.76398   0.15368   0.01267  Uiso   1.00
O161   O     0.84632   0.10791   0.73602   0.01267  Uiso   1.00
O162   O     0.34632   0.39209   0.26398   0.01267  Uiso   1.00
O163   O     0.65368   0.89209   0.23602   0.01267  Uiso   1.00
O164   O     0.15368   0.60791   0.76398   0.01267  Uiso   1.00
O165   O     0.73602   0.84632   0.10791   0.01267  Uiso   1.00
O166   O     0.26398   0.34632   0.39209   0.01267  Uiso   1.00
O167   O     0.23602   0.65368   0.89209   0.01267  Uiso   1.00
O168   O     0.76398   0.15368   0.60791   0.01267  Uiso   1.00
O169   O     0.91705   0.31172   0.07753   0.01267  Uiso   1.00
O170   O     0.58295   0.68828   0.57753   0.01267  Uiso   1.00
O171   O     0.08295   0.81172   0.42247   0.01267  Uiso   1.00
O172   O     0.41705   0.18828   0.92247   0.01267  Uiso   1.00
O173   O     0.07753   0.91705   0.31172   0.01267  Uiso   1.00
O174   O     0.57753   0.58295   0.68828   0.01267  Uiso   1.00
O175   O     0.42247   0.08295   0.81172   0.01267  Uiso   1.00
O176   O     0.92247   0.41705   0.18828   0.01267  Uiso   1.00
O177   O     0.31172   0.07753   0.91705   0.01267  Uiso   1.00
O178   O     0.68828   0.57753   0.58295   0.01267  Uiso   1.00
O179   O     0.81172   0.42247   0.08295   0.01267  Uiso   1.00
O180   O     0.18828   0.92247   0.41705   0.01267  Uiso   1.00
O181   O     0.08295   0.68828   0.92247   0.01267  Uiso   1.00
O182   O     0.41705   0.31172   0.42247   0.01267  Uiso   1.00
O183   O     0.91705   0.18828   0.57753   0.01267  Uiso   1.00
O184   O     0.58295   0.81172   0.07753   0.01267  Uiso   1.00
O185   O     0.92247   0.08295   0.68828   0.01267  Uiso   1.00
O186   O     0.42247   0.41705   0.31172   0.01267  Uiso   1.00
O187   O     0.57753   0.91705   0.18828   0.01267  Uiso   1.00
O188   O     0.07753   0.58295   0.81172   0.01267  Uiso   1.00
O189   O     0.68828   0.92247   0.08295   0.01267  Uiso   1.00
O190   O     0.31172   0.42247   0.41705   0.01267  Uiso   1.00
O191   O     0.18828   0.57753   0.91705   0.01267  Uiso   1.00
O192   O     0.81172   0.07753   0.58295   0.01267  Uiso   1.00
O193   O     0.98147   0.37506   0.10105   0.01267  Uiso   1.00
O194   O     0.51853   0.62494   0.60105   0.01267  Uiso   1.00
O195   O     0.01853   0.87506   0.39895   0.01267  Uiso   1.00
O196   O     0.48147   0.12494   0.89895   0.01267  Uiso   1.00
O197   O     0.10105   0.98147   0.37506   0.01267  Uiso   1.00
O198   O     0.60105   0.51853   0.62494   0.01267  Uiso   1.00
O199   O     0.39895   0.01853   0.87506   0.01267  Uiso   1.00
O200   O     0.89895   0.48147   0.12494   0.01267  Uiso   1.00
O201   O     0.37506   0.10105   0.98147   0.01267  Uiso   1.00
O202   O     0.62494   0.60105   0.51853   0.01267  Uiso   1.00
O203   O     0.87506   0.39895   0.01853   0.01267  Uiso   1.00
O204   O     0.12494   0.89895   0.48147   0.01267  Uiso   1.00
O205   O     0.01853   0.62494   0.89895   0.01267  Uiso   1.00
O206   O     0.48147   0.37506   0.39895   0.01267  Uiso   1.00
O207   O     0.98147   0.12494   0.60105   0.01267  Uiso   1.00
O208   O     0.51853   0.87506   0.10105   0.01267  Uiso   1.00
O209   O     0.89895   0.01853   0.62494   0.01267  Uiso   1.00
O210   O     0.39895   0.48147   0.37506   0.01267  Uiso   1.00
O211   O     0.60105   0.98147   0.12494   0.01267  Uiso   1.00
O212   O     0.10105   0.51853   0.87506   0.01267  Uiso   1.00
O213   O     0.62494   0.89895   0.01853   0.01267  Uiso   1.00
O214   O     0.37506   0.39895   0.48147   0.01267  Uiso   1.00
O215   O     0.12494   0.60105   0.98147   0.01267  Uiso   1.00
O216   O     0.87506   0.10105   0.51853   0.01267  Uiso   1.00
O217   O     0.00067   0.36205   0.19212   0.01267  Uiso   1.00
O218   O     0.49933   0.63795   0.69212   0.01267  Uiso   1.00
O219   O     0.99933   0.86205   0.30788   0.01267  Uiso   1.00
O220   O     0.50067   0.13795   0.80788   0.01267  Uiso   1.00
O221   O     0.19212   0.00067   0.36205   0.01267  Uiso   1.00
O222   O     0.69212   0.49933   0.63795   0.01267  Uiso   1.00
O223   O     0.30788   0.99933   0.86205   0.01267  Uiso   1.00
O224   O     0.80788   0.50067   0.13795   0.01267  Uiso   1.00
O225   O     0.36205   0.19212   0.00067   0.01267  Uiso   1.00
O226   O     0.63795   0.69212   0.49933   0.01267  Uiso   1.00
O227   O     0.86205   0.30788   0.99933   0.01267  Uiso   1.00
O228   O     0.13795   0.80788   0.50067   0.01267  Uiso   1.00
O229   O     0.99933   0.63795   0.80788   0.01267  Uiso   1.00
O230   O     0.50067   0.36205   0.30788   0.01267  Uiso   1.00
O231   O     0.00067   0.13795   0.69212   0.01267  Uiso   1.00
O232   O     0.49933   0.86205   0.19212   0.01267  Uiso   1.00
O233   O     0.80788   0.99933   0.63795   0.01267  Uiso   1.00
O234   O     0.30788   0.50067   0.36205   0.01267  Uiso   1.00
O235   O     0.69212   0.00067   0.13795   0.01267  Uiso   1.00
O236   O     0.19212   0.49933   0.86205   0.01267  Uiso   1.00
O237   O     0.63795   0.80788   0.99933   0.01267  Uiso   1.00
O238   O     0.36205   0.30788   0.50067   0.01267  Uiso   1.00
O239   O     0.13795   0.69212   0.00067   0.01267  Uiso   1.00
O240   O     0.86205   0.19212   0.49933   0.01267  Uiso   1.00
K1     K     0.09164   0.18138   0.09758   0.01267  Uiso   1.00
K2     K     0.40836   0.81862   0.59758   0.01267  Uiso   1.00
K3     K     0.90836   0.68138   0.40242   0.01267  Uiso   1.00
K4     K     0.59164   0.31862   0.90242   0.01267  Uiso   1.00
K5     K     0.09758   0.09164   0.18138   0.01267  Uiso   1.00
K6     K     0.59758   0.40836   0.81862   0.01267  Uiso   1.00
K7     K     0.40242   0.90836   0.68138   0.01267  Uiso   1.00
K8     K     0.90242   0.59164   0.31862   0.01267  Uiso   1.00
K9     K     0.18138   0.09758   0.09164   0.01267  Uiso   1.00
K10    K     0.81862   0.59758   0.40836   0.01267  Uiso   1.00
K11    K     0.68138   0.40242   0.90836   0.01267  Uiso   1.00
K12    K     0.31862   0.90242   0.59164   0.01267  Uiso   1.00
K13    K     0.90836   0.81862   0.90242   0.01267  Uiso   1.00
K14    K     0.59164   0.18138   0.40242   0.01267  Uiso   1.00
K15    K     0.09164   0.31862   0.59758   0.01267  Uiso   1.00
K16    K     0.40836   0.68138   0.09758   0.01267  Uiso   1.00
K17    K     0.90242   0.90836   0.81862   0.01267  Uiso   1.00
K18    K     0.40242   0.59164   0.18138   0.01267  Uiso   1.00
K19    K     0.59758   0.09164   0.31862   0.01267  Uiso   1.00
K20    K     0.09758   0.40836   0.68138   0.01267  Uiso   1.00
K21    K     0.81862   0.90242   0.90836   0.01267  Uiso   1.00
K22    K     0.18138   0.40242   0.59164   0.01267  Uiso   1.00
K23    K     0.31862   0.59758   0.09164   0.01267  Uiso   1.00
K24    K     0.68138   0.09758   0.40836   0.01267  Uiso   1.00
K25    K     0.92911   0.34018   0.15565   0.01267  Uiso   1.00
K26    K     0.57089   0.65982   0.65565   0.01267  Uiso   1.00
K27    K     0.07089   0.84018   0.34435   0.01267  Uiso   1.00
K28    K     0.42911   0.15982   0.84435   0.01267  Uiso   1.00
K29    K     0.15565   0.92911   0.34018   0.01267  Uiso   1.00
K30    K     0.65565   0.57089   0.65982   0.01267  Uiso   1.00
K31    K     0.34435   0.07089   0.84018   0.01267  Uiso   1.00
K32    K     0.84435   0.42911   0.15982   0.01267  Uiso   1.00
K33    K     0.34018   0.15565   0.92911   0.01267  Uiso   1.00
K34    K     0.65982   0.65565   0.57089   0.01267  Uiso   1.00
K35    K     0.84018   0.34435   0.07089   0.01267  Uiso   1.00
K36    K     0.15982   0.84435   0.42911   0.01267  Uiso   1.00
K37    K     0.07089   0.65982   0.84435   0.01267  Uiso   1.00
K38    K     0.42911   0.34018   0.34435   0.01267  Uiso   1.00
K39    K     0.92911   0.15982   0.65565   0.01267  Uiso   1.00
K40    K     0.57089   0.84018   0.15565   0.01267  Uiso   1.00
K41    K     0.84435   0.07089   0.65982   0.01267  Uiso   1.00
K42    K     0.34435   0.42911   0.34018   0.01267  Uiso   1.00
K43    K     0.65565   0.92911   0.15982   0.01267  Uiso   1.00
K44    K     0.15565   0.57089   0.84018   0.01267  Uiso   1.00
K45    K     0.65982   0.84435   0.07089   0.01267  Uiso   1.00
K46    K     0.34018   0.34435   0.42911   0.01267  Uiso   1.00
K47    K     0.15982   0.65565   0.92911   0.01267  Uiso   1.00
K48    K     0.84018   0.15565   0.57089   0.01267  Uiso   1.00
O241   O     0.90041   0.40041   0.09959   0.01267  Uiso   1.00
O242   O     0.59959   0.59959   0.59959   0.01267  Uiso   1.00
O243   O     0.09959   0.90041   0.40041   0.01267  Uiso   1.00
O244   O     0.40041   0.09959   0.90041   0.01267  Uiso   1.00
O245   O     0.09959   0.59959   0.90041   0.01267  Uiso   1.00
O246   O     0.40041   0.40041   0.40041   0.01267  Uiso   1.00
O247   O     0.90041   0.09959   0.59959   0.01267  Uiso   1.00
O248   O     0.59959   0.90041   0.09959   0.01267  Uiso   1.00
O249   O     0.84116   0.34116   0.15884   0.01267  Uiso   1.00
O250   O     0.65884   0.65884   0.65884   0.01267  Uiso   1.00
O251   O     0.15884   0.84116   0.34116   0.01267  Uiso   1.00
O252   O     0.34116   0.15884   0.84116   0.01267  Uiso   1.00
O253   O     0.15884   0.65884   0.84116   0.01267  Uiso   1.00
O254   O     0.34116   0.34116   0.34116   0.01267  Uiso   1.00
O255   O     0.84116   0.15884   0.65884   0.01267  Uiso   1.00
O256   O     0.65884   0.84116   0.15884   0.01267  Uiso   1.00
O257   O     0.15904   0.15904   0.15904   0.01267  Uiso   1.00
O258   O     0.34096   0.84096   0.65904   0.01267  Uiso   1.00
O259   O     0.84096   0.65904   0.34096   0.01267  Uiso   1.00
O260   O     0.65904   0.34096   0.84096   0.01267  Uiso   1.00
O261   O     0.84096   0.84096   0.84096   0.01267  Uiso   1.00
O262   O     0.65904   0.15904   0.34096   0.01267  Uiso   1.00
O263   O     0.15904   0.34096   0.65904   0.01267  Uiso   1.00
O264   O     0.34096   0.65904   0.15904   0.01267  Uiso   1.00
O265   O     0.09761   0.09761   0.09761   0.01267  Uiso   1.00
O266   O     0.40239   0.90239   0.59761   0.01267  Uiso   1.00
O267   O     0.90239   0.59761   0.40239   0.01267  Uiso   1.00
O268   O     0.59761   0.40239   0.90239   0.01267  Uiso   1.00
O269   O     0.90239   0.90239   0.90239   0.01267  Uiso   1.00
O270   O     0.59761   0.09761   0.40239   0.01267  Uiso   1.00
O271   O     0.09761   0.40239   0.59761   0.01267  Uiso   1.00
O272   O     0.40239   0.59761   0.09761   0.01267  Uiso   1.00
