data_image0
_cell_length_a       45.708
_cell_length_b       45.708
_cell_length_c       7.9819
_cell_angle_alpha    90
_cell_angle_beta     90
_cell_angle_gamma    90

_symmetry_space_group_name_H-M    "P 1"
_symmetry_int_tables_number       1

loop_
  _symmetry_equiv_pos_as_xyz
  'x, y, z'

loop_
  _atom_site_label
  _atom_site_occupancy
  _atom_site_fract_x
  _atom_site_fract_y
  _atom_site_fract_z
  _atom_site_thermal_displace_type
  _atom_site_B_iso_or_equiv
  _atom_site_type_symbol
  N1       1.0000 0.53740  0.27250  0.12100  Biso   1.000  N
  C1       1.0000 0.54040  0.30420  0.11710  Biso   1.000  C
  C2       1.0000 0.57100  0.30930  0.07490  Biso   1.000  C
  H1       1.0000 0.57930  0.32810  0.05860  Biso   1.000  H
  C3       1.0000 0.58590  0.28380  0.06190  Biso   1.000  C
  H2       1.0000 0.60610  0.28170  0.03720  Biso   1.000  H
  C4       1.0000 0.56540  0.26060  0.09260  Biso   1.000  C
  C5       1.0000 0.57420  0.23100  0.10630  Biso   1.000  C
  C6       1.0000 0.60460  0.22320  0.09200  Biso   1.000  C
  C7       1.0000 0.62460  0.23740  0.19110  Biso   1.000  C
  H3       1.0000 0.61810  0.25130  0.27200  Biso   1.000  H
  C8       1.0000 0.65430  0.23150  0.17300  Biso   1.000  C
  H4       1.0000 0.66830  0.24030  0.24480  Biso   1.000  H
  C9       1.0000 0.66240  0.21300  0.05300  Biso   1.000  C
  C10      1.0000 0.64320  0.19730  0.95530  Biso   1.000  C
  H5       1.0000 0.65020  0.18320  0.87740  Biso   1.000  H
  C11      1.0000 0.61350  0.20240  0.97400  Biso   1.000  C
  H6       1.0000 0.59950  0.19210  0.90790  Biso   1.000  H
  S1       1.0000 0.70142  0.20580  0.00280  Biso   1.000  S
  O1       1.0000 0.71240  0.19770  0.15700  Biso   1.000  O
  O2       1.0000 0.71340  0.23250  0.98100  Biso   1.000  O
  O3       1.0000 0.70400  0.18570  0.89100  Biso   1.000  O
  N2       1.0000 0.03740  0.77250  0.62100  Biso   1.000  N
  C12      1.0000 0.04040  0.80420  0.61710  Biso   1.000  C
  C13      1.0000 0.07100  0.80930  0.57490  Biso   1.000  C
  H7       1.0000 0.07930  0.82810  0.55860  Biso   1.000  H
  C14      1.0000 0.08590  0.78380  0.56190  Biso   1.000  C
  H8       1.0000 0.10610  0.78170  0.53720  Biso   1.000  H
  C15      1.0000 0.06540  0.76060  0.59260  Biso   1.000  C
  C16      1.0000 0.07420  0.73100  0.60630  Biso   1.000  C
  C17      1.0000 0.10460  0.72320  0.59200  Biso   1.000  C
  C18      1.0000 0.12460  0.73740  0.69110  Biso   1.000  C
  H9       1.0000 0.11810  0.75130  0.77200  Biso   1.000  H
  C19      1.0000 0.15430  0.73150  0.67300  Biso   1.000  C
  H10      1.0000 0.16830  0.74030  0.74480  Biso   1.000  H
  C20      1.0000 0.16240  0.71300  0.55300  Biso   1.000  C
  C21      1.0000 0.14320  0.69730  0.45530  Biso   1.000  C
  H11      1.0000 0.15020  0.68320  0.37740  Biso   1.000  H
  C22      1.0000 0.11350  0.70240  0.47400  Biso   1.000  C
  H12      1.0000 0.09950  0.69210  0.40790  Biso   1.000  H
  S2       1.0000 0.20142  0.70580  0.50280  Biso   1.000  S
  O4       1.0000 0.21240  0.69770  0.65700  Biso   1.000  O
  O5       1.0000 0.21340  0.73250  0.48100  Biso   1.000  O
  O6       1.0000 0.20400  0.68570  0.39100  Biso   1.000  O
  N3       1.0000 0.96260  0.72750  0.62100  Biso   1.000  N
  C23      1.0000 0.95960  0.69580  0.61710  Biso   1.000  C
  C24      1.0000 0.92900  0.69070  0.57490  Biso   1.000  C
  H13      1.0000 0.92070  0.67190  0.55860  Biso   1.000  H
  C25      1.0000 0.91410  0.71620  0.56190  Biso   1.000  C
  H14      1.0000 0.89390  0.71830  0.53720  Biso   1.000  H
  C26      1.0000 0.93460  0.73940  0.59260  Biso   1.000  C
  C27      1.0000 0.92580  0.76900  0.60630  Biso   1.000  C
  C28      1.0000 0.89540  0.77680  0.59200  Biso   1.000  C
  C29      1.0000 0.87540  0.76260  0.69110  Biso   1.000  C
  H15      1.0000 0.88190  0.74870  0.77200  Biso   1.000  H
  C30      1.0000 0.84570  0.76850  0.67300  Biso   1.000  C
  H16      1.0000 0.83170  0.75970  0.74480  Biso   1.000  H
  C31      1.0000 0.83760  0.78700  0.55300  Biso   1.000  C
  C32      1.0000 0.85680  0.80270  0.45530  Biso   1.000  C
  H17      1.0000 0.84980  0.81680  0.37740  Biso   1.000  H
  C33      1.0000 0.88650  0.79760  0.47400  Biso   1.000  C
  H18      1.0000 0.90050  0.80790  0.40790  Biso   1.000  H
  S3       1.0000 0.79858  0.79420  0.50280  Biso   1.000  S
  O7       1.0000 0.78760  0.80230  0.65700  Biso   1.000  O
  O8       1.0000 0.78660  0.76750  0.48100  Biso   1.000  O
  O9       1.0000 0.79600  0.81430  0.39100  Biso   1.000  O
  N4       1.0000 0.46260  0.22750  0.12100  Biso   1.000  N
  C34      1.0000 0.45960  0.19580  0.11710  Biso   1.000  C
  C35      1.0000 0.42900  0.19070  0.07490  Biso   1.000  C
  H19      1.0000 0.42070  0.17190  0.05860  Biso   1.000  H
  C36      1.0000 0.41410  0.21620  0.06190  Biso   1.000  C
  H20      1.0000 0.39390  0.21830  0.03720  Biso   1.000  H
  C37      1.0000 0.43460  0.23940  0.09260  Biso   1.000  C
  C38      1.0000 0.42580  0.26900  0.10630  Biso   1.000  C
  C39      1.0000 0.39540  0.27680  0.09200  Biso   1.000  C
  C40      1.0000 0.37540  0.26260  0.19110  Biso   1.000  C
  H21      1.0000 0.38190  0.24870  0.27200  Biso   1.000  H
  C41      1.0000 0.34570  0.26850  0.17300  Biso   1.000  C
  H22      1.0000 0.33170  0.25970  0.24480  Biso   1.000  H
  C42      1.0000 0.33760  0.28700  0.05300  Biso   1.000  C
  C43      1.0000 0.35680  0.30270  0.95530  Biso   1.000  C
  H23      1.0000 0.34980  0.31680  0.87740  Biso   1.000  H
  C44      1.0000 0.38650  0.29760  0.97400  Biso   1.000  C
  H24      1.0000 0.40050  0.30790  0.90790  Biso   1.000  H
  S4       1.0000 0.29858  0.29420  0.00280  Biso   1.000  S
  O10      1.0000 0.28760  0.30230  0.15700  Biso   1.000  O
  O11      1.0000 0.28660  0.26750  0.98100  Biso   1.000  O
  O12      1.0000 0.29600  0.31430  0.89100  Biso   1.000  O
  N5       1.0000 0.97750  0.28740  0.37100  Biso   1.000  N
  C45      1.0000 0.94580  0.29040  0.36710  Biso   1.000  C
  C46      1.0000 0.94070  0.32100  0.32490  Biso   1.000  C
  H25      1.0000 0.92190  0.32930  0.30860  Biso   1.000  H
  C47      1.0000 0.96620  0.33590  0.31190  Biso   1.000  C
  H26      1.0000 0.96830  0.35610  0.28720  Biso   1.000  H
  C48      1.0000 0.98940  0.31540  0.34260  Biso   1.000  C
  C49      1.0000 0.01900  0.32420  0.35630  Biso   1.000  C
  C50      1.0000 0.02680  0.35460  0.34200  Biso   1.000  C
  C51      1.0000 0.01260  0.37460  0.44110  Biso   1.000  C
  H27      1.0000 0.99870  0.36810  0.52200  Biso   1.000  H
  C52      1.0000 0.01850  0.40430  0.42300  Biso   1.000  C
  H28      1.0000 0.00970  0.41830  0.49480  Biso   1.000  H
  C53      1.0000 0.03700  0.41240  0.30300  Biso   1.000  C
  C54      1.0000 0.05270  0.39320  0.20530  Biso   1.000  C
  H29      1.0000 0.06680  0.40020  0.12740  Biso   1.000  H
  C55      1.0000 0.04760  0.36350  0.22400  Biso   1.000  C
  H30      1.0000 0.05790  0.34950  0.15790  Biso   1.000  H
  S5       1.0000 0.04420  0.45142  0.25280  Biso   1.000  S
  O13      1.0000 0.05230  0.46240  0.40700  Biso   1.000  O
  O14      1.0000 0.01750  0.46340  0.23100  Biso   1.000  O
  O15      1.0000 0.06430  0.45400  0.14100  Biso   1.000  O
  N6       1.0000 0.47750  0.78740  0.87100  Biso   1.000  N
  C56      1.0000 0.44580  0.79040  0.86710  Biso   1.000  C
  C57      1.0000 0.44070  0.82100  0.82490  Biso   1.000  C
  H31      1.0000 0.42190  0.82930  0.80860  Biso   1.000  H
  C58      1.0000 0.46620  0.83590  0.81190  Biso   1.000  C
  H32      1.0000 0.46830  0.85610  0.78720  Biso   1.000  H
  C59      1.0000 0.48940  0.81540  0.84260  Biso   1.000  C
  C60      1.0000 0.51900  0.82420  0.85630  Biso   1.000  C
  C61      1.0000 0.52680  0.85460  0.84200  Biso   1.000  C
  C62      1.0000 0.51260  0.87460  0.94110  Biso   1.000  C
  H33      1.0000 0.49870  0.86810  0.02200  Biso   1.000  H
  C63      1.0000 0.51850  0.90430  0.92300  Biso   1.000  C
  H34      1.0000 0.50970  0.91830  0.99480  Biso   1.000  H
  C64      1.0000 0.53700  0.91240  0.80300  Biso   1.000  C
  C65      1.0000 0.55270  0.89320  0.70530  Biso   1.000  C
  H35      1.0000 0.56680  0.90020  0.62740  Biso   1.000  H
  C66      1.0000 0.54760  0.86350  0.72400  Biso   1.000  C
  H36      1.0000 0.55790  0.84950  0.65790  Biso   1.000  H
  S6       1.0000 0.54420  0.95142  0.75280  Biso   1.000  S
  O16      1.0000 0.55230  0.96240  0.90700  Biso   1.000  O
  O17      1.0000 0.51750  0.96340  0.73100  Biso   1.000  O
  O18      1.0000 0.56430  0.95400  0.64100  Biso   1.000  O
  N7       1.0000 0.52250  0.71260  0.87100  Biso   1.000  N
  C67      1.0000 0.55420  0.70960  0.86710  Biso   1.000  C
  C68      1.0000 0.55930  0.67900  0.82490  Biso   1.000  C
  H37      1.0000 0.57810  0.67070  0.80860  Biso   1.000  H
  C69      1.0000 0.53380  0.66410  0.81190  Biso   1.000  C
  H38      1.0000 0.53170  0.64390  0.78720  Biso   1.000  H
  C70      1.0000 0.51060  0.68460  0.84260  Biso   1.000  C
  C71      1.0000 0.48100  0.67580  0.85630  Biso   1.000  C
  C72      1.0000 0.47320  0.64540  0.84200  Biso   1.000  C
  C73      1.0000 0.48740  0.62540  0.94110  Biso   1.000  C
  H39      1.0000 0.50130  0.63190  0.02200  Biso   1.000  H
  C74      1.0000 0.48150  0.59570  0.92300  Biso   1.000  C
  H40      1.0000 0.49030  0.58170  0.99480  Biso   1.000  H
  C75      1.0000 0.46300  0.58760  0.80300  Biso   1.000  C
  C76      1.0000 0.44730  0.60680  0.70530  Biso   1.000  C
  H41      1.0000 0.43320  0.59980  0.62740  Biso   1.000  H
  C77      1.0000 0.45240  0.63650  0.72400  Biso   1.000  C
  H42      1.0000 0.44210  0.65050  0.65790  Biso   1.000  H
  S7       1.0000 0.45580  0.54858  0.75280  Biso   1.000  S
  O19      1.0000 0.44770  0.53760  0.90700  Biso   1.000  O
  O20      1.0000 0.48250  0.53660  0.73100  Biso   1.000  O
  O21      1.0000 0.43570  0.54600  0.64100  Biso   1.000  O
  N8       1.0000 0.02250  0.21260  0.37100  Biso   1.000  N
  C78      1.0000 0.05420  0.20960  0.36710  Biso   1.000  C
  C79      1.0000 0.05930  0.17900  0.32490  Biso   1.000  C
  H43      1.0000 0.07810  0.17070  0.30860  Biso   1.000  H
  C80      1.0000 0.03380  0.16410  0.31190  Biso   1.000  C
  H44      1.0000 0.03170  0.14390  0.28720  Biso   1.000  H
  C81      1.0000 0.01060  0.18460  0.34260  Biso   1.000  C
  C82      1.0000 0.98100  0.17580  0.35630  Biso   1.000  C
  C83      1.0000 0.97320  0.14540  0.34200  Biso   1.000  C
  C84      1.0000 0.98740  0.12540  0.44110  Biso   1.000  C
  H45      1.0000 0.00130  0.13190  0.52200  Biso   1.000  H
  C85      1.0000 0.98150  0.09570  0.42300  Biso   1.000  C
  H46      1.0000 0.99030  0.08170  0.49480  Biso   1.000  H
  C86      1.0000 0.96300  0.08760  0.30300  Biso   1.000  C
  C87      1.0000 0.94730  0.10680  0.20530  Biso   1.000  C
  H47      1.0000 0.93320  0.09980  0.12740  Biso   1.000  H
  C88      1.0000 0.95240  0.13650  0.22400  Biso   1.000  C
  H48      1.0000 0.94210  0.15050  0.15790  Biso   1.000  H
  S8       1.0000 0.95580  0.04858  0.25280  Biso   1.000  S
  O22      1.0000 0.94770  0.03760  0.40700  Biso   1.000  O
  O23      1.0000 0.98250  0.03660  0.23100  Biso   1.000  O
  O24      1.0000 0.93570  0.04600  0.14100  Biso   1.000  O
  N9       1.0000 0.96260  0.27250  0.87900  Biso   1.000  N
  C89      1.0000 0.95960  0.30420  0.88290  Biso   1.000  C
  C90      1.0000 0.92900  0.30930  0.92510  Biso   1.000  C
  H49      1.0000 0.92070  0.32810  0.94140  Biso   1.000  H
  C91      1.0000 0.91410  0.28380  0.93810  Biso   1.000  C
  H50      1.0000 0.89390  0.28170  0.96280  Biso   1.000  H
  C92      1.0000 0.93460  0.26060  0.90740  Biso   1.000  C
  C93      1.0000 0.92580  0.23100  0.89370  Biso   1.000  C
  C94      1.0000 0.89540  0.22320  0.90800  Biso   1.000  C
  C95      1.0000 0.87540  0.23740  0.80890  Biso   1.000  C
  H51      1.0000 0.88190  0.25130  0.72800  Biso   1.000  H
  C96      1.0000 0.84570  0.23150  0.82700  Biso   1.000  C
  H52      1.0000 0.83170  0.24030  0.75520  Biso   1.000  H
  C97      1.0000 0.83760  0.21300  0.94700  Biso   1.000  C
  C98      1.0000 0.85680  0.19730  0.04470  Biso   1.000  C
  H53      1.0000 0.84980  0.18320  0.12260  Biso   1.000  H
  C99      1.0000 0.88650  0.20240  0.02600  Biso   1.000  C
  H54      1.0000 0.90050  0.19210  0.09210  Biso   1.000  H
  S9       1.0000 0.79858  0.20580  0.99720  Biso   1.000  S
  O25      1.0000 0.78760  0.19770  0.84300  Biso   1.000  O
  O26      1.0000 0.78660  0.23250  0.01900  Biso   1.000  O
  O27      1.0000 0.79600  0.18570  0.10900  Biso   1.000  O
  N10      1.0000 0.46260  0.77250  0.37900  Biso   1.000  N
  C100     1.0000 0.45960  0.80420  0.38290  Biso   1.000  C
  C101     1.0000 0.42900  0.80930  0.42510  Biso   1.000  C
  H55      1.0000 0.42070  0.82810  0.44140  Biso   1.000  H
  C102     1.0000 0.41410  0.78380  0.43810  Biso   1.000  C
  H56      1.0000 0.39390  0.78170  0.46280  Biso   1.000  H
  C103     1.0000 0.43460  0.76060  0.40740  Biso   1.000  C
  C104     1.0000 0.42580  0.73100  0.39370  Biso   1.000  C
  C105     1.0000 0.39540  0.72320  0.40800  Biso   1.000  C
  C106     1.0000 0.37540  0.73740  0.30890  Biso   1.000  C
  H57      1.0000 0.38190  0.75130  0.22800  Biso   1.000  H
  C107     1.0000 0.34570  0.73150  0.32700  Biso   1.000  C
  H58      1.0000 0.33170  0.74030  0.25520  Biso   1.000  H
  C108     1.0000 0.33760  0.71300  0.44700  Biso   1.000  C
  C109     1.0000 0.35680  0.69730  0.54470  Biso   1.000  C
  H59      1.0000 0.34980  0.68320  0.62260  Biso   1.000  H
  C110     1.0000 0.38650  0.70240  0.52600  Biso   1.000  C
  H60      1.0000 0.40050  0.69210  0.59210  Biso   1.000  H
  S10      1.0000 0.29858  0.70580  0.49720  Biso   1.000  S
  O28      1.0000 0.28760  0.69770  0.34300  Biso   1.000  O
  O29      1.0000 0.28660  0.73250  0.51900  Biso   1.000  O
  O30      1.0000 0.29600  0.68570  0.60900  Biso   1.000  O
  N11      1.0000 0.53740  0.72750  0.37900  Biso   1.000  N
  C111     1.0000 0.54040  0.69580  0.38290  Biso   1.000  C
  C112     1.0000 0.57100  0.69070  0.42510  Biso   1.000  C
  H61      1.0000 0.57930  0.67190  0.44140  Biso   1.000  H
  C113     1.0000 0.58590  0.71620  0.43810  Biso   1.000  C
  H62      1.0000 0.60610  0.71830  0.46280  Biso   1.000  H
  C114     1.0000 0.56540  0.73940  0.40740  Biso   1.000  C
  C115     1.0000 0.57420  0.76900  0.39370  Biso   1.000  C
  C116     1.0000 0.60460  0.77680  0.40800  Biso   1.000  C
  C117     1.0000 0.62460  0.76260  0.30890  Biso   1.000  C
  H63      1.0000 0.61810  0.74870  0.22800  Biso   1.000  H
  C118     1.0000 0.65430  0.76850  0.32700  Biso   1.000  C
  H64      1.0000 0.66830  0.75970  0.25520  Biso   1.000  H
  C119     1.0000 0.66240  0.78700  0.44700  Biso   1.000  C
  C120     1.0000 0.64320  0.80270  0.54470  Biso   1.000  C
  H65      1.0000 0.65020  0.81680  0.62260  Biso   1.000  H
  C121     1.0000 0.61350  0.79760  0.52600  Biso   1.000  C
  H66      1.0000 0.59950  0.80790  0.59210  Biso   1.000  H
  S11      1.0000 0.70142  0.79420  0.49720  Biso   1.000  S
  O31      1.0000 0.71240  0.80230  0.34300  Biso   1.000  O
  O32      1.0000 0.71340  0.76750  0.51900  Biso   1.000  O
  O33      1.0000 0.70400  0.81430  0.60900  Biso   1.000  O
  N12      1.0000 0.03740  0.22750  0.87900  Biso   1.000  N
  C122     1.0000 0.04040  0.19580  0.88290  Biso   1.000  C
  C123     1.0000 0.07100  0.19070  0.92510  Biso   1.000  C
  H67      1.0000 0.07930  0.17190  0.94140  Biso   1.000  H
  C124     1.0000 0.08590  0.21620  0.93810  Biso   1.000  C
  H68      1.0000 0.10610  0.21830  0.96280  Biso   1.000  H
  C125     1.0000 0.06540  0.23940  0.90740  Biso   1.000  C
  C126     1.0000 0.07420  0.26900  0.89370  Biso   1.000  C
  C127     1.0000 0.10460  0.27680  0.90800  Biso   1.000  C
  C128     1.0000 0.12460  0.26260  0.80890  Biso   1.000  C
  H69      1.0000 0.11810  0.24870  0.72800  Biso   1.000  H
  C129     1.0000 0.15430  0.26850  0.82700  Biso   1.000  C
  H70      1.0000 0.16830  0.25970  0.75520  Biso   1.000  H
  C130     1.0000 0.16240  0.28700  0.94700  Biso   1.000  C
  C131     1.0000 0.14320  0.30270  0.04470  Biso   1.000  C
  H71      1.0000 0.15020  0.31680  0.12260  Biso   1.000  H
  C132     1.0000 0.11350  0.29760  0.02600  Biso   1.000  C
  H72      1.0000 0.09950  0.30790  0.09210  Biso   1.000  H
  S12      1.0000 0.20142  0.29420  0.99720  Biso   1.000  S
  O34      1.0000 0.21240  0.30230  0.84300  Biso   1.000  O
  O35      1.0000 0.21340  0.26750  0.01900  Biso   1.000  O
  O36      1.0000 0.20400  0.31430  0.10900  Biso   1.000  O
  N13      1.0000 0.52250  0.28740  0.62900  Biso   1.000  N
  C133     1.0000 0.55420  0.29040  0.63290  Biso   1.000  C
  C134     1.0000 0.55930  0.32100  0.67510  Biso   1.000  C
  H73      1.0000 0.57810  0.32930  0.69140  Biso   1.000  H
  C135     1.0000 0.53380  0.33590  0.68810  Biso   1.000  C
  H74      1.0000 0.53170  0.35610  0.71280  Biso   1.000  H
  C136     1.0000 0.51060  0.31540  0.65740  Biso   1.000  C
  C137     1.0000 0.48100  0.32420  0.64370  Biso   1.000  C
  C138     1.0000 0.47320  0.35460  0.65800  Biso   1.000  C
  C139     1.0000 0.48740  0.37460  0.55890  Biso   1.000  C
  H75      1.0000 0.50130  0.36810  0.47800  Biso   1.000  H
  C140     1.0000 0.48150  0.40430  0.57700  Biso   1.000  C
  H76      1.0000 0.49030  0.41830  0.50520  Biso   1.000  H
  C141     1.0000 0.46300  0.41240  0.69700  Biso   1.000  C
  C142     1.0000 0.44730  0.39320  0.79470  Biso   1.000  C
  H77      1.0000 0.43320  0.40020  0.87260  Biso   1.000  H
  C143     1.0000 0.45240  0.36350  0.77600  Biso   1.000  C
  H78      1.0000 0.44210  0.34950  0.84210  Biso   1.000  H
  S13      1.0000 0.45580  0.45142  0.74720  Biso   1.000  S
  O37      1.0000 0.44770  0.46240  0.59300  Biso   1.000  O
  O38      1.0000 0.48250  0.46340  0.76900  Biso   1.000  O
  O39      1.0000 0.43570  0.45400  0.85900  Biso   1.000  O
  N14      1.0000 0.02250  0.78740  0.12900  Biso   1.000  N
  C144     1.0000 0.05420  0.79040  0.13290  Biso   1.000  C
  C145     1.0000 0.05930  0.82100  0.17510  Biso   1.000  C
  H79      1.0000 0.07810  0.82930  0.19140  Biso   1.000  H
  C146     1.0000 0.03380  0.83590  0.18810  Biso   1.000  C
  H80      1.0000 0.03170  0.85610  0.21280  Biso   1.000  H
  C147     1.0000 0.01060  0.81540  0.15740  Biso   1.000  C
  C148     1.0000 0.98100  0.82420  0.14370  Biso   1.000  C
  C149     1.0000 0.97320  0.85460  0.15800  Biso   1.000  C
  C150     1.0000 0.98740  0.87460  0.05890  Biso   1.000  C
  H81      1.0000 0.00130  0.86810  0.97800  Biso   1.000  H
  C151     1.0000 0.98150  0.90430  0.07700  Biso   1.000  C
  H82      1.0000 0.99030  0.91830  0.00520  Biso   1.000  H
  C152     1.0000 0.96300  0.91240  0.19700  Biso   1.000  C
  C153     1.0000 0.94730  0.89320  0.29470  Biso   1.000  C
  H83      1.0000 0.93320  0.90020  0.37260  Biso   1.000  H
  C154     1.0000 0.95240  0.86350  0.27600  Biso   1.000  C
  H84      1.0000 0.94210  0.84950  0.34210  Biso   1.000  H
  S14      1.0000 0.95580  0.95142  0.24720  Biso   1.000  S
  O40      1.0000 0.94770  0.96240  0.09300  Biso   1.000  O
  O41      1.0000 0.98250  0.96340  0.26900  Biso   1.000  O
  O42      1.0000 0.93570  0.95400  0.35900  Biso   1.000  O
  N15      1.0000 0.97750  0.71260  0.12900  Biso   1.000  N
  C155     1.0000 0.94580  0.70960  0.13290  Biso   1.000  C
  C156     1.0000 0.94070  0.67900  0.17510  Biso   1.000  C
  H85      1.0000 0.92190  0.67070  0.19140  Biso   1.000  H
  C157     1.0000 0.96620  0.66410  0.18810  Biso   1.000  C
  H86      1.0000 0.96830  0.64390  0.21280  Biso   1.000  H
  C158     1.0000 0.98940  0.68460  0.15740  Biso   1.000  C
  C159     1.0000 0.01900  0.67580  0.14370  Biso   1.000  C
  C160     1.0000 0.02680  0.64540  0.15800  Biso   1.000  C
  C161     1.0000 0.01260  0.62540  0.05890  Biso   1.000  C
  H87      1.0000 0.99870  0.63190  0.97800  Biso   1.000  H
  C162     1.0000 0.01850  0.59570  0.07700  Biso   1.000  C
  H88      1.0000 0.00970  0.58170  0.00520  Biso   1.000  H
  C163     1.0000 0.03700  0.58760  0.19700  Biso   1.000  C
  C164     1.0000 0.05270  0.60680  0.29470  Biso   1.000  C
  H89      1.0000 0.06680  0.59980  0.37260  Biso   1.000  H
  C165     1.0000 0.04760  0.63650  0.27600  Biso   1.000  C
  H90      1.0000 0.05790  0.65050  0.34210  Biso   1.000  H
  S15      1.0000 0.04420  0.54858  0.24720  Biso   1.000  S
  O43      1.0000 0.05230  0.53760  0.09300  Biso   1.000  O
  O44      1.0000 0.01750  0.53660  0.26900  Biso   1.000  O
  O45      1.0000 0.06430  0.54600  0.35900  Biso   1.000  O
  N16      1.0000 0.47750  0.21260  0.62900  Biso   1.000  N
  C166     1.0000 0.44580  0.20960  0.63290  Biso   1.000  C
  C167     1.0000 0.44070  0.17900  0.67510  Biso   1.000  C
  H91      1.0000 0.42190  0.17070  0.69140  Biso   1.000  H
  C168     1.0000 0.46620  0.16410  0.68810  Biso   1.000  C
  H92      1.0000 0.46830  0.14390  0.71280  Biso   1.000  H
  C169     1.0000 0.48940  0.18460  0.65740  Biso   1.000  C
  C170     1.0000 0.51900  0.17580  0.64370  Biso   1.000  C
  C171     1.0000 0.52680  0.14540  0.65800  Biso   1.000  C
  C172     1.0000 0.51260  0.12540  0.55890  Biso   1.000  C
  H93      1.0000 0.49870  0.13190  0.47800  Biso   1.000  H
  C173     1.0000 0.51850  0.09570  0.57700  Biso   1.000  C
  H94      1.0000 0.50970  0.08170  0.50520  Biso   1.000  H
  C174     1.0000 0.53700  0.08760  0.69700  Biso   1.000  C
  C175     1.0000 0.55270  0.10680  0.79470  Biso   1.000  C
  H95      1.0000 0.56680  0.09980  0.87260  Biso   1.000  H
  C176     1.0000 0.54760  0.13650  0.77600  Biso   1.000  C
  H96      1.0000 0.55790  0.15050  0.84210  Biso   1.000  H
  S16      1.0000 0.54420  0.04858  0.74720  Biso   1.000  S
  O46      1.0000 0.55230  0.03760  0.59300  Biso   1.000  O
  O47      1.0000 0.51750  0.03660  0.76900  Biso   1.000  O
  O48      1.0000 0.56430  0.04600  0.85900  Biso   1.000  O
  N17      1.0000 0.46260  0.72750  0.87900  Biso   1.000  N
  C177     1.0000 0.45960  0.69580  0.88290  Biso   1.000  C
  C178     1.0000 0.42900  0.69070  0.92510  Biso   1.000  C
  H97      1.0000 0.42070  0.67190  0.94140  Biso   1.000  H
  C179     1.0000 0.41410  0.71620  0.93810  Biso   1.000  C
  H98      1.0000 0.39390  0.71830  0.96280  Biso   1.000  H
  C180     1.0000 0.43460  0.73940  0.90740  Biso   1.000  C
  C181     1.0000 0.42580  0.76900  0.89370  Biso   1.000  C
  C182     1.0000 0.39540  0.77680  0.90800  Biso   1.000  C
  C183     1.0000 0.37540  0.76260  0.80890  Biso   1.000  C
  H99      1.0000 0.38190  0.74870  0.72800  Biso   1.000  H
  C184     1.0000 0.34570  0.76850  0.82700  Biso   1.000  C
  H100     1.0000 0.33170  0.75970  0.75520  Biso   1.000  H
  C185     1.0000 0.33760  0.78700  0.94700  Biso   1.000  C
  C186     1.0000 0.35680  0.80270  0.04470  Biso   1.000  C
  H101     1.0000 0.34980  0.81680  0.12260  Biso   1.000  H
  C187     1.0000 0.38650  0.79760  0.02600  Biso   1.000  C
  H102     1.0000 0.40050  0.80790  0.09210  Biso   1.000  H
  S17      1.0000 0.29858  0.79420  0.99720  Biso   1.000  S
  O49      1.0000 0.28760  0.80230  0.84300  Biso   1.000  O
  O50      1.0000 0.28660  0.76750  0.01900  Biso   1.000  O
  O51      1.0000 0.29600  0.81430  0.10900  Biso   1.000  O
  N18      1.0000 0.96260  0.22750  0.37900  Biso   1.000  N
  C188     1.0000 0.95960  0.19580  0.38290  Biso   1.000  C
  C189     1.0000 0.92900  0.19070  0.42510  Biso   1.000  C
  H103     1.0000 0.92070  0.17190  0.44140  Biso   1.000  H
  C190     1.0000 0.91410  0.21620  0.43810  Biso   1.000  C
  H104     1.0000 0.89390  0.21830  0.46280  Biso   1.000  H
  C191     1.0000 0.93460  0.23940  0.40740  Biso   1.000  C
  C192     1.0000 0.92580  0.26900  0.39370  Biso   1.000  C
  C193     1.0000 0.89540  0.27680  0.40800  Biso   1.000  C
  C194     1.0000 0.87540  0.26260  0.30890  Biso   1.000  C
  H105     1.0000 0.88190  0.24870  0.22800  Biso   1.000  H
  C195     1.0000 0.84570  0.26850  0.32700  Biso   1.000  C
  H106     1.0000 0.83170  0.25970  0.25520  Biso   1.000  H
  C196     1.0000 0.83760  0.28700  0.44700  Biso   1.000  C
  C197     1.0000 0.85680  0.30270  0.54470  Biso   1.000  C
  H107     1.0000 0.84980  0.31680  0.62260  Biso   1.000  H
  C198     1.0000 0.88650  0.29760  0.52600  Biso   1.000  C
  H108     1.0000 0.90050  0.30790  0.59210  Biso   1.000  H
  S18      1.0000 0.79858  0.29420  0.49720  Biso   1.000  S
  O52      1.0000 0.78760  0.30230  0.34300  Biso   1.000  O
  O53      1.0000 0.78660  0.26750  0.51900  Biso   1.000  O
  O54      1.0000 0.79600  0.31430  0.60900  Biso   1.000  O
  N19      1.0000 0.03740  0.27250  0.37900  Biso   1.000  N
  C199     1.0000 0.04040  0.30420  0.38290  Biso   1.000  C
  C200     1.0000 0.07100  0.30930  0.42510  Biso   1.000  C
  H109     1.0000 0.07930  0.32810  0.44140  Biso   1.000  H
  C201     1.0000 0.08590  0.28380  0.43810  Biso   1.000  C
  H110     1.0000 0.10610  0.28170  0.46280  Biso   1.000  H
  C202     1.0000 0.06540  0.26060  0.40740  Biso   1.000  C
  C203     1.0000 0.07420  0.23100  0.39370  Biso   1.000  C
  C204     1.0000 0.10460  0.22320  0.40800  Biso   1.000  C
  C205     1.0000 0.12460  0.23740  0.30890  Biso   1.000  C
  H111     1.0000 0.11810  0.25130  0.22800  Biso   1.000  H
  C206     1.0000 0.15430  0.23150  0.32700  Biso   1.000  C
  H112     1.0000 0.16830  0.24030  0.25520  Biso   1.000  H
  C207     1.0000 0.16240  0.21300  0.44700  Biso   1.000  C
  C208     1.0000 0.14320  0.19730  0.54470  Biso   1.000  C
  H113     1.0000 0.15020  0.18320  0.62260  Biso   1.000  H
  C209     1.0000 0.11350  0.20240  0.52600  Biso   1.000  C
  H114     1.0000 0.09950  0.19210  0.59210  Biso   1.000  H
  S19      1.0000 0.20142  0.20580  0.49720  Biso   1.000  S
  O55      1.0000 0.21240  0.19770  0.34300  Biso   1.000  O
  O56      1.0000 0.21340  0.23250  0.51900  Biso   1.000  O
  O57      1.0000 0.20400  0.18570  0.60900  Biso   1.000  O
  N20      1.0000 0.53740  0.77250  0.87900  Biso   1.000  N
  C210     1.0000 0.54040  0.80420  0.88290  Biso   1.000  C
  C211     1.0000 0.57100  0.80930  0.92510  Biso   1.000  C
  H115     1.0000 0.57930  0.82810  0.94140  Biso   1.000  H
  C212     1.0000 0.58590  0.78380  0.93810  Biso   1.000  C
  H116     1.0000 0.60610  0.78170  0.96280  Biso   1.000  H
  C213     1.0000 0.56540  0.76060  0.90740  Biso   1.000  C
  C214     1.0000 0.57420  0.73100  0.89370  Biso   1.000  C
  C215     1.0000 0.60460  0.72320  0.90800  Biso   1.000  C
  C216     1.0000 0.62460  0.73740  0.80890  Biso   1.000  C
  H117     1.0000 0.61810  0.75130  0.72800  Biso   1.000  H
  C217     1.0000 0.65430  0.73150  0.82700  Biso   1.000  C
  H118     1.0000 0.66830  0.74030  0.75520  Biso   1.000  H
  C218     1.0000 0.66240  0.71300  0.94700  Biso   1.000  C
  C219     1.0000 0.64320  0.69730  0.04470  Biso   1.000  C
  H119     1.0000 0.65020  0.68320  0.12260  Biso   1.000  H
  C220     1.0000 0.61350  0.70240  0.02600  Biso   1.000  C
  H120     1.0000 0.59950  0.69210  0.09210  Biso   1.000  H
  S20      1.0000 0.70142  0.70580  0.99720  Biso   1.000  S
  O58      1.0000 0.71240  0.69770  0.84300  Biso   1.000  O
  O59      1.0000 0.71340  0.73250  0.01900  Biso   1.000  O
  O60      1.0000 0.70400  0.68570  0.10900  Biso   1.000  O
  N21      1.0000 0.02250  0.71260  0.62900  Biso   1.000  N
  C221     1.0000 0.05420  0.70960  0.63290  Biso   1.000  C
  C222     1.0000 0.05930  0.67900  0.67510  Biso   1.000  C
  H121     1.0000 0.07810  0.67070  0.69140  Biso   1.000  H
  C223     1.0000 0.03380  0.66410  0.68810  Biso   1.000  C
  H122     1.0000 0.03170  0.64390  0.71280  Biso   1.000  H
  C224     1.0000 0.01060  0.68460  0.65740  Biso   1.000  C
  C225     1.0000 0.98100  0.67580  0.64370  Biso   1.000  C
  C226     1.0000 0.97320  0.64540  0.65800  Biso   1.000  C
  C227     1.0000 0.98740  0.62540  0.55890  Biso   1.000  C
  H123     1.0000 0.00130  0.63190  0.47800  Biso   1.000  H
  C228     1.0000 0.98150  0.59570  0.57700  Biso   1.000  C
  H124     1.0000 0.99030  0.58170  0.50520  Biso   1.000  H
  C229     1.0000 0.96300  0.58760  0.69700  Biso   1.000  C
  C230     1.0000 0.94730  0.60680  0.79470  Biso   1.000  C
  H125     1.0000 0.93320  0.59980  0.87260  Biso   1.000  H
  C231     1.0000 0.95240  0.63650  0.77600  Biso   1.000  C
  H126     1.0000 0.94210  0.65050  0.84210  Biso   1.000  H
  S21      1.0000 0.95580  0.54858  0.74720  Biso   1.000  S
  O61      1.0000 0.94770  0.53760  0.59300  Biso   1.000  O
  O62      1.0000 0.98250  0.53660  0.76900  Biso   1.000  O
  O63      1.0000 0.93570  0.54600  0.85900  Biso   1.000  O
  N22      1.0000 0.52250  0.21260  0.12900  Biso   1.000  N
  C232     1.0000 0.55420  0.20960  0.13290  Biso   1.000  C
  C233     1.0000 0.55930  0.17900  0.17510  Biso   1.000  C
  H127     1.0000 0.57810  0.17070  0.19140  Biso   1.000  H
  C234     1.0000 0.53380  0.16410  0.18810  Biso   1.000  C
  H128     1.0000 0.53170  0.14390  0.21280  Biso   1.000  H
  C235     1.0000 0.51060  0.18460  0.15740  Biso   1.000  C
  C236     1.0000 0.48100  0.17580  0.14370  Biso   1.000  C
  C237     1.0000 0.47320  0.14540  0.15800  Biso   1.000  C
  C238     1.0000 0.48740  0.12540  0.05890  Biso   1.000  C
  H129     1.0000 0.50130  0.13190  0.97800  Biso   1.000  H
  C239     1.0000 0.48150  0.09570  0.07700  Biso   1.000  C
  H130     1.0000 0.49030  0.08170  0.00520  Biso   1.000  H
  C240     1.0000 0.46300  0.08760  0.19700  Biso   1.000  C
  C241     1.0000 0.44730  0.10680  0.29470  Biso   1.000  C
  H131     1.0000 0.43320  0.09980  0.37260  Biso   1.000  H
  C242     1.0000 0.45240  0.13650  0.27600  Biso   1.000  C
  H132     1.0000 0.44210  0.15050  0.34210  Biso   1.000  H
  S22      1.0000 0.45580  0.04858  0.24720  Biso   1.000  S
  O64      1.0000 0.44770  0.03760  0.09300  Biso   1.000  O
  O65      1.0000 0.48250  0.03660  0.26900  Biso   1.000  O
  O66      1.0000 0.43570  0.04600  0.35900  Biso   1.000  O
  N23      1.0000 0.47750  0.28740  0.12900  Biso   1.000  N
  C243     1.0000 0.44580  0.29040  0.13290  Biso   1.000  C
  C244     1.0000 0.44070  0.32100  0.17510  Biso   1.000  C
  H133     1.0000 0.42190  0.32930  0.19140  Biso   1.000  H
  C245     1.0000 0.46620  0.33590  0.18810  Biso   1.000  C
  H134     1.0000 0.46830  0.35610  0.21280  Biso   1.000  H
  C246     1.0000 0.48940  0.31540  0.15740  Biso   1.000  C
  C247     1.0000 0.51900  0.32420  0.14370  Biso   1.000  C
  C248     1.0000 0.52680  0.35460  0.15800  Biso   1.000  C
  C249     1.0000 0.51260  0.37460  0.05890  Biso   1.000  C
  H135     1.0000 0.49870  0.36810  0.97800  Biso   1.000  H
  C250     1.0000 0.51850  0.40430  0.07700  Biso   1.000  C
  H136     1.0000 0.50970  0.41830  0.00520  Biso   1.000  H
  C251     1.0000 0.53700  0.41240  0.19700  Biso   1.000  C
  C252     1.0000 0.55270  0.39320  0.29470  Biso   1.000  C
  H137     1.0000 0.56680  0.40020  0.37260  Biso   1.000  H
  C253     1.0000 0.54760  0.36350  0.27600  Biso   1.000  C
  H138     1.0000 0.55790  0.34950  0.34210  Biso   1.000  H
  S23      1.0000 0.54420  0.45142  0.24720  Biso   1.000  S
  O67      1.0000 0.55230  0.46240  0.09300  Biso   1.000  O
  O68      1.0000 0.51750  0.46340  0.26900  Biso   1.000  O
  O69      1.0000 0.56430  0.45400  0.35900  Biso   1.000  O
  N24      1.0000 0.97750  0.78740  0.62900  Biso   1.000  N
  C254     1.0000 0.94580  0.79040  0.63290  Biso   1.000  C
  C255     1.0000 0.94070  0.82100  0.67510  Biso   1.000  C
  H139     1.0000 0.92190  0.82930  0.69140  Biso   1.000  H
  C256     1.0000 0.96620  0.83590  0.68810  Biso   1.000  C
  H140     1.0000 0.96830  0.85610  0.71280  Biso   1.000  H
  C257     1.0000 0.98940  0.81540  0.65740  Biso   1.000  C
  C258     1.0000 0.01900  0.82420  0.64370  Biso   1.000  C
  C259     1.0000 0.02680  0.85460  0.65800  Biso   1.000  C
  C260     1.0000 0.01260  0.87460  0.55890  Biso   1.000  C
  H141     1.0000 0.99870  0.86810  0.47800  Biso   1.000  H
  C261     1.0000 0.01850  0.90430  0.57700  Biso   1.000  C
  H142     1.0000 0.00970  0.91830  0.50520  Biso   1.000  H
  C262     1.0000 0.03700  0.91240  0.69700  Biso   1.000  C
  C263     1.0000 0.05270  0.89320  0.79470  Biso   1.000  C
  H143     1.0000 0.06680  0.90020  0.87260  Biso   1.000  H
  C264     1.0000 0.04760  0.86350  0.77600  Biso   1.000  C
  H144     1.0000 0.05790  0.84950  0.84210  Biso   1.000  H
  S24      1.0000 0.04420  0.95142  0.74720  Biso   1.000  S
  O70      1.0000 0.05230  0.96240  0.59300  Biso   1.000  O
  O71      1.0000 0.01750  0.96340  0.76900  Biso   1.000  O
  O72      1.0000 0.06430  0.95400  0.85900  Biso   1.000  O
  N25      1.0000 0.03740  0.72750  0.12100  Biso   1.000  N
  C265     1.0000 0.04040  0.69580  0.11710  Biso   1.000  C
  C266     1.0000 0.07100  0.69070  0.07490  Biso   1.000  C
  H145     1.0000 0.07930  0.67190  0.05860  Biso   1.000  H
  C267     1.0000 0.08590  0.71620  0.06190  Biso   1.000  C
  H146     1.0000 0.10610  0.71830  0.03720  Biso   1.000  H
  C268     1.0000 0.06540  0.73940  0.09260  Biso   1.000  C
  C269     1.0000 0.07420  0.76900  0.10630  Biso   1.000  C
  C270     1.0000 0.10460  0.77680  0.09200  Biso   1.000  C
  C271     1.0000 0.12460  0.76260  0.19110  Biso   1.000  C
  H147     1.0000 0.11810  0.74870  0.27200  Biso   1.000  H
  C272     1.0000 0.15430  0.76850  0.17300  Biso   1.000  C
  H148     1.0000 0.16830  0.75970  0.24480  Biso   1.000  H
  C273     1.0000 0.16240  0.78700  0.05300  Biso   1.000  C
  C274     1.0000 0.14320  0.80270  0.95530  Biso   1.000  C
  H149     1.0000 0.15020  0.81680  0.87740  Biso   1.000  H
  C275     1.0000 0.11350  0.79760  0.97400  Biso   1.000  C
  H150     1.0000 0.09950  0.80790  0.90790  Biso   1.000  H
  S25      1.0000 0.20142  0.79420  0.00280  Biso   1.000  S
  O73      1.0000 0.21240  0.80230  0.15700  Biso   1.000  O
  O74      1.0000 0.21340  0.76750  0.98100  Biso   1.000  O
  O75      1.0000 0.20400  0.81430  0.89100  Biso   1.000  O
  N26      1.0000 0.53740  0.22750  0.62100  Biso   1.000  N
  C276     1.0000 0.54040  0.19580  0.61710  Biso   1.000  C
  C277     1.0000 0.57100  0.19070  0.57490  Biso   1.000  C
  H151     1.0000 0.57930  0.17190  0.55860  Biso   1.000  H
  C278     1.0000 0.58590  0.21620  0.56190  Biso   1.000  C
  H152     1.0000 0.60610  0.21830  0.53720  Biso   1.000  H
  C279     1.0000 0.56540  0.23940  0.59260  Biso   1.000  C
  C280     1.0000 0.57420  0.26900  0.60630  Biso   1.000  C
  C281     1.0000 0.60460  0.27680  0.59200  Biso   1.000  C
  C282     1.0000 0.62460  0.26260  0.69110  Biso   1.000  C
  H153     1.0000 0.61810  0.24870  0.77200  Biso   1.000  H
  C283     1.0000 0.65430  0.26850  0.67300  Biso   1.000  C
  H154     1.0000 0.66830  0.25970  0.74480  Biso   1.000  H
  C284     1.0000 0.66240  0.28700  0.55300  Biso   1.000  C
  C285     1.0000 0.64320  0.30270  0.45530  Biso   1.000  C
  H155     1.0000 0.65020  0.31680  0.37740  Biso   1.000  H
  C286     1.0000 0.61350  0.29760  0.47400  Biso   1.000  C
  H156     1.0000 0.59950  0.30790  0.40790  Biso   1.000  H
  S26      1.0000 0.70142  0.29420  0.50280  Biso   1.000  S
  O76      1.0000 0.71240  0.30230  0.65700  Biso   1.000  O
  O77      1.0000 0.71340  0.26750  0.48100  Biso   1.000  O
  O78      1.0000 0.70400  0.31430  0.39100  Biso   1.000  O
  N27      1.0000 0.46260  0.27250  0.62100  Biso   1.000  N
  C287     1.0000 0.45960  0.30420  0.61710  Biso   1.000  C
  C288     1.0000 0.42900  0.30930  0.57490  Biso   1.000  C
  H157     1.0000 0.42070  0.32810  0.55860  Biso   1.000  H
  C289     1.0000 0.41410  0.28380  0.56190  Biso   1.000  C
  H158     1.0000 0.39390  0.28170  0.53720  Biso   1.000  H
  C290     1.0000 0.43460  0.26060  0.59260  Biso   1.000  C
  C291     1.0000 0.42580  0.23100  0.60630  Biso   1.000  C
  C292     1.0000 0.39540  0.22320  0.59200  Biso   1.000  C
  C293     1.0000 0.37540  0.23740  0.69110  Biso   1.000  C
  H159     1.0000 0.38190  0.25130  0.77200  Biso   1.000  H
  C294     1.0000 0.34570  0.23150  0.67300  Biso   1.000  C
  H160     1.0000 0.33170  0.24030  0.74480  Biso   1.000  H
  C295     1.0000 0.33760  0.21300  0.55300  Biso   1.000  C
  C296     1.0000 0.35680  0.19730  0.45530  Biso   1.000  C
  H161     1.0000 0.34980  0.18320  0.37740  Biso   1.000  H
  C297     1.0000 0.38650  0.20240  0.47400  Biso   1.000  C
  H162     1.0000 0.40050  0.19210  0.40790  Biso   1.000  H
  S27      1.0000 0.29858  0.20580  0.50280  Biso   1.000  S
  O79      1.0000 0.28760  0.19770  0.65700  Biso   1.000  O
  O80      1.0000 0.28660  0.23250  0.48100  Biso   1.000  O
  O81      1.0000 0.29600  0.18570  0.39100  Biso   1.000  O
  N28      1.0000 0.96260  0.77250  0.12100  Biso   1.000  N
  C298     1.0000 0.95960  0.80420  0.11710  Biso   1.000  C
  C299     1.0000 0.92900  0.80930  0.07490  Biso   1.000  C
  H163     1.0000 0.92070  0.82810  0.05860  Biso   1.000  H
  C300     1.0000 0.91410  0.78380  0.06190  Biso   1.000  C
  H164     1.0000 0.89390  0.78170  0.03720  Biso   1.000  H
  C301     1.0000 0.93460  0.76060  0.09260  Biso   1.000  C
  C302     1.0000 0.92580  0.73100  0.10630  Biso   1.000  C
  C303     1.0000 0.89540  0.72320  0.09200  Biso   1.000  C
  C304     1.0000 0.87540  0.73740  0.19110  Biso   1.000  C
  H165     1.0000 0.88190  0.75130  0.27200  Biso   1.000  H
  C305     1.0000 0.84570  0.73150  0.17300  Biso   1.000  C
  H166     1.0000 0.83170  0.74030  0.24480  Biso   1.000  H
  C306     1.0000 0.83760  0.71300  0.05300  Biso   1.000  C
  C307     1.0000 0.85680  0.69730  0.95530  Biso   1.000  C
  H167     1.0000 0.84980  0.68320  0.87740  Biso   1.000  H
  C308     1.0000 0.88650  0.70240  0.97400  Biso   1.000  C
  H168     1.0000 0.90050  0.69210  0.90790  Biso   1.000  H
  S28      1.0000 0.79858  0.70580  0.00280  Biso   1.000  S
  O82      1.0000 0.78760  0.69770  0.15700  Biso   1.000  O
  O83      1.0000 0.78660  0.73250  0.98100  Biso   1.000  O
  O84      1.0000 0.79600  0.68570  0.89100  Biso   1.000  O
  N29      1.0000 0.47750  0.71260  0.37100  Biso   1.000  N
  C309     1.0000 0.44580  0.70960  0.36710  Biso   1.000  C
  C310     1.0000 0.44070  0.67900  0.32490  Biso   1.000  C
  H169     1.0000 0.42190  0.67070  0.30860  Biso   1.000  H
  C311     1.0000 0.46620  0.66410  0.31190  Biso   1.000  C
  H170     1.0000 0.46830  0.64390  0.28720  Biso   1.000  H
  C312     1.0000 0.48940  0.68460  0.34260  Biso   1.000  C
  C313     1.0000 0.51900  0.67580  0.35630  Biso   1.000  C
  C314     1.0000 0.52680  0.64540  0.34200  Biso   1.000  C
  C315     1.0000 0.51260  0.62540  0.44110  Biso   1.000  C
  H171     1.0000 0.49870  0.63190  0.52200  Biso   1.000  H
  C316     1.0000 0.51850  0.59570  0.42300  Biso   1.000  C
  H172     1.0000 0.50970  0.58170  0.49480  Biso   1.000  H
  C317     1.0000 0.53700  0.58760  0.30300  Biso   1.000  C
  C318     1.0000 0.55270  0.60680  0.20530  Biso   1.000  C
  H173     1.0000 0.56680  0.59980  0.12740  Biso   1.000  H
  C319     1.0000 0.54760  0.63650  0.22400  Biso   1.000  C
  H174     1.0000 0.55790  0.65050  0.15790  Biso   1.000  H
  S29      1.0000 0.54420  0.54858  0.25280  Biso   1.000  S
  O85      1.0000 0.55230  0.53760  0.40700  Biso   1.000  O
  O86      1.0000 0.51750  0.53660  0.23100  Biso   1.000  O
  O87      1.0000 0.56430  0.54600  0.14100  Biso   1.000  O
  N30      1.0000 0.97750  0.21260  0.87100  Biso   1.000  N
  C320     1.0000 0.94580  0.20960  0.86710  Biso   1.000  C
  C321     1.0000 0.94070  0.17900  0.82490  Biso   1.000  C
  H175     1.0000 0.92190  0.17070  0.80860  Biso   1.000  H
  C322     1.0000 0.96620  0.16410  0.81190  Biso   1.000  C
  H176     1.0000 0.96830  0.14390  0.78720  Biso   1.000  H
  C323     1.0000 0.98940  0.18460  0.84260  Biso   1.000  C
  C324     1.0000 0.01900  0.17580  0.85630  Biso   1.000  C
  C325     1.0000 0.02680  0.14540  0.84200  Biso   1.000  C
  C326     1.0000 0.01260  0.12540  0.94110  Biso   1.000  C
  H177     1.0000 0.99870  0.13190  0.02200  Biso   1.000  H
  C327     1.0000 0.01850  0.09570  0.92300  Biso   1.000  C
  H178     1.0000 0.00970  0.08170  0.99480  Biso   1.000  H
  C328     1.0000 0.03700  0.08760  0.80300  Biso   1.000  C
  C329     1.0000 0.05270  0.10680  0.70530  Biso   1.000  C
  H179     1.0000 0.06680  0.09980  0.62740  Biso   1.000  H
  C330     1.0000 0.04760  0.13650  0.72400  Biso   1.000  C
  H180     1.0000 0.05790  0.15050  0.65790  Biso   1.000  H
  S30      1.0000 0.04420  0.04858  0.75280  Biso   1.000  S
  O88      1.0000 0.05230  0.03760  0.90700  Biso   1.000  O
  O89      1.0000 0.01750  0.03660  0.73100  Biso   1.000  O
  O90      1.0000 0.06430  0.04600  0.64100  Biso   1.000  O
  N31      1.0000 0.02250  0.28740  0.87100  Biso   1.000  N
  C331     1.0000 0.05420  0.29040  0.86710  Biso   1.000  C
  C332     1.0000 0.05930  0.32100  0.82490  Biso   1.000  C
  H181     1.0000 0.07810  0.32930  0.80860  Biso   1.000  H
  C333     1.0000 0.03380  0.33590  0.81190  Biso   1.000  C
  H182     1.0000 0.03170  0.35610  0.78720  Biso   1.000  H
  C334     1.0000 0.01060  0.31540  0.84260  Biso   1.000  C
  C335     1.0000 0.98100  0.32420  0.85630  Biso   1.000  C
  C336     1.0000 0.97320  0.35460  0.84200  Biso   1.000  C
  C337     1.0000 0.98740  0.37460  0.94110  Biso   1.000  C
  H183     1.0000 0.00130  0.36810  0.02200  Biso   1.000  H
  C338     1.0000 0.98150  0.40430  0.92300  Biso   1.000  C
  H184     1.0000 0.99030  0.41830  0.99480  Biso   1.000  H
  C339     1.0000 0.96300  0.41240  0.80300  Biso   1.000  C
  C340     1.0000 0.94730  0.39320  0.70530  Biso   1.000  C
  H185     1.0000 0.93320  0.40020  0.62740  Biso   1.000  H
  C341     1.0000 0.95240  0.36350  0.72400  Biso   1.000  C
  H186     1.0000 0.94210  0.34950  0.65790  Biso   1.000  H
  S31      1.0000 0.95580  0.45142  0.75280  Biso   1.000  S
  O91      1.0000 0.94770  0.46240  0.90700  Biso   1.000  O
  O92      1.0000 0.98250  0.46340  0.73100  Biso   1.000  O
  O93      1.0000 0.93570  0.45400  0.64100  Biso   1.000  O
  N32      1.0000 0.52250  0.78740  0.37100  Biso   1.000  N
  C342     1.0000 0.55420  0.79040  0.36710  Biso   1.000  C
  C343     1.0000 0.55930  0.82100  0.32490  Biso   1.000  C
  H187     1.0000 0.57810  0.82930  0.30860  Biso   1.000  H
  C344     1.0000 0.53380  0.83590  0.31190  Biso   1.000  C
  H188     1.0000 0.53170  0.85610  0.28720  Biso   1.000  H
  C345     1.0000 0.51060  0.81540  0.34260  Biso   1.000  C
  C346     1.0000 0.48100  0.82420  0.35630  Biso   1.000  C
  C347     1.0000 0.47320  0.85460  0.34200  Biso   1.000  C
  C348     1.0000 0.48740  0.87460  0.44110  Biso   1.000  C
  H189     1.0000 0.50130  0.86810  0.52200  Biso   1.000  H
  C349     1.0000 0.48150  0.90430  0.42300  Biso   1.000  C
  H190     1.0000 0.49030  0.91830  0.49480  Biso   1.000  H
  C350     1.0000 0.46300  0.91240  0.30300  Biso   1.000  C
  C351     1.0000 0.44730  0.89320  0.20530  Biso   1.000  C
  H191     1.0000 0.43320  0.90020  0.12740  Biso   1.000  H
  C352     1.0000 0.45240  0.86350  0.22400  Biso   1.000  C
  H192     1.0000 0.44210  0.84950  0.15790  Biso   1.000  H
  S32      1.0000 0.45580  0.95142  0.25280  Biso   1.000  S
  O94      1.0000 0.44770  0.96240  0.40700  Biso   1.000  O
  O95      1.0000 0.48250  0.96340  0.23100  Biso   1.000  O
  O96      1.0000 0.43570  0.95400  0.14100  Biso   1.000  O
  Pd1      1.0000 0.50000  0.25000  0.12500  Biso   1.000  Pd
  Pd2      1.0000 0.00000  0.75000  0.62500  Biso   1.000  Pd
  Pd3      1.0000 0.00000  0.25000  0.37500  Biso   1.000  Pd
  Pd4      1.0000 0.50000  0.75000  0.87500  Biso   1.000  Pd
  Pd5      1.0000 0.00000  0.25000  0.87500  Biso   1.000  Pd
  Pd6      1.0000 0.50000  0.75000  0.37500  Biso   1.000  Pd
  Pd7      1.0000 0.50000  0.25000  0.62500  Biso   1.000  Pd
  Pd8      1.0000 0.00000  0.75000  0.12500  Biso   1.000  Pd
  K1       1.0000 0.75000  0.25000  0.75000  Biso   1.000  K
  K2       1.0000 0.75000  0.75000  0.25000  Biso   1.000  K
  K3       1.0000 0.00000  0.50000  0.00000  Biso   1.000  K
  K4       1.0000 0.50000  0.00000  0.50000  Biso   1.000  K
  K5       1.0000 0.50000  0.50000  0.50000  Biso   1.000  K
  K6       1.0000 0.00000  0.00000  0.00000  Biso   1.000  K
  K7       1.0000 0.75000  0.25000  0.25000  Biso   1.000  K
  K8       1.0000 0.75000  0.75000  0.75000  Biso   1.000  K
  K9       1.0000 0.50000  0.50000  0.00000  Biso   1.000  K
  K10      1.0000 0.00000  0.00000  0.50000  Biso   1.000  K
  K11      1.0000 0.00000  0.50000  0.50000  Biso   1.000  K
  K12      1.0000 0.50000  0.00000  0.00000  Biso   1.000  K
  K13      1.0000 0.25000  0.75000  0.25000  Biso   1.000  K
  K14      1.0000 0.25000  0.25000  0.75000  Biso   1.000  K
  K15      1.0000 0.25000  0.75000  0.75000  Biso   1.000  K
  K16      1.0000 0.25000  0.25000  0.25000  Biso   1.000  K
