data_GULVUF_clean
_audit_creation_date              2014-07-02
_audit_creation_method            'Materials Studio'
_symmetry_space_group_name_H-M    'P1'
_symmetry_Int_Tables_number       1
_symmetry_cell_setting            triclinic
loop_
_symmetry_equiv_pos_as_xyz
  x,y,z
_cell_length_a                    16.2470
_cell_length_b                    25.7827
_cell_length_c                    41.2282
_cell_angle_alpha                 86.4408
_cell_angle_beta                  78.6364
_cell_angle_gamma                 71.6346
loop_
_atom_site_label
_atom_site_type_symbol
_atom_site_fract_x
_atom_site_fract_y
_atom_site_fract_z
_atom_site_U_iso_or_equiv
_atom_site_adp_type
_atom_site_occupancy
Yb1    Yb    0.11968   0.25000   0.26064   0.01267  Uiso   1.00
Yb2    Yb    0.63032   0.25000   0.23936   0.01267  Uiso   1.00
Yb3    Yb    0.88032   0.75000   0.73936   0.01267  Uiso   1.00
Yb4    Yb    0.36968   0.75000   0.76064   0.01267  Uiso   1.00
Yb5    Yb    0.40970   0.18060   0.25000   0.01267  Uiso   1.00
Yb6    Yb    0.84030   0.31940   0.25000   0.01267  Uiso   1.00
Yb7    Yb    0.59030   0.81940   0.75000   0.01267  Uiso   1.00
Yb8    Yb    0.15970   0.68060   0.75000   0.01267  Uiso   1.00
H1     H     0.37510   0.29180   0.32600   0.01267  Uiso   1.00
H2     H     0.35660   0.34460   0.37200   0.01267  Uiso   1.00
H3     H     0.10830   0.42580   0.36100   0.01267  Uiso   1.00
H4     H     0.12680   0.37300   0.31500   0.01267  Uiso   1.00
H5     H     0.27180   0.40940   0.40980   0.01267  Uiso   1.00
H6     H     0.10140   0.46520   0.41480   0.01267  Uiso   1.00
H7     H     0.03900   0.57200   0.50580   0.01267  Uiso   1.00
H8     H     0.27300   0.42380   0.46000   0.01267  Uiso   1.00
H9     H     0.19960   0.51560   0.55620   0.01267  Uiso   1.00
H10    H     0.05150   0.59820   0.55340   0.01267  Uiso   1.00
H11    H     0.20160   0.54160   0.60800   0.01267  Uiso   1.00
H12    H     0.18540   0.57540   0.66060   0.01267  Uiso   1.00
H13    H     0.96450   0.69300   0.64680   0.01267  Uiso   1.00
H14    H     0.98070   0.65920   0.59420   0.01267  Uiso   1.00
H15    H     0.17930   0.12800   0.17520   0.01267  Uiso   1.00
H16    H     0.23040   0.08260   0.12480   0.01267  Uiso   1.00
H17    H     0.45820   0.11740   0.11560   0.01267  Uiso   1.00
H18    H     0.40710   0.16280   0.16600   0.01267  Uiso   1.00
H19    H     0.34040   0.04900   0.07740   0.01267  Uiso   1.00
H20    H     0.49320   0.07440   0.06500   0.01267  Uiso   1.00
H21    H     0.40130   0.97740   0.04400   0.01267  Uiso   1.00
H22    H     0.90390   0.61420   0.46080   0.01267  Uiso   1.00
H23    H     0.93490   0.58060   0.49160   0.01267  Uiso   1.00
H24    H     0.98660   0.61920   0.47300   0.01267  Uiso   1.00
H25    H     0.65770   0.11880   0.97800   0.01267  Uiso   1.00
H26    H     0.67980   0.05540   0.97440   0.01267  Uiso   1.00
H27    H     0.60520   0.09540   0.95780   0.01267  Uiso   1.00
H28    H     0.39590   0.38260   0.51020   0.01267  Uiso   1.00
H29    H     0.32130   0.37760   0.49280   0.01267  Uiso   1.00
H30    H     0.37720   0.41600   0.47800   0.01267  Uiso   1.00
H31    H     0.79890   0.20820   0.32600   0.01267  Uiso   1.00
H32    H     0.77140   0.15540   0.37200   0.01267  Uiso   1.00
H33    H     0.03070   0.07420   0.36100   0.01267  Uiso   1.00
H34    H     0.05820   0.12700   0.31500   0.01267  Uiso   1.00
H35    H     0.81840   0.09060   0.40980   0.01267  Uiso   1.00
H36    H     0.98380   0.03480   0.41480   0.01267  Uiso   1.00
H37    H     0.95520   0.92800   0.50580   0.01267  Uiso   1.00
H38    H     0.76700   0.07620   0.46000   0.01267  Uiso   1.00
H39    H     0.74420   0.98440   0.55620   0.01267  Uiso   1.00
H40    H     0.89510   0.90180   0.55340   0.01267  Uiso   1.00
H41    H     0.69040   0.95840   0.60800   0.01267  Uiso   1.00
H42    H     0.65400   0.92460   0.66060   0.01267  Uiso   1.00
H43    H     0.88870   0.80700   0.64680   0.01267  Uiso   1.00
H44    H     0.92510   0.84080   0.59420   0.01267  Uiso   1.00
H45    H     0.14550   0.37200   0.17520   0.01267  Uiso   1.00
H46    H     0.14480   0.41740   0.12480   0.01267  Uiso   1.00
H47    H     0.92620   0.38260   0.11560   0.01267  Uiso   1.00
H48    H     0.92690   0.33720   0.16600   0.01267  Uiso   1.00
H49    H     0.08220   0.45100   0.07740   0.01267  Uiso   1.00
H50    H     0.94180   0.42560   0.06500   0.01267  Uiso   1.00
H51    H     0.05470   0.52260   0.04400   0.01267  Uiso   1.00
H52    H     0.13530   0.88580   0.46080   0.01267  Uiso   1.00
H53    H     0.07350   0.91940   0.49160   0.01267  Uiso   1.00
H54    H     0.04040   0.88080   0.47300   0.01267  Uiso   1.00
H55    H     0.86430   0.38120   0.97800   0.01267  Uiso   1.00
H56    H     0.84580   0.44460   0.97440   0.01267  Uiso   1.00
H57    H     0.93700   0.40460   0.95780   0.01267  Uiso   1.00
H58    H     0.59390   0.11740   0.51020   0.01267  Uiso   1.00
H59    H     0.68590   0.12240   0.49280   0.01267  Uiso   1.00
H60    H     0.64480   0.08400   0.47800   0.01267  Uiso   1.00
H61    H     0.33310   0.29180   0.17400   0.01267  Uiso   1.00
H62    H     0.29880   0.34460   0.12800   0.01267  Uiso   1.00
H63    H     0.46590   0.42580   0.13900   0.01267  Uiso   1.00
H64    H     0.50020   0.37300   0.18500   0.01267  Uiso   1.00
H65    H     0.31880   0.40940   0.09020   0.01267  Uiso   1.00
H66    H     0.43340   0.46520   0.08520   0.01267  Uiso   1.00
H67    H     0.38900   0.57200   0.99420   0.01267  Uiso   1.00
H68    H     0.30320   0.42380   0.04000   0.01267  Uiso   1.00
H69    H     0.28480   0.51560   0.94380   0.01267  Uiso   1.00
H70    H     0.35030   0.59820   0.94660   0.01267  Uiso   1.00
H71    H     0.25680   0.54160   0.89200   0.01267  Uiso   1.00
H72    H     0.23920   0.57540   0.83940   0.01267  Uiso   1.00
H73    H     0.34250   0.69300   0.85320   0.01267  Uiso   1.00
H74    H     0.36010   0.65920   0.90580   0.01267  Uiso   1.00
H75    H     0.69270   0.12800   0.32480   0.01267  Uiso   1.00
H76    H     0.68700   0.08260   0.37520   0.01267  Uiso   1.00
H77    H     0.42440   0.11740   0.38440   0.01267  Uiso   1.00
H78    H     0.43010   0.16280   0.33400   0.01267  Uiso   1.00
H79    H     0.61060   0.04900   0.42260   0.01267  Uiso   1.00
H80    H     0.43240   0.07440   0.43500   0.01267  Uiso   1.00
H81    H     0.62130   0.97740   0.45600   0.01267  Uiso   1.00
H82    H     0.48190   0.61420   0.03920   0.01267  Uiso   1.00
H83    H     0.48450   0.58060   0.00840   0.01267  Uiso   1.00
H84    H     0.39420   0.61920   0.02700   0.01267  Uiso   1.00
H85    H     0.22350   0.11880   0.52200   0.01267  Uiso   1.00
H86    H     0.26480   0.05540   0.52560   0.01267  Uiso   1.00
H87    H     0.29940   0.09540   0.54220   0.01267  Uiso   1.00
H88    H     0.22150   0.38260   0.98980   0.01267  Uiso   1.00
H89    H     0.30110   0.37760   0.00720   0.01267  Uiso   1.00
H90    H     0.20680   0.41600   0.02200   0.01267  Uiso   1.00
H91    H     0.99290   0.20820   0.17400   0.01267  Uiso   1.00
H92    H     0.07320   0.15540   0.12800   0.01267  Uiso   1.00
H93    H     0.89510   0.07420   0.13900   0.01267  Uiso   1.00
H94    H     0.81480   0.12700   0.18500   0.01267  Uiso   1.00
H95    H     0.09100   0.09060   0.09020   0.01267  Uiso   1.00
H96    H     0.98140   0.03480   0.08520   0.01267  Uiso   1.00
H97    H     0.11680   0.92800   0.99420   0.01267  Uiso   1.00
H98    H     0.15680   0.07620   0.04000   0.01267  Uiso   1.00
H99    H     0.27140   0.98440   0.94380   0.01267  Uiso   1.00
H100   H     0.20310   0.90180   0.94660   0.01267  Uiso   1.00
H101   H     0.35120   0.95840   0.89200   0.01267  Uiso   1.00
H102   H     0.42140   0.92460   0.83940   0.01267  Uiso   1.00
H103   H     0.30430   0.80700   0.85320   0.01267  Uiso   1.00
H104   H     0.23410   0.84080   0.90580   0.01267  Uiso   1.00
H105   H     0.48250   0.37200   0.32480   0.01267  Uiso   1.00
H106   H     0.43780   0.41740   0.37520   0.01267  Uiso   1.00
H107   H     0.69120   0.38260   0.38440   0.01267  Uiso   1.00
H108   H     0.73590   0.33720   0.33400   0.01267  Uiso   1.00
H109   H     0.46680   0.45100   0.42260   0.01267  Uiso   1.00
H110   H     0.63260   0.42560   0.43500   0.01267  Uiso   1.00
H111   H     0.42270   0.52260   0.45600   0.01267  Uiso   1.00
H112   H     0.97890   0.88580   0.03920   0.01267  Uiso   1.00
H113   H     0.00710   0.91940   0.00840   0.01267  Uiso   1.00
H114   H     0.07880   0.88080   0.02700   0.01267  Uiso   1.00
H115   H     0.75450   0.38120   0.52200   0.01267  Uiso   1.00
H116   H     0.70960   0.44460   0.52560   0.01267  Uiso   1.00
H117   H     0.65840   0.40460   0.54220   0.01267  Uiso   1.00
H118   H     0.28870   0.11740   0.98980   0.01267  Uiso   1.00
H119   H     0.19170   0.12240   0.00720   0.01267  Uiso   1.00
H120   H     0.27120   0.08400   0.02200   0.01267  Uiso   1.00
H121   H     0.62490   0.70820   0.67400   0.01267  Uiso   1.00
H122   H     0.64340   0.65540   0.62800   0.01267  Uiso   1.00
H123   H     0.89170   0.57420   0.63900   0.01267  Uiso   1.00
H124   H     0.87320   0.62700   0.68500   0.01267  Uiso   1.00
H125   H     0.72820   0.59060   0.59020   0.01267  Uiso   1.00
H126   H     0.89860   0.53480   0.58520   0.01267  Uiso   1.00
H127   H     0.96100   0.42800   0.49420   0.01267  Uiso   1.00
H128   H     0.72700   0.57620   0.54000   0.01267  Uiso   1.00
H129   H     0.80040   0.48440   0.44380   0.01267  Uiso   1.00
H130   H     0.94850   0.40180   0.44660   0.01267  Uiso   1.00
H131   H     0.79840   0.45840   0.39200   0.01267  Uiso   1.00
H132   H     0.81460   0.42460   0.33940   0.01267  Uiso   1.00
H133   H     0.03550   0.30700   0.35320   0.01267  Uiso   1.00
H134   H     0.01930   0.34080   0.40580   0.01267  Uiso   1.00
H135   H     0.82070   0.87200   0.82480   0.01267  Uiso   1.00
H136   H     0.76960   0.91740   0.87520   0.01267  Uiso   1.00
H137   H     0.54180   0.88260   0.88440   0.01267  Uiso   1.00
H138   H     0.59290   0.83720   0.83400   0.01267  Uiso   1.00
H139   H     0.65960   0.95100   0.92260   0.01267  Uiso   1.00
H140   H     0.50680   0.92560   0.93500   0.01267  Uiso   1.00
H141   H     0.59870   0.02260   0.95600   0.01267  Uiso   1.00
H142   H     0.09610   0.38580   0.53920   0.01267  Uiso   1.00
H143   H     0.06510   0.41940   0.50840   0.01267  Uiso   1.00
H144   H     0.01340   0.38080   0.52700   0.01267  Uiso   1.00
H145   H     0.34230   0.88120   0.02200   0.01267  Uiso   1.00
H146   H     0.32020   0.94460   0.02560   0.01267  Uiso   1.00
H147   H     0.39480   0.90460   0.04220   0.01267  Uiso   1.00
H148   H     0.60410   0.61740   0.48980   0.01267  Uiso   1.00
H149   H     0.67870   0.62240   0.50720   0.01267  Uiso   1.00
H150   H     0.62280   0.58400   0.52200   0.01267  Uiso   1.00
H151   H     0.20110   0.79180   0.67400   0.01267  Uiso   1.00
H152   H     0.22860   0.84460   0.62800   0.01267  Uiso   1.00
H153   H     0.96930   0.92580   0.63900   0.01267  Uiso   1.00
H154   H     0.94180   0.87300   0.68500   0.01267  Uiso   1.00
H155   H     0.18160   0.90940   0.59020   0.01267  Uiso   1.00
H156   H     0.01620   0.96520   0.58520   0.01267  Uiso   1.00
H157   H     0.04480   0.07200   0.49420   0.01267  Uiso   1.00
H158   H     0.23300   0.92380   0.54000   0.01267  Uiso   1.00
H159   H     0.25580   0.01560   0.44380   0.01267  Uiso   1.00
H160   H     0.10490   0.09820   0.44660   0.01267  Uiso   1.00
H161   H     0.30960   0.04160   0.39200   0.01267  Uiso   1.00
H162   H     0.34600   0.07540   0.33940   0.01267  Uiso   1.00
H163   H     0.11130   0.19300   0.35320   0.01267  Uiso   1.00
H164   H     0.07490   0.15920   0.40580   0.01267  Uiso   1.00
H165   H     0.85450   0.62800   0.82480   0.01267  Uiso   1.00
H166   H     0.85520   0.58260   0.87520   0.01267  Uiso   1.00
H167   H     0.07380   0.61740   0.88440   0.01267  Uiso   1.00
H168   H     0.07310   0.66280   0.83400   0.01267  Uiso   1.00
H169   H     0.91780   0.54900   0.92260   0.01267  Uiso   1.00
H170   H     0.05820   0.57440   0.93500   0.01267  Uiso   1.00
H171   H     0.94530   0.47740   0.95600   0.01267  Uiso   1.00
H172   H     0.86470   0.11420   0.53920   0.01267  Uiso   1.00
H173   H     0.92650   0.08060   0.50840   0.01267  Uiso   1.00
H174   H     0.95960   0.11920   0.52700   0.01267  Uiso   1.00
H175   H     0.13570   0.61880   0.02200   0.01267  Uiso   1.00
H176   H     0.15420   0.55540   0.02560   0.01267  Uiso   1.00
H177   H     0.06300   0.59540   0.04220   0.01267  Uiso   1.00
H178   H     0.40610   0.88260   0.48980   0.01267  Uiso   1.00
H179   H     0.31410   0.87760   0.50720   0.01267  Uiso   1.00
H180   H     0.35520   0.91600   0.52200   0.01267  Uiso   1.00
H181   H     0.66690   0.70820   0.82600   0.01267  Uiso   1.00
H182   H     0.70120   0.65540   0.87200   0.01267  Uiso   1.00
H183   H     0.53410   0.57420   0.86100   0.01267  Uiso   1.00
H184   H     0.49980   0.62700   0.81500   0.01267  Uiso   1.00
H185   H     0.68120   0.59060   0.90980   0.01267  Uiso   1.00
H186   H     0.56660   0.53480   0.91480   0.01267  Uiso   1.00
H187   H     0.61100   0.42800   0.00580   0.01267  Uiso   1.00
H188   H     0.69680   0.57620   0.96000   0.01267  Uiso   1.00
H189   H     0.71520   0.48440   0.05620   0.01267  Uiso   1.00
H190   H     0.64970   0.40180   0.05340   0.01267  Uiso   1.00
H191   H     0.74320   0.45840   0.10800   0.01267  Uiso   1.00
H192   H     0.76080   0.42460   0.16060   0.01267  Uiso   1.00
H193   H     0.65750   0.30700   0.14680   0.01267  Uiso   1.00
H194   H     0.63990   0.34080   0.09420   0.01267  Uiso   1.00
H195   H     0.30730   0.87200   0.67520   0.01267  Uiso   1.00
H196   H     0.31300   0.91740   0.62480   0.01267  Uiso   1.00
H197   H     0.57560   0.88260   0.61560   0.01267  Uiso   1.00
H198   H     0.56990   0.83720   0.66600   0.01267  Uiso   1.00
H199   H     0.38940   0.95100   0.57740   0.01267  Uiso   1.00
H200   H     0.56760   0.92560   0.56500   0.01267  Uiso   1.00
H201   H     0.37870   0.02260   0.54400   0.01267  Uiso   1.00
H202   H     0.51810   0.38580   0.96080   0.01267  Uiso   1.00
H203   H     0.51550   0.41940   0.99160   0.01267  Uiso   1.00
H204   H     0.60580   0.38080   0.97300   0.01267  Uiso   1.00
H205   H     0.77650   0.88120   0.47800   0.01267  Uiso   1.00
H206   H     0.73520   0.94460   0.47440   0.01267  Uiso   1.00
H207   H     0.70060   0.90460   0.45780   0.01267  Uiso   1.00
H208   H     0.77850   0.61740   0.01020   0.01267  Uiso   1.00
H209   H     0.69890   0.62240   0.99280   0.01267  Uiso   1.00
H210   H     0.79320   0.58400   0.97800   0.01267  Uiso   1.00
H211   H     0.00710   0.79180   0.82600   0.01267  Uiso   1.00
H212   H     0.92680   0.84460   0.87200   0.01267  Uiso   1.00
H213   H     0.10490   0.92580   0.86100   0.01267  Uiso   1.00
H214   H     0.18520   0.87300   0.81500   0.01267  Uiso   1.00
H215   H     0.90900   0.90940   0.90980   0.01267  Uiso   1.00
H216   H     0.01860   0.96520   0.91480   0.01267  Uiso   1.00
H217   H     0.88320   0.07200   0.00580   0.01267  Uiso   1.00
H218   H     0.84320   0.92380   0.96000   0.01267  Uiso   1.00
H219   H     0.72860   0.01560   0.05620   0.01267  Uiso   1.00
H220   H     0.79690   0.09820   0.05340   0.01267  Uiso   1.00
H221   H     0.64880   0.04160   0.10800   0.01267  Uiso   1.00
H222   H     0.57860   0.07540   0.16060   0.01267  Uiso   1.00
H223   H     0.69570   0.19300   0.14680   0.01267  Uiso   1.00
H224   H     0.76590   0.15920   0.09420   0.01267  Uiso   1.00
H225   H     0.51750   0.62800   0.67520   0.01267  Uiso   1.00
H226   H     0.56220   0.58260   0.62480   0.01267  Uiso   1.00
H227   H     0.30880   0.61740   0.61560   0.01267  Uiso   1.00
H228   H     0.26410   0.66280   0.66600   0.01267  Uiso   1.00
H229   H     0.53320   0.54900   0.57740   0.01267  Uiso   1.00
H230   H     0.36740   0.57440   0.56500   0.01267  Uiso   1.00
H231   H     0.57730   0.47740   0.54400   0.01267  Uiso   1.00
H232   H     0.02110   0.11420   0.96080   0.01267  Uiso   1.00
H233   H     0.99290   0.08060   0.99160   0.01267  Uiso   1.00
H234   H     0.92120   0.11920   0.97300   0.01267  Uiso   1.00
H235   H     0.24550   0.61880   0.47800   0.01267  Uiso   1.00
H236   H     0.29040   0.55540   0.47440   0.01267  Uiso   1.00
H237   H     0.34160   0.59540   0.45780   0.01267  Uiso   1.00
H238   H     0.71130   0.88260   0.01020   0.01267  Uiso   1.00
H239   H     0.80830   0.87760   0.99280   0.01267  Uiso   1.00
H240   H     0.72880   0.91600   0.97800   0.01267  Uiso   1.00
C1     C     0.26573   0.28920   0.28874   0.01267  Uiso   1.00
C2     C     0.25273   0.32722   0.31592   0.01267  Uiso   1.00
C3     C     0.32164   0.31872   0.33300   0.01267  Uiso   1.00
C4     C     0.31053   0.35036   0.36058   0.01267  Uiso   1.00
C5     C     0.23062   0.39050   0.37106   0.01267  Uiso   1.00
C6     C     0.16170   0.39900   0.35400   0.01267  Uiso   1.00
C7     C     0.17280   0.36738   0.32642   0.01267  Uiso   1.00
C8     C     0.21923   0.41880   0.40194   0.01267  Uiso   1.00
C9     C     0.15560   0.45380   0.42160   0.01267  Uiso   1.00
C10    C     0.15699   0.47720   0.45242   0.01267  Uiso   1.00
C11    C     0.08694   0.52160   0.46612   0.01267  Uiso   1.00
C12    C     0.08596   0.54230   0.49658   0.01267  Uiso   1.00
C13    C     0.15504   0.51860   0.51332   0.01267  Uiso   1.00
C14    C     0.22519   0.47420   0.49962   0.01267  Uiso   1.00
C15    C     0.22617   0.45350   0.46916   0.01267  Uiso   1.00
C16    C     0.15342   0.53660   0.54616   0.01267  Uiso   1.00
C17    C     0.09727   0.57760   0.56386   0.01267  Uiso   1.00
C18    C     0.09272   0.59702   0.59594   0.01267  Uiso   1.00
C19    C     0.15415   0.57190   0.61580   0.01267  Uiso   1.00
C20    C     0.14439   0.59218   0.64724   0.01267  Uiso   1.00
C21    C     0.07339   0.63758   0.65884   0.01267  Uiso   1.00
C22    C     0.01195   0.66270   0.63900   0.01267  Uiso   1.00
C23    C     0.02172   0.64242   0.60754   0.01267  Uiso   1.00
C24    C     0.05430   0.66200   0.69280   0.01267  Uiso   1.00
C25    C     0.25148   0.17780   0.20704   0.01267  Uiso   1.00
C26    C     0.28818   0.14986   0.17558   0.01267  Uiso   1.00
C27    C     0.23530   0.12580   0.16320   0.01267  Uiso   1.00
C28    C     0.26588   0.09862   0.13302   0.01267  Uiso   1.00
C29    C     0.34945   0.09550   0.11520   0.01267  Uiso   1.00
C30    C     0.40233   0.11954   0.12760   0.01267  Uiso   1.00
C31    C     0.37175   0.14672   0.15778   0.01267  Uiso   1.00
C32    C     0.37934   0.06560   0.08252   0.01267  Uiso   1.00
C33    C     0.45148   0.05960   0.06044   0.01267  Uiso   1.00
C34    C     0.47148   0.03040   0.02864   0.01267  Uiso   1.00
C35    C     0.43982   0.98660   0.02636   0.01267  Uiso   1.00
C36    C     0.53237   0.04260   0.00306   0.01267  Uiso   1.00
C37    C     0.95430   0.59480   0.47040   0.01267  Uiso   1.00
C38    C     0.63330   0.08980   0.97660   0.01267  Uiso   1.00
C39    C     0.35080   0.40200   0.49800   0.01267  Uiso   1.00
C40    C     0.94553   0.21080   0.28874   0.01267  Uiso   1.00
C41    C     0.93135   0.17278   0.31592   0.01267  Uiso   1.00
C42    C     0.84536   0.18128   0.33300   0.01267  Uiso   1.00
C43    C     0.82889   0.14964   0.36058   0.01267  Uiso   1.00
C44    C     0.89832   0.10950   0.37106   0.01267  Uiso   1.00
C45    C     0.98430   0.10100   0.35400   0.01267  Uiso   1.00
C46    C     0.00078   0.13262   0.32642   0.01267  Uiso   1.00
C47    C     0.87883   0.08120   0.40194   0.01267  Uiso   1.00
C48    C     0.92280   0.04620   0.42160   0.01267  Uiso   1.00
C49    C     0.89059   0.02280   0.45242   0.01267  Uiso   1.00
C50    C     0.94694   0.97840   0.46612   0.01267  Uiso   1.00
C51    C     0.91746   0.95770   0.49658   0.01267  Uiso   1.00
C52    C     0.83164   0.98140   0.51332   0.01267  Uiso   1.00
C53    C     0.77519   0.02580   0.49962   0.01267  Uiso   1.00
C54    C     0.80467   0.04650   0.46916   0.01267  Uiso   1.00
C55    C     0.80042   0.96340   0.54616   0.01267  Uiso   1.00
C56    C     0.83887   0.92240   0.56386   0.01267  Uiso   1.00
C57    C     0.81134   0.90298   0.59594   0.01267  Uiso   1.00
C58    C     0.73005   0.92810   0.61580   0.01267  Uiso   1.00
C59    C     0.70837   0.90782   0.64724   0.01267  Uiso   1.00
C60    C     0.76777   0.86242   0.65884   0.01267  Uiso   1.00
C61    C     0.84905   0.83730   0.63900   0.01267  Uiso   1.00
C62    C     0.87074   0.85758   0.60754   0.01267  Uiso   1.00
C63    C     0.75290   0.83800   0.69280   0.01267  Uiso   1.00
C64    C     0.04148   0.32220   0.20704   0.01267  Uiso   1.00
C65    C     0.03624   0.35014   0.17558   0.01267  Uiso   1.00
C66    C     0.10150   0.37420   0.16320   0.01267  Uiso   1.00
C67    C     0.10110   0.40138   0.13302   0.01267  Uiso   1.00
C68    C     0.03535   0.40450   0.11520   0.01267  Uiso   1.00
C69    C     0.97007   0.38046   0.12760   0.01267  Uiso   1.00
C70    C     0.97047   0.35328   0.15778   0.01267  Uiso   1.00
C71    C     0.03814   0.43440   0.08252   0.01267  Uiso   1.00
C72    C     0.98808   0.44040   0.06044   0.01267  Uiso   1.00
C73    C     0.99988   0.46960   0.02864   0.01267  Uiso   1.00
C74    C     0.03382   0.51340   0.02636   0.01267  Uiso   1.00
C75    C     0.96457   0.45740   0.00306   0.01267  Uiso   1.00
C76    C     0.07530   0.90520   0.47040   0.01267  Uiso   1.00
C77    C     0.89010   0.41020   0.97660   0.01267  Uiso   1.00
C78    C     0.65120   0.09800   0.49800   0.01267  Uiso   1.00
C79    C     0.44507   0.28920   0.21126   0.01267  Uiso   1.00
C80    C     0.42005   0.32722   0.18408   0.01267  Uiso   1.00
C81    C     0.35964   0.31872   0.16700   0.01267  Uiso   1.00
C82    C     0.33911   0.35036   0.13942   0.01267  Uiso   1.00
C83    C     0.37888   0.39050   0.12894   0.01267  Uiso   1.00
C84    C     0.43930   0.39900   0.14600   0.01267  Uiso   1.00
C85    C     0.45982   0.36738   0.17358   0.01267  Uiso   1.00
C86    C     0.36197   0.41880   0.09806   0.01267  Uiso   1.00
C87    C     0.39060   0.45380   0.07840   0.01267  Uiso   1.00
C88    C     0.36581   0.47720   0.04758   0.01267  Uiso   1.00
C89    C     0.39146   0.52160   0.03388   0.01267  Uiso   1.00
C90    C     0.37174   0.54230   0.00342   0.01267  Uiso   1.00
C91    C     0.32636   0.51860   0.98668   0.01267  Uiso   1.00
C92    C     0.30061   0.47420   0.00038   0.01267  Uiso   1.00
C93    C     0.32033   0.45350   0.03084   0.01267  Uiso   1.00
C94    C     0.30998   0.53660   0.95384   0.01267  Uiso   1.00
C95    C     0.32513   0.57760   0.93614   0.01267  Uiso   1.00
C96    C     0.31026   0.59702   0.90406   0.01267  Uiso   1.00
C97    C     0.27395   0.57190   0.88420   0.01267  Uiso   1.00
C98    C     0.26343   0.59218   0.85276   0.01267  Uiso   1.00
C99    C     0.28903   0.63758   0.84116   0.01267  Uiso   1.00
C100   C     0.32535   0.66270   0.86100   0.01267  Uiso   1.00
C101   C     0.33586   0.64242   0.89246   0.01267  Uiso   1.00
C102   C     0.28370   0.66200   0.80720   0.01267  Uiso   1.00
C103   C     0.57072   0.17780   0.29296   0.01267  Uiso   1.00
C104   C     0.56196   0.14986   0.32442   0.01267  Uiso   1.00
C105   C     0.63890   0.12580   0.33680   0.01267  Uiso   1.00
C106   C     0.63550   0.09862   0.36698   0.01267  Uiso   1.00
C107   C     0.55505   0.09550   0.38480   0.01267  Uiso   1.00
C108   C     0.47813   0.11954   0.37240   0.01267  Uiso   1.00
C109   C     0.48153   0.14672   0.34222   0.01267  Uiso   1.00
C110   C     0.55506   0.06560   0.41748   0.01267  Uiso   1.00
C111   C     0.48892   0.05960   0.43956   0.01267  Uiso   1.00
C112   C     0.49812   0.03040   0.47136   0.01267  Uiso   1.00
C113   C     0.57358   0.98660   0.47364   0.01267  Uiso   1.00
C114   C     0.42503   0.04260   0.49694   0.01267  Uiso   1.00
C115   C     0.45090   0.59480   0.02960   0.01267  Uiso   1.00
C116   C     0.27690   0.08980   0.52340   0.01267  Uiso   1.00
C117   C     0.24720   0.40200   0.00200   0.01267  Uiso   1.00
C118   C     0.84367   0.21080   0.21126   0.01267  Uiso   1.00
C119   C     0.89587   0.17278   0.18408   0.01267  Uiso   1.00
C120   C     0.97336   0.18128   0.16700   0.01267  Uiso   1.00
C121   C     0.02147   0.14964   0.13942   0.01267  Uiso   1.00
C122   C     0.99218   0.10950   0.12894   0.01267  Uiso   1.00
C123   C     0.91470   0.10100   0.14600   0.01267  Uiso   1.00
C124   C     0.86660   0.13262   0.17358   0.01267  Uiso   1.00
C125   C     0.03997   0.08120   0.09806   0.01267  Uiso   1.00
C126   C     0.03100   0.04620   0.07840   0.01267  Uiso   1.00
C127   C     0.08661   0.02280   0.04758   0.01267  Uiso   1.00
C128   C     0.07466   0.97840   0.03388   0.01267  Uiso   1.00
C129   C     0.12484   0.95770   0.00342   0.01267  Uiso   1.00
C130   C     0.18696   0.98140   0.98668   0.01267  Uiso   1.00
C131   C     0.19901   0.02580   0.00038   0.01267  Uiso   1.00
C132   C     0.14883   0.04650   0.03084   0.01267  Uiso   1.00
C133   C     0.23618   0.96340   0.95384   0.01267  Uiso   1.00
C134   C     0.23873   0.92240   0.93614   0.01267  Uiso   1.00
C135   C     0.28568   0.90298   0.90406   0.01267  Uiso   1.00
C136   C     0.34185   0.92810   0.88420   0.01267  Uiso   1.00
C137   C     0.38381   0.90782   0.85276   0.01267  Uiso   1.00
C138   C     0.36981   0.86242   0.84116   0.01267  Uiso   1.00
C139   C     0.31365   0.83730   0.86100   0.01267  Uiso   1.00
C140   C     0.27168   0.85758   0.89246   0.01267  Uiso   1.00
C141   C     0.40910   0.83800   0.80720   0.01267  Uiso   1.00
C142   C     0.63632   0.32220   0.29296   0.01267  Uiso   1.00
C143   C     0.61362   0.35014   0.32442   0.01267  Uiso   1.00
C144   C     0.52430   0.37420   0.33680   0.01267  Uiso   1.00
C145   C     0.49752   0.40138   0.36698   0.01267  Uiso   1.00
C146   C     0.56015   0.40450   0.38480   0.01267  Uiso   1.00
C147   C     0.64947   0.38046   0.37240   0.01267  Uiso   1.00
C148   C     0.67625   0.35328   0.34222   0.01267  Uiso   1.00
C149   C     0.52746   0.43440   0.41748   0.01267  Uiso   1.00
C150   C     0.57152   0.44040   0.43956   0.01267  Uiso   1.00
C151   C     0.53052   0.46960   0.47136   0.01267  Uiso   1.00
C152   C     0.45278   0.51340   0.47364   0.01267  Uiso   1.00
C153   C     0.57803   0.45740   0.49694   0.01267  Uiso   1.00
C154   C     0.01950   0.90520   0.02960   0.01267  Uiso   1.00
C155   C     0.69970   0.41020   0.52340   0.01267  Uiso   1.00
C156   C     0.25080   0.09800   0.00200   0.01267  Uiso   1.00
C157   C     0.73427   0.71080   0.71126   0.01267  Uiso   1.00
C158   C     0.74727   0.67278   0.68408   0.01267  Uiso   1.00
C159   C     0.67836   0.68128   0.66700   0.01267  Uiso   1.00
C160   C     0.68947   0.64964   0.63942   0.01267  Uiso   1.00
C161   C     0.76938   0.60950   0.62894   0.01267  Uiso   1.00
C162   C     0.83830   0.60100   0.64600   0.01267  Uiso   1.00
C163   C     0.82720   0.63262   0.67358   0.01267  Uiso   1.00
C164   C     0.78077   0.58120   0.59806   0.01267  Uiso   1.00
C165   C     0.84440   0.54620   0.57840   0.01267  Uiso   1.00
C166   C     0.84301   0.52280   0.54758   0.01267  Uiso   1.00
C167   C     0.91306   0.47840   0.53388   0.01267  Uiso   1.00
C168   C     0.91404   0.45770   0.50342   0.01267  Uiso   1.00
C169   C     0.84496   0.48140   0.48668   0.01267  Uiso   1.00
C170   C     0.77481   0.52580   0.50038   0.01267  Uiso   1.00
C171   C     0.77383   0.54650   0.53084   0.01267  Uiso   1.00
C172   C     0.84658   0.46340   0.45384   0.01267  Uiso   1.00
C173   C     0.90273   0.42240   0.43614   0.01267  Uiso   1.00
C174   C     0.90728   0.40298   0.40406   0.01267  Uiso   1.00
C175   C     0.84585   0.42810   0.38420   0.01267  Uiso   1.00
C176   C     0.85561   0.40782   0.35276   0.01267  Uiso   1.00
C177   C     0.92661   0.36242   0.34116   0.01267  Uiso   1.00
C178   C     0.98805   0.33730   0.36100   0.01267  Uiso   1.00
C179   C     0.97828   0.35758   0.39246   0.01267  Uiso   1.00
C180   C     0.94570   0.33800   0.30720   0.01267  Uiso   1.00
C181   C     0.74852   0.82220   0.79296   0.01267  Uiso   1.00
C182   C     0.71182   0.85014   0.82442   0.01267  Uiso   1.00
C183   C     0.76470   0.87420   0.83680   0.01267  Uiso   1.00
C184   C     0.73412   0.90138   0.86698   0.01267  Uiso   1.00
C185   C     0.65055   0.90450   0.88480   0.01267  Uiso   1.00
C186   C     0.59767   0.88046   0.87240   0.01267  Uiso   1.00
C187   C     0.62825   0.85328   0.84222   0.01267  Uiso   1.00
C188   C     0.62066   0.93440   0.91748   0.01267  Uiso   1.00
C189   C     0.54852   0.94040   0.93956   0.01267  Uiso   1.00
C190   C     0.52852   0.96960   0.97136   0.01267  Uiso   1.00
C191   C     0.56018   0.01340   0.97364   0.01267  Uiso   1.00
C192   C     0.46763   0.95740   0.99694   0.01267  Uiso   1.00
C193   C     0.04570   0.40520   0.52960   0.01267  Uiso   1.00
C194   C     0.36670   0.91020   0.02340   0.01267  Uiso   1.00
C195   C     0.64920   0.59800   0.50200   0.01267  Uiso   1.00
C196   C     0.05447   0.78920   0.71126   0.01267  Uiso   1.00
C197   C     0.06865   0.82722   0.68408   0.01267  Uiso   1.00
C198   C     0.15464   0.81872   0.66700   0.01267  Uiso   1.00
C199   C     0.17111   0.85036   0.63942   0.01267  Uiso   1.00
C200   C     0.10168   0.89050   0.62894   0.01267  Uiso   1.00
C201   C     0.01570   0.89900   0.64600   0.01267  Uiso   1.00
C202   C     0.99922   0.86738   0.67358   0.01267  Uiso   1.00
C203   C     0.12117   0.91880   0.59806   0.01267  Uiso   1.00
C204   C     0.07720   0.95380   0.57840   0.01267  Uiso   1.00
C205   C     0.10941   0.97720   0.54758   0.01267  Uiso   1.00
C206   C     0.05306   0.02160   0.53388   0.01267  Uiso   1.00
C207   C     0.08254   0.04230   0.50342   0.01267  Uiso   1.00
C208   C     0.16836   0.01860   0.48668   0.01267  Uiso   1.00
C209   C     0.22481   0.97420   0.50038   0.01267  Uiso   1.00
C210   C     0.19533   0.95350   0.53084   0.01267  Uiso   1.00
C211   C     0.19958   0.03660   0.45384   0.01267  Uiso   1.00
C212   C     0.16113   0.07760   0.43614   0.01267  Uiso   1.00
C213   C     0.18866   0.09702   0.40406   0.01267  Uiso   1.00
C214   C     0.26995   0.07190   0.38420   0.01267  Uiso   1.00
C215   C     0.29163   0.09218   0.35276   0.01267  Uiso   1.00
C216   C     0.23223   0.13758   0.34116   0.01267  Uiso   1.00
C217   C     0.15095   0.16270   0.36100   0.01267  Uiso   1.00
C218   C     0.12926   0.14242   0.39246   0.01267  Uiso   1.00
C219   C     0.24710   0.16200   0.30720   0.01267  Uiso   1.00
C220   C     0.95852   0.67780   0.79296   0.01267  Uiso   1.00
C221   C     0.96376   0.64986   0.82442   0.01267  Uiso   1.00
C222   C     0.89850   0.62580   0.83680   0.01267  Uiso   1.00
C223   C     0.89890   0.59862   0.86698   0.01267  Uiso   1.00
C224   C     0.96465   0.59550   0.88480   0.01267  Uiso   1.00
C225   C     0.02993   0.61954   0.87240   0.01267  Uiso   1.00
C226   C     0.02953   0.64672   0.84222   0.01267  Uiso   1.00
C227   C     0.96186   0.56560   0.91748   0.01267  Uiso   1.00
C228   C     0.01192   0.55960   0.93956   0.01267  Uiso   1.00
C229   C     0.00012   0.53040   0.97136   0.01267  Uiso   1.00
C230   C     0.96618   0.48660   0.97364   0.01267  Uiso   1.00
C231   C     0.03543   0.54260   0.99694   0.01267  Uiso   1.00
C232   C     0.92470   0.09480   0.52960   0.01267  Uiso   1.00
C233   C     0.10990   0.58980   0.02340   0.01267  Uiso   1.00
C234   C     0.34880   0.90200   0.50200   0.01267  Uiso   1.00
C235   C     0.55493   0.71080   0.78874   0.01267  Uiso   1.00
C236   C     0.57995   0.67278   0.81592   0.01267  Uiso   1.00
C237   C     0.64036   0.68128   0.83300   0.01267  Uiso   1.00
C238   C     0.66089   0.64964   0.86058   0.01267  Uiso   1.00
C239   C     0.62112   0.60950   0.87106   0.01267  Uiso   1.00
C240   C     0.56070   0.60100   0.85400   0.01267  Uiso   1.00
C241   C     0.54018   0.63262   0.82642   0.01267  Uiso   1.00
C242   C     0.63803   0.58120   0.90194   0.01267  Uiso   1.00
C243   C     0.60940   0.54620   0.92160   0.01267  Uiso   1.00
C244   C     0.63419   0.52280   0.95242   0.01267  Uiso   1.00
C245   C     0.60854   0.47840   0.96612   0.01267  Uiso   1.00
C246   C     0.62826   0.45770   0.99658   0.01267  Uiso   1.00
C247   C     0.67364   0.48140   0.01332   0.01267  Uiso   1.00
C248   C     0.69939   0.52580   0.99962   0.01267  Uiso   1.00
C249   C     0.67967   0.54650   0.96916   0.01267  Uiso   1.00
C250   C     0.69002   0.46340   0.04616   0.01267  Uiso   1.00
C251   C     0.67487   0.42240   0.06386   0.01267  Uiso   1.00
C252   C     0.68974   0.40298   0.09594   0.01267  Uiso   1.00
C253   C     0.72605   0.42810   0.11580   0.01267  Uiso   1.00
C254   C     0.73657   0.40782   0.14724   0.01267  Uiso   1.00
C255   C     0.71097   0.36242   0.15884   0.01267  Uiso   1.00
C256   C     0.67465   0.33730   0.13900   0.01267  Uiso   1.00
C257   C     0.66414   0.35758   0.10754   0.01267  Uiso   1.00
C258   C     0.71630   0.33800   0.19280   0.01267  Uiso   1.00
C259   C     0.42928   0.82220   0.70704   0.01267  Uiso   1.00
C260   C     0.43804   0.85014   0.67558   0.01267  Uiso   1.00
C261   C     0.36110   0.87420   0.66320   0.01267  Uiso   1.00
C262   C     0.36450   0.90138   0.63302   0.01267  Uiso   1.00
C263   C     0.44495   0.90450   0.61520   0.01267  Uiso   1.00
C264   C     0.52187   0.88046   0.62760   0.01267  Uiso   1.00
C265   C     0.51847   0.85328   0.65778   0.01267  Uiso   1.00
C266   C     0.44494   0.93440   0.58252   0.01267  Uiso   1.00
C267   C     0.51108   0.94040   0.56044   0.01267  Uiso   1.00
C268   C     0.50188   0.96960   0.52864   0.01267  Uiso   1.00
C269   C     0.42642   0.01340   0.52636   0.01267  Uiso   1.00
C270   C     0.57497   0.95740   0.50306   0.01267  Uiso   1.00
C271   C     0.54910   0.40520   0.97040   0.01267  Uiso   1.00
C272   C     0.72310   0.91020   0.47660   0.01267  Uiso   1.00
C273   C     0.75280   0.59800   0.99800   0.01267  Uiso   1.00
C274   C     0.15633   0.78920   0.78874   0.01267  Uiso   1.00
C275   C     0.10413   0.82722   0.81592   0.01267  Uiso   1.00
C276   C     0.02664   0.81872   0.83300   0.01267  Uiso   1.00
C277   C     0.97853   0.85036   0.86058   0.01267  Uiso   1.00
C278   C     0.00782   0.89050   0.87106   0.01267  Uiso   1.00
C279   C     0.08530   0.89900   0.85400   0.01267  Uiso   1.00
C280   C     0.13340   0.86738   0.82642   0.01267  Uiso   1.00
C281   C     0.96003   0.91880   0.90194   0.01267  Uiso   1.00
C282   C     0.96900   0.95380   0.92160   0.01267  Uiso   1.00
C283   C     0.91339   0.97720   0.95242   0.01267  Uiso   1.00
C284   C     0.92534   0.02160   0.96612   0.01267  Uiso   1.00
C285   C     0.87516   0.04230   0.99658   0.01267  Uiso   1.00
C286   C     0.81304   0.01860   0.01332   0.01267  Uiso   1.00
C287   C     0.80099   0.97420   0.99962   0.01267  Uiso   1.00
C288   C     0.85117   0.95350   0.96916   0.01267  Uiso   1.00
C289   C     0.76382   0.03660   0.04616   0.01267  Uiso   1.00
C290   C     0.76127   0.07760   0.06386   0.01267  Uiso   1.00
C291   C     0.71432   0.09702   0.09594   0.01267  Uiso   1.00
C292   C     0.65815   0.07190   0.11580   0.01267  Uiso   1.00
C293   C     0.61619   0.09218   0.14724   0.01267  Uiso   1.00
C294   C     0.63019   0.13758   0.15884   0.01267  Uiso   1.00
C295   C     0.68635   0.16270   0.13900   0.01267  Uiso   1.00
C296   C     0.72832   0.14242   0.10754   0.01267  Uiso   1.00
C297   C     0.59090   0.16200   0.19280   0.01267  Uiso   1.00
C298   C     0.36368   0.67780   0.70704   0.01267  Uiso   1.00
C299   C     0.38638   0.64986   0.67558   0.01267  Uiso   1.00
C300   C     0.47570   0.62580   0.66320   0.01267  Uiso   1.00
C301   C     0.50248   0.59862   0.63302   0.01267  Uiso   1.00
C302   C     0.43985   0.59550   0.61520   0.01267  Uiso   1.00
C303   C     0.35053   0.61954   0.62760   0.01267  Uiso   1.00
C304   C     0.32375   0.64672   0.65778   0.01267  Uiso   1.00
C305   C     0.47254   0.56560   0.58252   0.01267  Uiso   1.00
C306   C     0.42848   0.55960   0.56044   0.01267  Uiso   1.00
C307   C     0.46948   0.53040   0.52864   0.01267  Uiso   1.00
C308   C     0.54722   0.48660   0.52636   0.01267  Uiso   1.00
C309   C     0.42197   0.54260   0.50306   0.01267  Uiso   1.00
C310   C     0.98050   0.09480   0.97040   0.01267  Uiso   1.00
C311   C     0.30030   0.58980   0.47660   0.01267  Uiso   1.00
C312   C     0.74920   0.90200   0.99800   0.01267  Uiso   1.00
O1     O     0.33555   0.25086   0.28284   0.01267  Uiso   1.00
O2     O     0.20487   0.29654   0.27292   0.01267  Uiso   1.00
O3     O     0.11661   0.64710   0.70888   0.01267  Uiso   1.00
O4     O     0.98050   0.69498   0.70282   0.01267  Uiso   1.00
O5     O     0.01561   0.54640   0.44698   0.01267  Uiso   1.00
O6     O     0.27888   0.45280   0.52044   0.01267  Uiso   1.00
O7     O     0.17220   0.19086   0.21754   0.01267  Uiso   1.00
O8     O     0.29699   0.18874   0.22328   0.01267  Uiso   1.00
O9     O     0.56473   0.08900   0.00834   0.01267  Uiso   1.00
O10    O     0.88161   0.24914   0.28284   0.01267  Uiso   1.00
O11    O     0.02221   0.20346   0.27292   0.01267  Uiso   1.00
O12    O     0.67451   0.85290   0.70888   0.01267  Uiso   1.00
O13    O     0.81668   0.80502   0.70282   0.01267  Uiso   1.00
O14    O     0.03741   0.95360   0.44698   0.01267  Uiso   1.00
O15    O     0.70068   0.04720   0.52044   0.01267  Uiso   1.00
O16    O     0.11026   0.30914   0.21754   0.01267  Uiso   1.00
O17    O     0.97973   0.31126   0.22328   0.01267  Uiso   1.00
O18    O     0.92693   0.41100   0.00834   0.01267  Uiso   1.00
O19    O     0.41359   0.25086   0.21716   0.01267  Uiso   1.00
O20    O     0.49859   0.29654   0.22708   0.01267  Uiso   1.00
O21    O     0.23629   0.64710   0.79112   0.01267  Uiso   1.00
O22    O     0.32452   0.69498   0.79718   0.01267  Uiso   1.00
O23    O     0.43799   0.54640   0.05302   0.01267  Uiso   1.00
O24    O     0.26832   0.45280   0.97956   0.01267  Uiso   1.00
O25    O     0.63694   0.19086   0.28246   0.01267  Uiso   1.00
O26    O     0.51427   0.18874   0.27672   0.01267  Uiso   1.00
O27    O     0.34627   0.08900   0.49166   0.01267  Uiso   1.00
O28    O     0.86925   0.24914   0.21716   0.01267  Uiso   1.00
O29    O     0.77433   0.20346   0.22708   0.01267  Uiso   1.00
O30    O     0.47259   0.85290   0.79112   0.01267  Uiso   1.00
O31    O     0.37830   0.80502   0.79718   0.01267  Uiso   1.00
O32    O     0.00899   0.95360   0.05302   0.01267  Uiso   1.00
O33    O     0.25212   0.04720   0.97956   0.01267  Uiso   1.00
O34    O     0.58060   0.30914   0.28246   0.01267  Uiso   1.00
O35    O     0.70901   0.31126   0.27672   0.01267  Uiso   1.00
O36    O     0.66207   0.41100   0.49166   0.01267  Uiso   1.00
O37    O     0.66445   0.74914   0.71716   0.01267  Uiso   1.00
O38    O     0.79513   0.70346   0.72708   0.01267  Uiso   1.00
O39    O     0.88339   0.35290   0.29112   0.01267  Uiso   1.00
O40    O     0.01950   0.30502   0.29718   0.01267  Uiso   1.00
O41    O     0.98439   0.45360   0.55302   0.01267  Uiso   1.00
O42    O     0.72112   0.54720   0.47956   0.01267  Uiso   1.00
O43    O     0.82780   0.80914   0.78246   0.01267  Uiso   1.00
O44    O     0.70301   0.81126   0.77672   0.01267  Uiso   1.00
O45    O     0.43527   0.91100   0.99166   0.01267  Uiso   1.00
O46    O     0.11839   0.75086   0.71716   0.01267  Uiso   1.00
O47    O     0.97779   0.79654   0.72708   0.01267  Uiso   1.00
O48    O     0.32549   0.14710   0.29112   0.01267  Uiso   1.00
O49    O     0.18332   0.19498   0.29718   0.01267  Uiso   1.00
O50    O     0.96259   0.04640   0.55302   0.01267  Uiso   1.00
O51    O     0.29932   0.95280   0.47956   0.01267  Uiso   1.00
O52    O     0.88974   0.69086   0.78246   0.01267  Uiso   1.00
O53    O     0.02027   0.68874   0.77672   0.01267  Uiso   1.00
O54    O     0.07307   0.58900   0.99166   0.01267  Uiso   1.00
O55    O     0.58641   0.74914   0.78284   0.01267  Uiso   1.00
O56    O     0.50141   0.70346   0.77292   0.01267  Uiso   1.00
O57    O     0.76371   0.35290   0.20888   0.01267  Uiso   1.00
O58    O     0.67548   0.30502   0.20282   0.01267  Uiso   1.00
O59    O     0.56201   0.45360   0.94698   0.01267  Uiso   1.00
O60    O     0.73168   0.54720   0.02044   0.01267  Uiso   1.00
O61    O     0.36306   0.80914   0.71754   0.01267  Uiso   1.00
O62    O     0.48573   0.81126   0.72328   0.01267  Uiso   1.00
O63    O     0.65373   0.91100   0.50834   0.01267  Uiso   1.00
O64    O     0.13075   0.75086   0.78284   0.01267  Uiso   1.00
O65    O     0.22567   0.79654   0.77292   0.01267  Uiso   1.00
O66    O     0.52741   0.14710   0.20888   0.01267  Uiso   1.00
O67    O     0.62170   0.19498   0.20282   0.01267  Uiso   1.00
O68    O     0.99101   0.04640   0.94698   0.01267  Uiso   1.00
O69    O     0.74788   0.95280   0.02044   0.01267  Uiso   1.00
O70    O     0.41940   0.69086   0.71754   0.01267  Uiso   1.00
O71    O     0.29099   0.68874   0.72328   0.01267  Uiso   1.00
O72    O     0.33793   0.58900   0.50834   0.01267  Uiso   1.00
