data_GULWEQ_clean
_audit_creation_date              2014-07-02
_audit_creation_method            'Materials Studio'
_symmetry_space_group_name_H-M    'P1'
_symmetry_Int_Tables_number       1
_symmetry_cell_setting            triclinic
loop_
_symmetry_equiv_pos_as_xyz
  x,y,z
_cell_length_a                    41.5947
_cell_length_b                    41.5947
_cell_length_c                    41.5947
_cell_angle_alpha                 90.0000
_cell_angle_beta                  90.0000
_cell_angle_gamma                 90.0000
loop_
_atom_site_label
_atom_site_type_symbol
_atom_site_fract_x
_atom_site_fract_y
_atom_site_fract_z
_atom_site_U_iso_or_equiv
_atom_site_adp_type
_atom_site_occupancy
Cd1    Cd    0.44864   0.32570   0.17909   0.01267  Uiso   1.00
Cd2    Cd    0.40612   0.24310   0.21271   0.01267  Uiso   1.00
Cd3    Cd    0.51984   0.17030   0.99353   0.01267  Uiso   1.00
Cd4    Cd    0.55674   0.28399   0.41298   0.01267  Uiso   1.00
Cd5    Cd    0.05136   0.67430   0.67909   0.01267  Uiso   1.00
Cd6    Cd    0.09388   0.75690   0.71271   0.01267  Uiso   1.00
Cd7    Cd    0.98016   0.82970   0.49353   0.01267  Uiso   1.00
Cd8    Cd    0.94326   0.71601   0.91298   0.01267  Uiso   1.00
Cd9    Cd    0.55136   0.82570   0.32091   0.01267  Uiso   1.00
Cd10   Cd    0.59388   0.74310   0.28729   0.01267  Uiso   1.00
Cd11   Cd    0.48016   0.67030   0.50647   0.01267  Uiso   1.00
Cd12   Cd    0.44326   0.78399   0.08702   0.01267  Uiso   1.00
Cd13   Cd    0.94864   0.17430   0.82091   0.01267  Uiso   1.00
Cd14   Cd    0.90612   0.25690   0.78729   0.01267  Uiso   1.00
Cd15   Cd    0.01984   0.32970   0.00647   0.01267  Uiso   1.00
Cd16   Cd    0.05674   0.21601   0.58702   0.01267  Uiso   1.00
Cd17   Cd    0.17909   0.44864   0.32570   0.01267  Uiso   1.00
Cd18   Cd    0.21271   0.40612   0.24310   0.01267  Uiso   1.00
Cd19   Cd    0.99353   0.51984   0.17030   0.01267  Uiso   1.00
Cd20   Cd    0.41298   0.55674   0.28399   0.01267  Uiso   1.00
Cd21   Cd    0.67909   0.05136   0.67430   0.01267  Uiso   1.00
Cd22   Cd    0.71271   0.09388   0.75690   0.01267  Uiso   1.00
Cd23   Cd    0.49353   0.98016   0.82970   0.01267  Uiso   1.00
Cd24   Cd    0.91298   0.94326   0.71601   0.01267  Uiso   1.00
Cd25   Cd    0.32091   0.55136   0.82570   0.01267  Uiso   1.00
Cd26   Cd    0.28729   0.59388   0.74310   0.01267  Uiso   1.00
Cd27   Cd    0.50647   0.48016   0.67030   0.01267  Uiso   1.00
Cd28   Cd    0.08702   0.44326   0.78399   0.01267  Uiso   1.00
Cd29   Cd    0.82091   0.94864   0.17430   0.01267  Uiso   1.00
Cd30   Cd    0.78729   0.90612   0.25690   0.01267  Uiso   1.00
Cd31   Cd    0.00647   0.01984   0.32970   0.01267  Uiso   1.00
Cd32   Cd    0.58702   0.05674   0.21601   0.01267  Uiso   1.00
Cd33   Cd    0.32570   0.17909   0.44864   0.01267  Uiso   1.00
Cd34   Cd    0.24310   0.21271   0.40612   0.01267  Uiso   1.00
Cd35   Cd    0.17030   0.99353   0.51984   0.01267  Uiso   1.00
Cd36   Cd    0.28399   0.41298   0.55674   0.01267  Uiso   1.00
Cd37   Cd    0.67430   0.67909   0.05136   0.01267  Uiso   1.00
Cd38   Cd    0.75690   0.71271   0.09388   0.01267  Uiso   1.00
Cd39   Cd    0.82970   0.49353   0.98016   0.01267  Uiso   1.00
Cd40   Cd    0.71601   0.91298   0.94326   0.01267  Uiso   1.00
Cd41   Cd    0.82570   0.32091   0.55136   0.01267  Uiso   1.00
Cd42   Cd    0.74310   0.28729   0.59388   0.01267  Uiso   1.00
Cd43   Cd    0.67030   0.50647   0.48016   0.01267  Uiso   1.00
Cd44   Cd    0.78399   0.08702   0.44326   0.01267  Uiso   1.00
Cd45   Cd    0.17430   0.82091   0.94864   0.01267  Uiso   1.00
Cd46   Cd    0.25690   0.78729   0.90612   0.01267  Uiso   1.00
Cd47   Cd    0.32970   0.00647   0.01984   0.01267  Uiso   1.00
Cd48   Cd    0.21601   0.58702   0.05674   0.01267  Uiso   1.00
Cd49   Cd    0.55136   0.67430   0.82091   0.01267  Uiso   1.00
Cd50   Cd    0.59388   0.75690   0.78729   0.01267  Uiso   1.00
Cd51   Cd    0.48016   0.82970   0.00647   0.01267  Uiso   1.00
Cd52   Cd    0.44326   0.71601   0.58702   0.01267  Uiso   1.00
Cd53   Cd    0.94864   0.32570   0.32091   0.01267  Uiso   1.00
Cd54   Cd    0.90612   0.24310   0.28729   0.01267  Uiso   1.00
Cd55   Cd    0.01984   0.17030   0.50647   0.01267  Uiso   1.00
Cd56   Cd    0.05674   0.28399   0.08702   0.01267  Uiso   1.00
Cd57   Cd    0.44864   0.17430   0.67909   0.01267  Uiso   1.00
Cd58   Cd    0.40612   0.25690   0.71271   0.01267  Uiso   1.00
Cd59   Cd    0.51984   0.32970   0.49353   0.01267  Uiso   1.00
Cd60   Cd    0.55674   0.21601   0.91298   0.01267  Uiso   1.00
Cd61   Cd    0.05136   0.82570   0.17909   0.01267  Uiso   1.00
Cd62   Cd    0.09388   0.74310   0.21271   0.01267  Uiso   1.00
Cd63   Cd    0.98016   0.67030   0.99353   0.01267  Uiso   1.00
Cd64   Cd    0.94326   0.78399   0.41298   0.01267  Uiso   1.00
Cd65   Cd    0.82091   0.55136   0.67430   0.01267  Uiso   1.00
Cd66   Cd    0.78729   0.59388   0.75690   0.01267  Uiso   1.00
Cd67   Cd    0.00647   0.48016   0.82970   0.01267  Uiso   1.00
Cd68   Cd    0.58702   0.44326   0.71601   0.01267  Uiso   1.00
Cd69   Cd    0.32091   0.94864   0.32570   0.01267  Uiso   1.00
Cd70   Cd    0.28729   0.90612   0.24310   0.01267  Uiso   1.00
Cd71   Cd    0.50647   0.01984   0.17030   0.01267  Uiso   1.00
Cd72   Cd    0.08702   0.05674   0.28399   0.01267  Uiso   1.00
Cd73   Cd    0.67909   0.44864   0.17430   0.01267  Uiso   1.00
Cd74   Cd    0.71271   0.40612   0.25690   0.01267  Uiso   1.00
Cd75   Cd    0.49353   0.51984   0.32970   0.01267  Uiso   1.00
Cd76   Cd    0.91298   0.55674   0.21601   0.01267  Uiso   1.00
Cd77   Cd    0.17909   0.05136   0.82570   0.01267  Uiso   1.00
Cd78   Cd    0.21271   0.09388   0.74310   0.01267  Uiso   1.00
Cd79   Cd    0.99353   0.98016   0.67030   0.01267  Uiso   1.00
Cd80   Cd    0.41298   0.94326   0.78399   0.01267  Uiso   1.00
Cd81   Cd    0.67430   0.82091   0.55136   0.01267  Uiso   1.00
Cd82   Cd    0.75690   0.78729   0.59388   0.01267  Uiso   1.00
Cd83   Cd    0.82970   0.00647   0.48016   0.01267  Uiso   1.00
Cd84   Cd    0.71601   0.58702   0.44326   0.01267  Uiso   1.00
Cd85   Cd    0.32570   0.32091   0.94864   0.01267  Uiso   1.00
Cd86   Cd    0.24310   0.28729   0.90612   0.01267  Uiso   1.00
Cd87   Cd    0.17030   0.50647   0.01984   0.01267  Uiso   1.00
Cd88   Cd    0.28399   0.08702   0.05674   0.01267  Uiso   1.00
Cd89   Cd    0.17430   0.67909   0.44864   0.01267  Uiso   1.00
Cd90   Cd    0.25690   0.71271   0.40612   0.01267  Uiso   1.00
Cd91   Cd    0.32970   0.49353   0.51984   0.01267  Uiso   1.00
Cd92   Cd    0.21601   0.91298   0.55674   0.01267  Uiso   1.00
Cd93   Cd    0.82570   0.17909   0.05136   0.01267  Uiso   1.00
Cd94   Cd    0.74310   0.21271   0.09388   0.01267  Uiso   1.00
Cd95   Cd    0.67030   0.99353   0.98016   0.01267  Uiso   1.00
Cd96   Cd    0.78399   0.41298   0.94326   0.01267  Uiso   1.00
H1     H     0.47640   0.24540   0.32320   0.01267  Uiso   1.00
H2     H     0.52640   0.32470   0.29650   0.01267  Uiso   1.00
H3     H     0.50600   0.24390   0.37000   0.01267  Uiso   1.00
H4     H     0.55210   0.32170   0.34640   0.01267  Uiso   1.00
H5     H     0.33200   0.39080   0.20180   0.01267  Uiso   1.00
H6     H     0.29310   0.30890   0.23450   0.01267  Uiso   1.00
H7     H     0.28460   0.41640   0.21570   0.01267  Uiso   1.00
H8     H     0.24860   0.33780   0.25130   0.01267  Uiso   1.00
H9     H     0.47770   0.17860   0.11200   0.01267  Uiso   1.00
H10    H     0.49240   0.26510   0.07070   0.01267  Uiso   1.00
H11    H     0.52010   0.23800   0.03050   0.01267  Uiso   1.00
H12    H     0.49660   0.15530   0.06460   0.01267  Uiso   1.00
H13    H     0.41390   0.44350   0.20420   0.01267  Uiso   1.00
H14    H     0.49180   0.41440   0.25510   0.01267  Uiso   1.00
H15    H     0.48850   0.36520   0.22700   0.01267  Uiso   1.00
H16    H     0.41070   0.39300   0.18150   0.01267  Uiso   1.00
H17    H     0.43710   0.12380   0.19560   0.01267  Uiso   1.00
H18    H     0.50950   0.17270   0.23010   0.01267  Uiso   1.00
H19    H     0.40500   0.16790   0.20330   0.01267  Uiso   1.00
H20    H     0.47270   0.21590   0.23770   0.01267  Uiso   1.00
H21    H     0.49930   0.05990   0.92560   0.01267  Uiso   1.00
H22    H     0.52530   0.10190   0.84340   0.01267  Uiso   1.00
H23    H     0.48600   0.01480   0.89780   0.01267  Uiso   1.00
H24    H     0.51210   0.05610   0.81710   0.01267  Uiso   1.00
H25    H     0.02360   0.75460   0.82320   0.01267  Uiso   1.00
H26    H     0.97360   0.67530   0.79650   0.01267  Uiso   1.00
H27    H     0.99400   0.75610   0.87000   0.01267  Uiso   1.00
H28    H     0.94790   0.67830   0.84640   0.01267  Uiso   1.00
H29    H     0.16800   0.60920   0.70180   0.01267  Uiso   1.00
H30    H     0.20690   0.69110   0.73450   0.01267  Uiso   1.00
H31    H     0.21540   0.58360   0.71570   0.01267  Uiso   1.00
H32    H     0.25140   0.66220   0.75130   0.01267  Uiso   1.00
H33    H     0.02230   0.82140   0.61200   0.01267  Uiso   1.00
H34    H     0.00760   0.73490   0.57070   0.01267  Uiso   1.00
H35    H     0.97990   0.76200   0.53050   0.01267  Uiso   1.00
H36    H     0.00340   0.84470   0.56460   0.01267  Uiso   1.00
H37    H     0.08610   0.55650   0.70420   0.01267  Uiso   1.00
H38    H     0.00820   0.58560   0.75510   0.01267  Uiso   1.00
H39    H     0.01150   0.63480   0.72700   0.01267  Uiso   1.00
H40    H     0.08930   0.60700   0.68150   0.01267  Uiso   1.00
H41    H     0.06290   0.87620   0.69560   0.01267  Uiso   1.00
H42    H     0.99050   0.82730   0.73010   0.01267  Uiso   1.00
H43    H     0.09500   0.83210   0.70330   0.01267  Uiso   1.00
H44    H     0.02730   0.78410   0.73770   0.01267  Uiso   1.00
H45    H     0.00070   0.94010   0.42560   0.01267  Uiso   1.00
H46    H     0.97470   0.89810   0.34340   0.01267  Uiso   1.00
H47    H     0.01400   0.98520   0.39780   0.01267  Uiso   1.00
H48    H     0.98790   0.94390   0.31710   0.01267  Uiso   1.00
H49    H     0.52360   0.74540   0.17680   0.01267  Uiso   1.00
H50    H     0.47360   0.82470   0.20350   0.01267  Uiso   1.00
H51    H     0.49400   0.74390   0.13000   0.01267  Uiso   1.00
H52    H     0.44790   0.82170   0.15360   0.01267  Uiso   1.00
H53    H     0.66800   0.89080   0.29820   0.01267  Uiso   1.00
H54    H     0.70690   0.80890   0.26550   0.01267  Uiso   1.00
H55    H     0.71540   0.91640   0.28430   0.01267  Uiso   1.00
H56    H     0.75140   0.83780   0.24870   0.01267  Uiso   1.00
H57    H     0.52230   0.67860   0.38800   0.01267  Uiso   1.00
H58    H     0.50760   0.76510   0.42930   0.01267  Uiso   1.00
H59    H     0.47990   0.73800   0.46950   0.01267  Uiso   1.00
H60    H     0.50340   0.65530   0.43540   0.01267  Uiso   1.00
H61    H     0.58610   0.94350   0.29580   0.01267  Uiso   1.00
H62    H     0.50820   0.91440   0.24490   0.01267  Uiso   1.00
H63    H     0.51150   0.86520   0.27300   0.01267  Uiso   1.00
H64    H     0.58930   0.89300   0.31850   0.01267  Uiso   1.00
H65    H     0.56290   0.62380   0.30440   0.01267  Uiso   1.00
H66    H     0.49050   0.67270   0.26990   0.01267  Uiso   1.00
H67    H     0.59500   0.66790   0.29670   0.01267  Uiso   1.00
H68    H     0.52730   0.71590   0.26230   0.01267  Uiso   1.00
H69    H     0.50070   0.55990   0.57440   0.01267  Uiso   1.00
H70    H     0.47470   0.60190   0.65660   0.01267  Uiso   1.00
H71    H     0.51400   0.51480   0.60220   0.01267  Uiso   1.00
H72    H     0.48790   0.55610   0.68290   0.01267  Uiso   1.00
H73    H     0.97640   0.25460   0.67680   0.01267  Uiso   1.00
H74    H     0.02640   0.17530   0.70350   0.01267  Uiso   1.00
H75    H     0.00600   0.25610   0.63000   0.01267  Uiso   1.00
H76    H     0.05210   0.17830   0.65360   0.01267  Uiso   1.00
H77    H     0.83200   0.10920   0.79820   0.01267  Uiso   1.00
H78    H     0.79310   0.19110   0.76550   0.01267  Uiso   1.00
H79    H     0.78460   0.08360   0.78430   0.01267  Uiso   1.00
H80    H     0.74860   0.16220   0.74870   0.01267  Uiso   1.00
H81    H     0.97770   0.32140   0.88800   0.01267  Uiso   1.00
H82    H     0.99240   0.23490   0.92930   0.01267  Uiso   1.00
H83    H     0.02010   0.26200   0.96950   0.01267  Uiso   1.00
H84    H     0.99660   0.34470   0.93540   0.01267  Uiso   1.00
H85    H     0.91390   0.05650   0.79580   0.01267  Uiso   1.00
H86    H     0.99180   0.08560   0.74490   0.01267  Uiso   1.00
H87    H     0.98850   0.13480   0.77300   0.01267  Uiso   1.00
H88    H     0.91070   0.10700   0.81850   0.01267  Uiso   1.00
H89    H     0.93710   0.37620   0.80440   0.01267  Uiso   1.00
H90    H     0.00950   0.32730   0.76990   0.01267  Uiso   1.00
H91    H     0.90500   0.33210   0.79670   0.01267  Uiso   1.00
H92    H     0.97270   0.28410   0.76230   0.01267  Uiso   1.00
H93    H     0.99930   0.44010   0.07440   0.01267  Uiso   1.00
H94    H     0.02530   0.39810   0.15660   0.01267  Uiso   1.00
H95    H     0.98600   0.48520   0.10220   0.01267  Uiso   1.00
H96    H     0.01210   0.44390   0.18290   0.01267  Uiso   1.00
H97    H     0.32320   0.47640   0.24540   0.01267  Uiso   1.00
H98    H     0.29650   0.52640   0.32470   0.01267  Uiso   1.00
H99    H     0.37000   0.50600   0.24390   0.01267  Uiso   1.00
H100   H     0.34640   0.55210   0.32170   0.01267  Uiso   1.00
H101   H     0.20180   0.33200   0.39080   0.01267  Uiso   1.00
H102   H     0.23450   0.29310   0.30890   0.01267  Uiso   1.00
H103   H     0.21570   0.28460   0.41640   0.01267  Uiso   1.00
H104   H     0.25130   0.24860   0.33780   0.01267  Uiso   1.00
H105   H     0.11200   0.47770   0.17860   0.01267  Uiso   1.00
H106   H     0.07070   0.49240   0.26510   0.01267  Uiso   1.00
H107   H     0.03050   0.52010   0.23800   0.01267  Uiso   1.00
H108   H     0.06460   0.49660   0.15530   0.01267  Uiso   1.00
H109   H     0.20420   0.41390   0.44350   0.01267  Uiso   1.00
H110   H     0.25510   0.49180   0.41440   0.01267  Uiso   1.00
H111   H     0.22700   0.48850   0.36520   0.01267  Uiso   1.00
H112   H     0.18150   0.41070   0.39300   0.01267  Uiso   1.00
H113   H     0.19560   0.43710   0.12380   0.01267  Uiso   1.00
H114   H     0.23010   0.50950   0.17270   0.01267  Uiso   1.00
H115   H     0.20330   0.40500   0.16790   0.01267  Uiso   1.00
H116   H     0.23770   0.47270   0.21590   0.01267  Uiso   1.00
H117   H     0.92560   0.49930   0.05990   0.01267  Uiso   1.00
H118   H     0.84340   0.52530   0.10190   0.01267  Uiso   1.00
H119   H     0.89780   0.48600   0.01480   0.01267  Uiso   1.00
H120   H     0.81710   0.51210   0.05610   0.01267  Uiso   1.00
H121   H     0.82320   0.02360   0.75460   0.01267  Uiso   1.00
H122   H     0.79650   0.97360   0.67530   0.01267  Uiso   1.00
H123   H     0.87000   0.99400   0.75610   0.01267  Uiso   1.00
H124   H     0.84640   0.94790   0.67830   0.01267  Uiso   1.00
H125   H     0.70180   0.16800   0.60920   0.01267  Uiso   1.00
H126   H     0.73450   0.20690   0.69110   0.01267  Uiso   1.00
H127   H     0.71570   0.21540   0.58360   0.01267  Uiso   1.00
H128   H     0.75130   0.25140   0.66220   0.01267  Uiso   1.00
H129   H     0.61200   0.02230   0.82140   0.01267  Uiso   1.00
H130   H     0.57070   0.00760   0.73490   0.01267  Uiso   1.00
H131   H     0.53050   0.97990   0.76200   0.01267  Uiso   1.00
H132   H     0.56460   0.00340   0.84470   0.01267  Uiso   1.00
H133   H     0.70420   0.08610   0.55650   0.01267  Uiso   1.00
H134   H     0.75510   0.00820   0.58560   0.01267  Uiso   1.00
H135   H     0.72700   0.01150   0.63480   0.01267  Uiso   1.00
H136   H     0.68150   0.08930   0.60700   0.01267  Uiso   1.00
H137   H     0.69560   0.06290   0.87620   0.01267  Uiso   1.00
H138   H     0.73010   0.99050   0.82730   0.01267  Uiso   1.00
H139   H     0.70330   0.09500   0.83210   0.01267  Uiso   1.00
H140   H     0.73770   0.02730   0.78410   0.01267  Uiso   1.00
H141   H     0.42560   0.00070   0.94010   0.01267  Uiso   1.00
H142   H     0.34340   0.97470   0.89810   0.01267  Uiso   1.00
H143   H     0.39780   0.01400   0.98520   0.01267  Uiso   1.00
H144   H     0.31710   0.98790   0.94390   0.01267  Uiso   1.00
H145   H     0.17680   0.52360   0.74540   0.01267  Uiso   1.00
H146   H     0.20350   0.47360   0.82470   0.01267  Uiso   1.00
H147   H     0.13000   0.49400   0.74390   0.01267  Uiso   1.00
H148   H     0.15360   0.44790   0.82170   0.01267  Uiso   1.00
H149   H     0.29820   0.66800   0.89080   0.01267  Uiso   1.00
H150   H     0.26550   0.70690   0.80890   0.01267  Uiso   1.00
H151   H     0.28430   0.71540   0.91640   0.01267  Uiso   1.00
H152   H     0.24870   0.75140   0.83780   0.01267  Uiso   1.00
H153   H     0.38800   0.52230   0.67860   0.01267  Uiso   1.00
H154   H     0.42930   0.50760   0.76510   0.01267  Uiso   1.00
H155   H     0.46950   0.47990   0.73800   0.01267  Uiso   1.00
H156   H     0.43540   0.50340   0.65530   0.01267  Uiso   1.00
H157   H     0.29580   0.58610   0.94350   0.01267  Uiso   1.00
H158   H     0.24490   0.50820   0.91440   0.01267  Uiso   1.00
H159   H     0.27300   0.51150   0.86520   0.01267  Uiso   1.00
H160   H     0.31850   0.58930   0.89300   0.01267  Uiso   1.00
H161   H     0.30440   0.56290   0.62380   0.01267  Uiso   1.00
H162   H     0.26990   0.49050   0.67270   0.01267  Uiso   1.00
H163   H     0.29670   0.59500   0.66790   0.01267  Uiso   1.00
H164   H     0.26230   0.52730   0.71590   0.01267  Uiso   1.00
H165   H     0.57440   0.50070   0.55990   0.01267  Uiso   1.00
H166   H     0.65660   0.47470   0.60190   0.01267  Uiso   1.00
H167   H     0.60220   0.51400   0.51480   0.01267  Uiso   1.00
H168   H     0.68290   0.48790   0.55610   0.01267  Uiso   1.00
H169   H     0.67680   0.97640   0.25460   0.01267  Uiso   1.00
H170   H     0.70350   0.02640   0.17530   0.01267  Uiso   1.00
H171   H     0.63000   0.00600   0.25610   0.01267  Uiso   1.00
H172   H     0.65360   0.05210   0.17830   0.01267  Uiso   1.00
H173   H     0.79820   0.83200   0.10920   0.01267  Uiso   1.00
H174   H     0.76550   0.79310   0.19110   0.01267  Uiso   1.00
H175   H     0.78430   0.78460   0.08360   0.01267  Uiso   1.00
H176   H     0.74870   0.74860   0.16220   0.01267  Uiso   1.00
H177   H     0.88800   0.97770   0.32140   0.01267  Uiso   1.00
H178   H     0.92930   0.99240   0.23490   0.01267  Uiso   1.00
H179   H     0.96950   0.02010   0.26200   0.01267  Uiso   1.00
H180   H     0.93540   0.99660   0.34470   0.01267  Uiso   1.00
H181   H     0.79580   0.91390   0.05650   0.01267  Uiso   1.00
H182   H     0.74490   0.99180   0.08560   0.01267  Uiso   1.00
H183   H     0.77300   0.98850   0.13480   0.01267  Uiso   1.00
H184   H     0.81850   0.91070   0.10700   0.01267  Uiso   1.00
H185   H     0.80440   0.93710   0.37620   0.01267  Uiso   1.00
H186   H     0.76990   0.00950   0.32730   0.01267  Uiso   1.00
H187   H     0.79670   0.90500   0.33210   0.01267  Uiso   1.00
H188   H     0.76230   0.97270   0.28410   0.01267  Uiso   1.00
H189   H     0.07440   0.99930   0.44010   0.01267  Uiso   1.00
H190   H     0.15660   0.02530   0.39810   0.01267  Uiso   1.00
H191   H     0.10220   0.98600   0.48520   0.01267  Uiso   1.00
H192   H     0.18290   0.01210   0.44390   0.01267  Uiso   1.00
H193   H     0.24540   0.32320   0.47640   0.01267  Uiso   1.00
H194   H     0.32470   0.29650   0.52640   0.01267  Uiso   1.00
H195   H     0.24390   0.37000   0.50600   0.01267  Uiso   1.00
H196   H     0.32170   0.34640   0.55210   0.01267  Uiso   1.00
H197   H     0.39080   0.20180   0.33200   0.01267  Uiso   1.00
H198   H     0.30890   0.23450   0.29310   0.01267  Uiso   1.00
H199   H     0.41640   0.21570   0.28460   0.01267  Uiso   1.00
H200   H     0.33780   0.25130   0.24860   0.01267  Uiso   1.00
H201   H     0.17860   0.11200   0.47770   0.01267  Uiso   1.00
H202   H     0.26510   0.07070   0.49240   0.01267  Uiso   1.00
H203   H     0.23800   0.03050   0.52010   0.01267  Uiso   1.00
H204   H     0.15530   0.06460   0.49660   0.01267  Uiso   1.00
H205   H     0.44350   0.20420   0.41390   0.01267  Uiso   1.00
H206   H     0.41440   0.25510   0.49180   0.01267  Uiso   1.00
H207   H     0.36520   0.22700   0.48850   0.01267  Uiso   1.00
H208   H     0.39300   0.18150   0.41070   0.01267  Uiso   1.00
H209   H     0.12380   0.19560   0.43710   0.01267  Uiso   1.00
H210   H     0.17270   0.23010   0.50950   0.01267  Uiso   1.00
H211   H     0.16790   0.20330   0.40500   0.01267  Uiso   1.00
H212   H     0.21590   0.23770   0.47270   0.01267  Uiso   1.00
H213   H     0.05990   0.92560   0.49930   0.01267  Uiso   1.00
H214   H     0.10190   0.84340   0.52530   0.01267  Uiso   1.00
H215   H     0.01480   0.89780   0.48600   0.01267  Uiso   1.00
H216   H     0.05610   0.81710   0.51210   0.01267  Uiso   1.00
H217   H     0.75460   0.82320   0.02360   0.01267  Uiso   1.00
H218   H     0.67530   0.79650   0.97360   0.01267  Uiso   1.00
H219   H     0.75610   0.87000   0.99400   0.01267  Uiso   1.00
H220   H     0.67830   0.84640   0.94790   0.01267  Uiso   1.00
H221   H     0.60920   0.70180   0.16800   0.01267  Uiso   1.00
H222   H     0.69110   0.73450   0.20690   0.01267  Uiso   1.00
H223   H     0.58360   0.71570   0.21540   0.01267  Uiso   1.00
H224   H     0.66220   0.75130   0.25140   0.01267  Uiso   1.00
H225   H     0.82140   0.61200   0.02230   0.01267  Uiso   1.00
H226   H     0.73490   0.57070   0.00760   0.01267  Uiso   1.00
H227   H     0.76200   0.53050   0.97990   0.01267  Uiso   1.00
H228   H     0.84470   0.56460   0.00340   0.01267  Uiso   1.00
H229   H     0.55650   0.70420   0.08610   0.01267  Uiso   1.00
H230   H     0.58560   0.75510   0.00820   0.01267  Uiso   1.00
H231   H     0.63480   0.72700   0.01150   0.01267  Uiso   1.00
H232   H     0.60700   0.68150   0.08930   0.01267  Uiso   1.00
H233   H     0.87620   0.69560   0.06290   0.01267  Uiso   1.00
H234   H     0.82730   0.73010   0.99050   0.01267  Uiso   1.00
H235   H     0.83210   0.70330   0.09500   0.01267  Uiso   1.00
H236   H     0.78410   0.73770   0.02730   0.01267  Uiso   1.00
H237   H     0.94010   0.42560   0.00070   0.01267  Uiso   1.00
H238   H     0.89810   0.34340   0.97470   0.01267  Uiso   1.00
H239   H     0.98520   0.39780   0.01400   0.01267  Uiso   1.00
H240   H     0.94390   0.31710   0.98790   0.01267  Uiso   1.00
H241   H     0.74540   0.17680   0.52360   0.01267  Uiso   1.00
H242   H     0.82470   0.20350   0.47360   0.01267  Uiso   1.00
H243   H     0.74390   0.13000   0.49400   0.01267  Uiso   1.00
H244   H     0.82170   0.15360   0.44790   0.01267  Uiso   1.00
H245   H     0.89080   0.29820   0.66800   0.01267  Uiso   1.00
H246   H     0.80890   0.26550   0.70690   0.01267  Uiso   1.00
H247   H     0.91640   0.28430   0.71540   0.01267  Uiso   1.00
H248   H     0.83780   0.24870   0.75140   0.01267  Uiso   1.00
H249   H     0.67860   0.38800   0.52230   0.01267  Uiso   1.00
H250   H     0.76510   0.42930   0.50760   0.01267  Uiso   1.00
H251   H     0.73800   0.46950   0.47990   0.01267  Uiso   1.00
H252   H     0.65530   0.43540   0.50340   0.01267  Uiso   1.00
H253   H     0.94350   0.29580   0.58610   0.01267  Uiso   1.00
H254   H     0.91440   0.24490   0.50820   0.01267  Uiso   1.00
H255   H     0.86520   0.27300   0.51150   0.01267  Uiso   1.00
H256   H     0.89300   0.31850   0.58930   0.01267  Uiso   1.00
H257   H     0.62380   0.30440   0.56290   0.01267  Uiso   1.00
H258   H     0.67270   0.26990   0.49050   0.01267  Uiso   1.00
H259   H     0.66790   0.29670   0.59500   0.01267  Uiso   1.00
H260   H     0.71590   0.26230   0.52730   0.01267  Uiso   1.00
H261   H     0.55990   0.57440   0.50070   0.01267  Uiso   1.00
H262   H     0.60190   0.65660   0.47470   0.01267  Uiso   1.00
H263   H     0.51480   0.60220   0.51400   0.01267  Uiso   1.00
H264   H     0.55610   0.68290   0.48790   0.01267  Uiso   1.00
H265   H     0.25460   0.67680   0.97640   0.01267  Uiso   1.00
H266   H     0.17530   0.70350   0.02640   0.01267  Uiso   1.00
H267   H     0.25610   0.63000   0.00600   0.01267  Uiso   1.00
H268   H     0.17830   0.65360   0.05210   0.01267  Uiso   1.00
H269   H     0.10920   0.79820   0.83200   0.01267  Uiso   1.00
H270   H     0.19110   0.76550   0.79310   0.01267  Uiso   1.00
H271   H     0.08360   0.78430   0.78460   0.01267  Uiso   1.00
H272   H     0.16220   0.74870   0.74860   0.01267  Uiso   1.00
H273   H     0.32140   0.88800   0.97770   0.01267  Uiso   1.00
H274   H     0.23490   0.92930   0.99240   0.01267  Uiso   1.00
H275   H     0.26200   0.96950   0.02010   0.01267  Uiso   1.00
H276   H     0.34470   0.93540   0.99660   0.01267  Uiso   1.00
H277   H     0.05650   0.79580   0.91390   0.01267  Uiso   1.00
H278   H     0.08560   0.74490   0.99180   0.01267  Uiso   1.00
H279   H     0.13480   0.77300   0.98850   0.01267  Uiso   1.00
H280   H     0.10700   0.81850   0.91070   0.01267  Uiso   1.00
H281   H     0.37620   0.80440   0.93710   0.01267  Uiso   1.00
H282   H     0.32730   0.76990   0.00950   0.01267  Uiso   1.00
H283   H     0.33210   0.79670   0.90500   0.01267  Uiso   1.00
H284   H     0.28410   0.76230   0.97270   0.01267  Uiso   1.00
H285   H     0.44010   0.07440   0.99930   0.01267  Uiso   1.00
H286   H     0.39810   0.15660   0.02530   0.01267  Uiso   1.00
H287   H     0.48520   0.10220   0.98600   0.01267  Uiso   1.00
H288   H     0.44390   0.18290   0.01210   0.01267  Uiso   1.00
H289   H     0.52360   0.75460   0.67680   0.01267  Uiso   1.00
H290   H     0.47360   0.67530   0.70350   0.01267  Uiso   1.00
H291   H     0.49400   0.75610   0.63000   0.01267  Uiso   1.00
H292   H     0.44790   0.67830   0.65360   0.01267  Uiso   1.00
H293   H     0.66800   0.60920   0.79820   0.01267  Uiso   1.00
H294   H     0.70690   0.69110   0.76550   0.01267  Uiso   1.00
H295   H     0.71540   0.58360   0.78430   0.01267  Uiso   1.00
H296   H     0.75140   0.66220   0.74870   0.01267  Uiso   1.00
H297   H     0.52230   0.82140   0.88800   0.01267  Uiso   1.00
H298   H     0.50760   0.73490   0.92930   0.01267  Uiso   1.00
H299   H     0.47990   0.76200   0.96950   0.01267  Uiso   1.00
H300   H     0.50340   0.84470   0.93540   0.01267  Uiso   1.00
H301   H     0.58610   0.55650   0.79580   0.01267  Uiso   1.00
H302   H     0.50820   0.58560   0.74490   0.01267  Uiso   1.00
H303   H     0.51150   0.63480   0.77300   0.01267  Uiso   1.00
H304   H     0.58930   0.60700   0.81850   0.01267  Uiso   1.00
H305   H     0.56290   0.87620   0.80440   0.01267  Uiso   1.00
H306   H     0.49050   0.82730   0.76990   0.01267  Uiso   1.00
H307   H     0.59500   0.83210   0.79670   0.01267  Uiso   1.00
H308   H     0.52730   0.78410   0.76230   0.01267  Uiso   1.00
H309   H     0.50070   0.94010   0.07440   0.01267  Uiso   1.00
H310   H     0.47470   0.89810   0.15660   0.01267  Uiso   1.00
H311   H     0.51400   0.98520   0.10220   0.01267  Uiso   1.00
H312   H     0.48790   0.94390   0.18290   0.01267  Uiso   1.00
H313   H     0.97640   0.24540   0.17680   0.01267  Uiso   1.00
H314   H     0.02640   0.32470   0.20350   0.01267  Uiso   1.00
H315   H     0.00600   0.24390   0.13000   0.01267  Uiso   1.00
H316   H     0.05210   0.32170   0.15360   0.01267  Uiso   1.00
H317   H     0.83200   0.39080   0.29820   0.01267  Uiso   1.00
H318   H     0.79310   0.30890   0.26550   0.01267  Uiso   1.00
H319   H     0.78460   0.41640   0.28430   0.01267  Uiso   1.00
H320   H     0.74860   0.33780   0.24870   0.01267  Uiso   1.00
H321   H     0.97770   0.17860   0.38800   0.01267  Uiso   1.00
H322   H     0.99240   0.26510   0.42930   0.01267  Uiso   1.00
H323   H     0.02010   0.23800   0.46950   0.01267  Uiso   1.00
H324   H     0.99660   0.15530   0.43540   0.01267  Uiso   1.00
H325   H     0.91390   0.44350   0.29580   0.01267  Uiso   1.00
H326   H     0.99180   0.41440   0.24490   0.01267  Uiso   1.00
H327   H     0.98850   0.36520   0.27300   0.01267  Uiso   1.00
H328   H     0.91070   0.39300   0.31850   0.01267  Uiso   1.00
H329   H     0.93710   0.12380   0.30440   0.01267  Uiso   1.00
H330   H     0.00950   0.17270   0.26990   0.01267  Uiso   1.00
H331   H     0.90500   0.16790   0.29670   0.01267  Uiso   1.00
H332   H     0.97270   0.21590   0.26230   0.01267  Uiso   1.00
H333   H     0.99930   0.05990   0.57440   0.01267  Uiso   1.00
H334   H     0.02530   0.10190   0.65660   0.01267  Uiso   1.00
H335   H     0.98600   0.01480   0.60220   0.01267  Uiso   1.00
H336   H     0.01210   0.05610   0.68290   0.01267  Uiso   1.00
H337   H     0.47640   0.25460   0.82320   0.01267  Uiso   1.00
H338   H     0.52640   0.17530   0.79650   0.01267  Uiso   1.00
H339   H     0.50600   0.25610   0.87000   0.01267  Uiso   1.00
H340   H     0.55210   0.17830   0.84640   0.01267  Uiso   1.00
H341   H     0.33200   0.10920   0.70180   0.01267  Uiso   1.00
H342   H     0.29310   0.19110   0.73450   0.01267  Uiso   1.00
H343   H     0.28460   0.08360   0.71570   0.01267  Uiso   1.00
H344   H     0.24860   0.16220   0.75130   0.01267  Uiso   1.00
H345   H     0.47770   0.32140   0.61200   0.01267  Uiso   1.00
H346   H     0.49240   0.23490   0.57070   0.01267  Uiso   1.00
H347   H     0.52010   0.26200   0.53050   0.01267  Uiso   1.00
H348   H     0.49660   0.34470   0.56460   0.01267  Uiso   1.00
H349   H     0.41390   0.05650   0.70420   0.01267  Uiso   1.00
H350   H     0.49180   0.08560   0.75510   0.01267  Uiso   1.00
H351   H     0.48850   0.13480   0.72700   0.01267  Uiso   1.00
H352   H     0.41070   0.10700   0.68150   0.01267  Uiso   1.00
H353   H     0.43710   0.37620   0.69560   0.01267  Uiso   1.00
H354   H     0.50950   0.32730   0.73010   0.01267  Uiso   1.00
H355   H     0.40500   0.33210   0.70330   0.01267  Uiso   1.00
H356   H     0.47270   0.28410   0.73770   0.01267  Uiso   1.00
H357   H     0.49930   0.44010   0.42560   0.01267  Uiso   1.00
H358   H     0.52530   0.39810   0.34340   0.01267  Uiso   1.00
H359   H     0.48600   0.48520   0.39780   0.01267  Uiso   1.00
H360   H     0.51210   0.44390   0.31710   0.01267  Uiso   1.00
H361   H     0.02360   0.74540   0.32320   0.01267  Uiso   1.00
H362   H     0.97360   0.82470   0.29650   0.01267  Uiso   1.00
H363   H     0.99400   0.74390   0.37000   0.01267  Uiso   1.00
H364   H     0.94790   0.82170   0.34640   0.01267  Uiso   1.00
H365   H     0.16800   0.89080   0.20180   0.01267  Uiso   1.00
H366   H     0.20690   0.80890   0.23450   0.01267  Uiso   1.00
H367   H     0.21540   0.91640   0.21570   0.01267  Uiso   1.00
H368   H     0.25140   0.83780   0.25130   0.01267  Uiso   1.00
H369   H     0.02230   0.67860   0.11200   0.01267  Uiso   1.00
H370   H     0.00760   0.76510   0.07070   0.01267  Uiso   1.00
H371   H     0.97990   0.73800   0.03050   0.01267  Uiso   1.00
H372   H     0.00340   0.65530   0.06460   0.01267  Uiso   1.00
H373   H     0.08610   0.94350   0.20420   0.01267  Uiso   1.00
H374   H     0.00820   0.91440   0.25510   0.01267  Uiso   1.00
H375   H     0.01150   0.86520   0.22700   0.01267  Uiso   1.00
H376   H     0.08930   0.89300   0.18150   0.01267  Uiso   1.00
H377   H     0.06290   0.62380   0.19560   0.01267  Uiso   1.00
H378   H     0.99050   0.67270   0.23010   0.01267  Uiso   1.00
H379   H     0.09500   0.66790   0.20330   0.01267  Uiso   1.00
H380   H     0.02730   0.71590   0.23770   0.01267  Uiso   1.00
H381   H     0.00070   0.55990   0.92560   0.01267  Uiso   1.00
H382   H     0.97470   0.60190   0.84340   0.01267  Uiso   1.00
H383   H     0.01400   0.51480   0.89780   0.01267  Uiso   1.00
H384   H     0.98790   0.55610   0.81710   0.01267  Uiso   1.00
H385   H     0.67680   0.52360   0.75460   0.01267  Uiso   1.00
H386   H     0.70350   0.47360   0.67530   0.01267  Uiso   1.00
H387   H     0.63000   0.49400   0.75610   0.01267  Uiso   1.00
H388   H     0.65360   0.44790   0.67830   0.01267  Uiso   1.00
H389   H     0.79820   0.66800   0.60920   0.01267  Uiso   1.00
H390   H     0.76550   0.70690   0.69110   0.01267  Uiso   1.00
H391   H     0.78430   0.71540   0.58360   0.01267  Uiso   1.00
H392   H     0.74870   0.75140   0.66220   0.01267  Uiso   1.00
H393   H     0.88800   0.52230   0.82140   0.01267  Uiso   1.00
H394   H     0.92930   0.50760   0.73490   0.01267  Uiso   1.00
H395   H     0.96950   0.47990   0.76200   0.01267  Uiso   1.00
H396   H     0.93540   0.50340   0.84470   0.01267  Uiso   1.00
H397   H     0.79580   0.58610   0.55650   0.01267  Uiso   1.00
H398   H     0.74490   0.50820   0.58560   0.01267  Uiso   1.00
H399   H     0.77300   0.51150   0.63480   0.01267  Uiso   1.00
H400   H     0.81850   0.58930   0.60700   0.01267  Uiso   1.00
H401   H     0.80440   0.56290   0.87620   0.01267  Uiso   1.00
H402   H     0.76990   0.49050   0.82730   0.01267  Uiso   1.00
H403   H     0.79670   0.59500   0.83210   0.01267  Uiso   1.00
H404   H     0.76230   0.52730   0.78410   0.01267  Uiso   1.00
H405   H     0.07440   0.50070   0.94010   0.01267  Uiso   1.00
H406   H     0.15660   0.47470   0.89810   0.01267  Uiso   1.00
H407   H     0.10220   0.51400   0.98520   0.01267  Uiso   1.00
H408   H     0.18290   0.48790   0.94390   0.01267  Uiso   1.00
H409   H     0.17680   0.97640   0.24540   0.01267  Uiso   1.00
H410   H     0.20350   0.02640   0.32470   0.01267  Uiso   1.00
H411   H     0.13000   0.00600   0.24390   0.01267  Uiso   1.00
H412   H     0.15360   0.05210   0.32170   0.01267  Uiso   1.00
H413   H     0.29820   0.83200   0.39080   0.01267  Uiso   1.00
H414   H     0.26550   0.79310   0.30890   0.01267  Uiso   1.00
H415   H     0.28430   0.78460   0.41640   0.01267  Uiso   1.00
H416   H     0.24870   0.74860   0.33780   0.01267  Uiso   1.00
H417   H     0.38800   0.97770   0.17860   0.01267  Uiso   1.00
H418   H     0.42930   0.99240   0.26510   0.01267  Uiso   1.00
H419   H     0.46950   0.02010   0.23800   0.01267  Uiso   1.00
H420   H     0.43540   0.99660   0.15530   0.01267  Uiso   1.00
H421   H     0.29580   0.91390   0.44350   0.01267  Uiso   1.00
H422   H     0.24490   0.99180   0.41440   0.01267  Uiso   1.00
H423   H     0.27300   0.98850   0.36520   0.01267  Uiso   1.00
H424   H     0.31850   0.91070   0.39300   0.01267  Uiso   1.00
H425   H     0.30440   0.93710   0.12380   0.01267  Uiso   1.00
H426   H     0.26990   0.00950   0.17270   0.01267  Uiso   1.00
H427   H     0.29670   0.90500   0.16790   0.01267  Uiso   1.00
H428   H     0.26230   0.97270   0.21590   0.01267  Uiso   1.00
H429   H     0.57440   0.99930   0.05990   0.01267  Uiso   1.00
H430   H     0.65660   0.02530   0.10190   0.01267  Uiso   1.00
H431   H     0.60220   0.98600   0.01480   0.01267  Uiso   1.00
H432   H     0.68290   0.01210   0.05610   0.01267  Uiso   1.00
H433   H     0.82320   0.47640   0.25460   0.01267  Uiso   1.00
H434   H     0.79650   0.52640   0.17530   0.01267  Uiso   1.00
H435   H     0.87000   0.50600   0.25610   0.01267  Uiso   1.00
H436   H     0.84640   0.55210   0.17830   0.01267  Uiso   1.00
H437   H     0.70180   0.33200   0.10920   0.01267  Uiso   1.00
H438   H     0.73450   0.29310   0.19110   0.01267  Uiso   1.00
H439   H     0.71570   0.28460   0.08360   0.01267  Uiso   1.00
H440   H     0.75130   0.24860   0.16220   0.01267  Uiso   1.00
H441   H     0.61200   0.47770   0.32140   0.01267  Uiso   1.00
H442   H     0.57070   0.49240   0.23490   0.01267  Uiso   1.00
H443   H     0.53050   0.52010   0.26200   0.01267  Uiso   1.00
H444   H     0.56460   0.49660   0.34470   0.01267  Uiso   1.00
H445   H     0.70420   0.41390   0.05650   0.01267  Uiso   1.00
H446   H     0.75510   0.49180   0.08560   0.01267  Uiso   1.00
H447   H     0.72700   0.48850   0.13480   0.01267  Uiso   1.00
H448   H     0.68150   0.41070   0.10700   0.01267  Uiso   1.00
H449   H     0.69560   0.43710   0.37620   0.01267  Uiso   1.00
H450   H     0.73010   0.50950   0.32730   0.01267  Uiso   1.00
H451   H     0.70330   0.40500   0.33210   0.01267  Uiso   1.00
H452   H     0.73770   0.47270   0.28410   0.01267  Uiso   1.00
H453   H     0.42560   0.49930   0.44010   0.01267  Uiso   1.00
H454   H     0.34340   0.52530   0.39810   0.01267  Uiso   1.00
H455   H     0.39780   0.48600   0.48520   0.01267  Uiso   1.00
H456   H     0.31710   0.51210   0.44390   0.01267  Uiso   1.00
H457   H     0.32320   0.02360   0.74540   0.01267  Uiso   1.00
H458   H     0.29650   0.97360   0.82470   0.01267  Uiso   1.00
H459   H     0.37000   0.99400   0.74390   0.01267  Uiso   1.00
H460   H     0.34640   0.94790   0.82170   0.01267  Uiso   1.00
H461   H     0.20180   0.16800   0.89080   0.01267  Uiso   1.00
H462   H     0.23450   0.20690   0.80890   0.01267  Uiso   1.00
H463   H     0.21570   0.21540   0.91640   0.01267  Uiso   1.00
H464   H     0.25130   0.25140   0.83780   0.01267  Uiso   1.00
H465   H     0.11200   0.02230   0.67860   0.01267  Uiso   1.00
H466   H     0.07070   0.00760   0.76510   0.01267  Uiso   1.00
H467   H     0.03050   0.97990   0.73800   0.01267  Uiso   1.00
H468   H     0.06460   0.00340   0.65530   0.01267  Uiso   1.00
H469   H     0.20420   0.08610   0.94350   0.01267  Uiso   1.00
H470   H     0.25510   0.00820   0.91440   0.01267  Uiso   1.00
H471   H     0.22700   0.01150   0.86520   0.01267  Uiso   1.00
H472   H     0.18150   0.08930   0.89300   0.01267  Uiso   1.00
H473   H     0.19560   0.06290   0.62380   0.01267  Uiso   1.00
H474   H     0.23010   0.99050   0.67270   0.01267  Uiso   1.00
H475   H     0.20330   0.09500   0.66790   0.01267  Uiso   1.00
H476   H     0.23770   0.02730   0.71590   0.01267  Uiso   1.00
H477   H     0.92560   0.00070   0.55990   0.01267  Uiso   1.00
H478   H     0.84340   0.97470   0.60190   0.01267  Uiso   1.00
H479   H     0.89780   0.01400   0.51480   0.01267  Uiso   1.00
H480   H     0.81710   0.98790   0.55610   0.01267  Uiso   1.00
H481   H     0.75460   0.67680   0.52360   0.01267  Uiso   1.00
H482   H     0.67530   0.70350   0.47360   0.01267  Uiso   1.00
H483   H     0.75610   0.63000   0.49400   0.01267  Uiso   1.00
H484   H     0.67830   0.65360   0.44790   0.01267  Uiso   1.00
H485   H     0.60920   0.79820   0.66800   0.01267  Uiso   1.00
H486   H     0.69110   0.76550   0.70690   0.01267  Uiso   1.00
H487   H     0.58360   0.78430   0.71540   0.01267  Uiso   1.00
H488   H     0.66220   0.74870   0.75140   0.01267  Uiso   1.00
H489   H     0.82140   0.88800   0.52230   0.01267  Uiso   1.00
H490   H     0.73490   0.92930   0.50760   0.01267  Uiso   1.00
H491   H     0.76200   0.96950   0.47990   0.01267  Uiso   1.00
H492   H     0.84470   0.93540   0.50340   0.01267  Uiso   1.00
H493   H     0.55650   0.79580   0.58610   0.01267  Uiso   1.00
H494   H     0.58560   0.74490   0.50820   0.01267  Uiso   1.00
H495   H     0.63480   0.77300   0.51150   0.01267  Uiso   1.00
H496   H     0.60700   0.81850   0.58930   0.01267  Uiso   1.00
H497   H     0.87620   0.80440   0.56290   0.01267  Uiso   1.00
H498   H     0.82730   0.76990   0.49050   0.01267  Uiso   1.00
H499   H     0.83210   0.79670   0.59500   0.01267  Uiso   1.00
H500   H     0.78410   0.76230   0.52730   0.01267  Uiso   1.00
H501   H     0.94010   0.07440   0.50070   0.01267  Uiso   1.00
H502   H     0.89810   0.15660   0.47470   0.01267  Uiso   1.00
H503   H     0.98520   0.10220   0.51400   0.01267  Uiso   1.00
H504   H     0.94390   0.18290   0.48790   0.01267  Uiso   1.00
H505   H     0.24540   0.17680   0.97640   0.01267  Uiso   1.00
H506   H     0.32470   0.20350   0.02640   0.01267  Uiso   1.00
H507   H     0.24390   0.13000   0.00600   0.01267  Uiso   1.00
H508   H     0.32170   0.15360   0.05210   0.01267  Uiso   1.00
H509   H     0.39080   0.29820   0.83200   0.01267  Uiso   1.00
H510   H     0.30890   0.26550   0.79310   0.01267  Uiso   1.00
H511   H     0.41640   0.28430   0.78460   0.01267  Uiso   1.00
H512   H     0.33780   0.24870   0.74860   0.01267  Uiso   1.00
H513   H     0.17860   0.38800   0.97770   0.01267  Uiso   1.00
H514   H     0.26510   0.42930   0.99240   0.01267  Uiso   1.00
H515   H     0.23800   0.46950   0.02010   0.01267  Uiso   1.00
H516   H     0.15530   0.43540   0.99660   0.01267  Uiso   1.00
H517   H     0.44350   0.29580   0.91390   0.01267  Uiso   1.00
H518   H     0.41440   0.24490   0.99180   0.01267  Uiso   1.00
H519   H     0.36520   0.27300   0.98850   0.01267  Uiso   1.00
H520   H     0.39300   0.31850   0.91070   0.01267  Uiso   1.00
H521   H     0.12380   0.30440   0.93710   0.01267  Uiso   1.00
H522   H     0.17270   0.26990   0.00950   0.01267  Uiso   1.00
H523   H     0.16790   0.29670   0.90500   0.01267  Uiso   1.00
H524   H     0.21590   0.26230   0.97270   0.01267  Uiso   1.00
H525   H     0.05990   0.57440   0.99930   0.01267  Uiso   1.00
H526   H     0.10190   0.65660   0.02530   0.01267  Uiso   1.00
H527   H     0.01480   0.60220   0.98600   0.01267  Uiso   1.00
H528   H     0.05610   0.68290   0.01210   0.01267  Uiso   1.00
H529   H     0.25460   0.82320   0.47640   0.01267  Uiso   1.00
H530   H     0.17530   0.79650   0.52640   0.01267  Uiso   1.00
H531   H     0.25610   0.87000   0.50600   0.01267  Uiso   1.00
H532   H     0.17830   0.84640   0.55210   0.01267  Uiso   1.00
H533   H     0.10920   0.70180   0.33200   0.01267  Uiso   1.00
H534   H     0.19110   0.73450   0.29310   0.01267  Uiso   1.00
H535   H     0.08360   0.71570   0.28460   0.01267  Uiso   1.00
H536   H     0.16220   0.75130   0.24860   0.01267  Uiso   1.00
H537   H     0.32140   0.61200   0.47770   0.01267  Uiso   1.00
H538   H     0.23490   0.57070   0.49240   0.01267  Uiso   1.00
H539   H     0.26200   0.53050   0.52010   0.01267  Uiso   1.00
H540   H     0.34470   0.56460   0.49660   0.01267  Uiso   1.00
H541   H     0.05650   0.70420   0.41390   0.01267  Uiso   1.00
H542   H     0.08560   0.75510   0.49180   0.01267  Uiso   1.00
H543   H     0.13480   0.72700   0.48850   0.01267  Uiso   1.00
H544   H     0.10700   0.68150   0.41070   0.01267  Uiso   1.00
H545   H     0.37620   0.69560   0.43710   0.01267  Uiso   1.00
H546   H     0.32730   0.73010   0.50950   0.01267  Uiso   1.00
H547   H     0.33210   0.70330   0.40500   0.01267  Uiso   1.00
H548   H     0.28410   0.73770   0.47270   0.01267  Uiso   1.00
H549   H     0.44010   0.42560   0.49930   0.01267  Uiso   1.00
H550   H     0.39810   0.34340   0.52530   0.01267  Uiso   1.00
H551   H     0.48520   0.39780   0.48600   0.01267  Uiso   1.00
H552   H     0.44390   0.31710   0.51210   0.01267  Uiso   1.00
H553   H     0.74540   0.32320   0.02360   0.01267  Uiso   1.00
H554   H     0.82470   0.29650   0.97360   0.01267  Uiso   1.00
H555   H     0.74390   0.37000   0.99400   0.01267  Uiso   1.00
H556   H     0.82170   0.34640   0.94790   0.01267  Uiso   1.00
H557   H     0.89080   0.20180   0.16800   0.01267  Uiso   1.00
H558   H     0.80890   0.23450   0.20690   0.01267  Uiso   1.00
H559   H     0.91640   0.21570   0.21540   0.01267  Uiso   1.00
H560   H     0.83780   0.25130   0.25140   0.01267  Uiso   1.00
H561   H     0.67860   0.11200   0.02230   0.01267  Uiso   1.00
H562   H     0.76510   0.07070   0.00760   0.01267  Uiso   1.00
H563   H     0.73800   0.03050   0.97990   0.01267  Uiso   1.00
H564   H     0.65530   0.06460   0.00340   0.01267  Uiso   1.00
H565   H     0.94350   0.20420   0.08610   0.01267  Uiso   1.00
H566   H     0.91440   0.25510   0.00820   0.01267  Uiso   1.00
H567   H     0.86520   0.22700   0.01150   0.01267  Uiso   1.00
H568   H     0.89300   0.18150   0.08930   0.01267  Uiso   1.00
H569   H     0.62380   0.19560   0.06290   0.01267  Uiso   1.00
H570   H     0.67270   0.23010   0.99050   0.01267  Uiso   1.00
H571   H     0.66790   0.20330   0.09500   0.01267  Uiso   1.00
H572   H     0.71590   0.23770   0.02730   0.01267  Uiso   1.00
H573   H     0.55990   0.92560   0.00070   0.01267  Uiso   1.00
H574   H     0.60190   0.84340   0.97470   0.01267  Uiso   1.00
H575   H     0.51480   0.89780   0.01400   0.01267  Uiso   1.00
H576   H     0.55610   0.81710   0.98790   0.01267  Uiso   1.00
C1     C     0.47960   0.28640   0.27440   0.01267  Uiso   1.00
C2     C     0.49820   0.28520   0.30410   0.01267  Uiso   1.00
C3     C     0.49240   0.26120   0.32700   0.01267  Uiso   1.00
C4     C     0.52120   0.30800   0.31120   0.01267  Uiso   1.00
C5     C     0.51000   0.26080   0.35510   0.01267  Uiso   1.00
C6     C     0.53690   0.30550   0.34120   0.01267  Uiso   1.00
C7     C     0.34740   0.32880   0.20850   0.01267  Uiso   1.00
C8     C     0.31830   0.34700   0.21780   0.01267  Uiso   1.00
C9     C     0.31510   0.37900   0.21170   0.01267  Uiso   1.00
C10    C     0.29240   0.33150   0.23130   0.01267  Uiso   1.00
C11    C     0.28650   0.39410   0.22030   0.01267  Uiso   1.00
C12    C     0.26530   0.34890   0.24030   0.01267  Uiso   1.00
C13    C     0.46470   0.24040   0.12270   0.01267  Uiso   1.00
C14    C     0.48080   0.22440   0.09520   0.01267  Uiso   1.00
C15    C     0.48390   0.19160   0.09430   0.01267  Uiso   1.00
C16    C     0.49370   0.24230   0.07070   0.01267  Uiso   1.00
C17    C     0.50880   0.22570   0.04610   0.01267  Uiso   1.00
C18    C     0.49670   0.17810   0.06640   0.01267  Uiso   1.00
C19    C     0.45240   0.46380   0.25280   0.01267  Uiso   1.00
C20    C     0.45100   0.43360   0.23410   0.01267  Uiso   1.00
C21    C     0.42870   0.42730   0.21050   0.01267  Uiso   1.00
C22    C     0.47500   0.41050   0.24020   0.01267  Uiso   1.00
C23    C     0.47280   0.38130   0.22310   0.01267  Uiso   1.00
C24    C     0.42770   0.39770   0.19600   0.01267  Uiso   1.00
C25    C     0.49680   0.11420   0.21270   0.01267  Uiso   1.00
C26    C     0.47660   0.14260   0.21650   0.01267  Uiso   1.00
C27    C     0.44570   0.14240   0.20560   0.01267  Uiso   1.00
C28    C     0.48740   0.16980   0.22540   0.01267  Uiso   1.00
C29    C     0.42700   0.16970   0.20910   0.01267  Uiso   1.00
C30    C     0.46470   0.19670   0.22810   0.01267  Uiso   1.00
C31    C     0.52440   0.11470   0.90620   0.01267  Uiso   1.00
C32    C     0.51490   0.08640   0.88830   0.01267  Uiso   1.00
C33    C     0.50250   0.05960   0.90300   0.01267  Uiso   1.00
C34    C     0.51770   0.08400   0.85540   0.01267  Uiso   1.00
C35    C     0.49470   0.03250   0.88620   0.01267  Uiso   1.00
C36    C     0.50970   0.05660   0.83980   0.01267  Uiso   1.00
C37    C     0.02040   0.71360   0.77440   0.01267  Uiso   1.00
C38    C     0.00180   0.71480   0.80410   0.01267  Uiso   1.00
C39    C     0.00760   0.73880   0.82700   0.01267  Uiso   1.00
C40    C     0.97880   0.69200   0.81120   0.01267  Uiso   1.00
C41    C     0.99000   0.73920   0.85510   0.01267  Uiso   1.00
C42    C     0.96310   0.69450   0.84120   0.01267  Uiso   1.00
C43    C     0.15260   0.67120   0.70850   0.01267  Uiso   1.00
C44    C     0.18170   0.65300   0.71780   0.01267  Uiso   1.00
C45    C     0.18490   0.62100   0.71170   0.01267  Uiso   1.00
C46    C     0.20760   0.66850   0.73130   0.01267  Uiso   1.00
C47    C     0.21350   0.60590   0.72030   0.01267  Uiso   1.00
C48    C     0.23470   0.65110   0.74030   0.01267  Uiso   1.00
C49    C     0.03530   0.75960   0.62270   0.01267  Uiso   1.00
C50    C     0.01920   0.77560   0.59520   0.01267  Uiso   1.00
C51    C     0.01610   0.80840   0.59430   0.01267  Uiso   1.00
C52    C     0.00630   0.75770   0.57070   0.01267  Uiso   1.00
C53    C     0.99120   0.77430   0.54610   0.01267  Uiso   1.00
C54    C     0.00330   0.82190   0.56640   0.01267  Uiso   1.00
C55    C     0.04760   0.53620   0.75280   0.01267  Uiso   1.00
C56    C     0.04900   0.56640   0.73410   0.01267  Uiso   1.00
C57    C     0.07130   0.57270   0.71050   0.01267  Uiso   1.00
C58    C     0.02500   0.58950   0.74020   0.01267  Uiso   1.00
C59    C     0.02720   0.61870   0.72310   0.01267  Uiso   1.00
C60    C     0.07230   0.60230   0.69600   0.01267  Uiso   1.00
C61    C     0.00320   0.88580   0.71270   0.01267  Uiso   1.00
C62    C     0.02340   0.85740   0.71650   0.01267  Uiso   1.00
C63    C     0.05430   0.85760   0.70560   0.01267  Uiso   1.00
C64    C     0.01260   0.83020   0.72540   0.01267  Uiso   1.00
C65    C     0.07300   0.83030   0.70910   0.01267  Uiso   1.00
C66    C     0.03530   0.80330   0.72810   0.01267  Uiso   1.00
C67    C     0.97560   0.88530   0.40620   0.01267  Uiso   1.00
C68    C     0.98510   0.91360   0.38830   0.01267  Uiso   1.00
C69    C     0.99750   0.94040   0.40300   0.01267  Uiso   1.00
C70    C     0.98230   0.91600   0.35540   0.01267  Uiso   1.00
C71    C     0.00530   0.96750   0.38620   0.01267  Uiso   1.00
C72    C     0.99030   0.94340   0.33980   0.01267  Uiso   1.00
C73    C     0.52040   0.78640   0.22560   0.01267  Uiso   1.00
C74    C     0.50180   0.78520   0.19590   0.01267  Uiso   1.00
C75    C     0.50760   0.76120   0.17300   0.01267  Uiso   1.00
C76    C     0.47880   0.80800   0.18880   0.01267  Uiso   1.00
C77    C     0.49000   0.76080   0.14490   0.01267  Uiso   1.00
C78    C     0.46310   0.80550   0.15880   0.01267  Uiso   1.00
C79    C     0.65260   0.82880   0.29150   0.01267  Uiso   1.00
C80    C     0.68170   0.84700   0.28220   0.01267  Uiso   1.00
C81    C     0.68490   0.87900   0.28830   0.01267  Uiso   1.00
C82    C     0.70760   0.83150   0.26870   0.01267  Uiso   1.00
C83    C     0.71350   0.89410   0.27970   0.01267  Uiso   1.00
C84    C     0.73470   0.84890   0.25970   0.01267  Uiso   1.00
C85    C     0.53530   0.74040   0.37730   0.01267  Uiso   1.00
C86    C     0.51920   0.72440   0.40480   0.01267  Uiso   1.00
C87    C     0.51610   0.69160   0.40570   0.01267  Uiso   1.00
C88    C     0.50630   0.74230   0.42930   0.01267  Uiso   1.00
C89    C     0.49120   0.72570   0.45390   0.01267  Uiso   1.00
C90    C     0.50330   0.67810   0.43360   0.01267  Uiso   1.00
C91    C     0.54760   0.96380   0.24720   0.01267  Uiso   1.00
C92    C     0.54900   0.93360   0.26590   0.01267  Uiso   1.00
C93    C     0.57130   0.92730   0.28950   0.01267  Uiso   1.00
C94    C     0.52500   0.91050   0.25980   0.01267  Uiso   1.00
C95    C     0.52720   0.88130   0.27690   0.01267  Uiso   1.00
C96    C     0.57230   0.89770   0.30400   0.01267  Uiso   1.00
C97    C     0.50320   0.61420   0.28730   0.01267  Uiso   1.00
C98    C     0.52340   0.64260   0.28350   0.01267  Uiso   1.00
C99    C     0.55430   0.64240   0.29440   0.01267  Uiso   1.00
C100   C     0.51260   0.66980   0.27460   0.01267  Uiso   1.00
C101   C     0.57300   0.66970   0.29090   0.01267  Uiso   1.00
C102   C     0.53530   0.69670   0.27190   0.01267  Uiso   1.00
C103   C     0.47560   0.61470   0.59380   0.01267  Uiso   1.00
C104   C     0.48510   0.58640   0.61170   0.01267  Uiso   1.00
C105   C     0.49750   0.55960   0.59700   0.01267  Uiso   1.00
C106   C     0.48230   0.58400   0.64460   0.01267  Uiso   1.00
C107   C     0.50530   0.53250   0.61380   0.01267  Uiso   1.00
C108   C     0.49030   0.55660   0.66020   0.01267  Uiso   1.00
C109   C     0.97960   0.21360   0.72560   0.01267  Uiso   1.00
C110   C     0.99820   0.21480   0.69590   0.01267  Uiso   1.00
C111   C     0.99240   0.23880   0.67300   0.01267  Uiso   1.00
C112   C     0.02120   0.19200   0.68880   0.01267  Uiso   1.00
C113   C     0.01000   0.23920   0.64490   0.01267  Uiso   1.00
C114   C     0.03690   0.19450   0.65880   0.01267  Uiso   1.00
C115   C     0.84740   0.17120   0.79150   0.01267  Uiso   1.00
C116   C     0.81830   0.15300   0.78220   0.01267  Uiso   1.00
C117   C     0.81510   0.12100   0.78830   0.01267  Uiso   1.00
C118   C     0.79240   0.16850   0.76870   0.01267  Uiso   1.00
C119   C     0.78650   0.10590   0.77970   0.01267  Uiso   1.00
C120   C     0.76530   0.15110   0.75970   0.01267  Uiso   1.00
C121   C     0.96470   0.25960   0.87730   0.01267  Uiso   1.00
C122   C     0.98080   0.27560   0.90480   0.01267  Uiso   1.00
C123   C     0.98390   0.30840   0.90570   0.01267  Uiso   1.00
C124   C     0.99370   0.25770   0.92930   0.01267  Uiso   1.00
C125   C     0.00880   0.27430   0.95390   0.01267  Uiso   1.00
C126   C     0.99670   0.32190   0.93360   0.01267  Uiso   1.00
C127   C     0.95240   0.03620   0.74720   0.01267  Uiso   1.00
C128   C     0.95100   0.06640   0.76590   0.01267  Uiso   1.00
C129   C     0.92870   0.07270   0.78950   0.01267  Uiso   1.00
C130   C     0.97500   0.08950   0.75980   0.01267  Uiso   1.00
C131   C     0.97280   0.11870   0.77690   0.01267  Uiso   1.00
C132   C     0.92770   0.10230   0.80400   0.01267  Uiso   1.00
C133   C     0.99680   0.38580   0.78730   0.01267  Uiso   1.00
C134   C     0.97660   0.35740   0.78350   0.01267  Uiso   1.00
C135   C     0.94570   0.35760   0.79440   0.01267  Uiso   1.00
C136   C     0.98740   0.33020   0.77460   0.01267  Uiso   1.00
C137   C     0.92700   0.33030   0.79090   0.01267  Uiso   1.00
C138   C     0.96470   0.30330   0.77190   0.01267  Uiso   1.00
C139   C     0.02440   0.38530   0.09380   0.01267  Uiso   1.00
C140   C     0.01490   0.41360   0.11170   0.01267  Uiso   1.00
C141   C     0.00250   0.44040   0.09700   0.01267  Uiso   1.00
C142   C     0.01770   0.41600   0.14460   0.01267  Uiso   1.00
C143   C     0.99470   0.46750   0.11380   0.01267  Uiso   1.00
C144   C     0.00970   0.44340   0.16020   0.01267  Uiso   1.00
C145   C     0.27440   0.47960   0.28640   0.01267  Uiso   1.00
C146   C     0.30410   0.49820   0.28520   0.01267  Uiso   1.00
C147   C     0.32700   0.49240   0.26120   0.01267  Uiso   1.00
C148   C     0.31120   0.52120   0.30800   0.01267  Uiso   1.00
C149   C     0.35510   0.51000   0.26080   0.01267  Uiso   1.00
C150   C     0.34120   0.53690   0.30550   0.01267  Uiso   1.00
C151   C     0.20850   0.34740   0.32880   0.01267  Uiso   1.00
C152   C     0.21780   0.31830   0.34700   0.01267  Uiso   1.00
C153   C     0.21170   0.31510   0.37900   0.01267  Uiso   1.00
C154   C     0.23130   0.29240   0.33150   0.01267  Uiso   1.00
C155   C     0.22030   0.28650   0.39410   0.01267  Uiso   1.00
C156   C     0.24030   0.26530   0.34890   0.01267  Uiso   1.00
C157   C     0.12270   0.46470   0.24040   0.01267  Uiso   1.00
C158   C     0.09520   0.48080   0.22440   0.01267  Uiso   1.00
C159   C     0.09430   0.48390   0.19160   0.01267  Uiso   1.00
C160   C     0.07070   0.49370   0.24230   0.01267  Uiso   1.00
C161   C     0.04610   0.50880   0.22570   0.01267  Uiso   1.00
C162   C     0.06640   0.49670   0.17810   0.01267  Uiso   1.00
C163   C     0.25280   0.45240   0.46380   0.01267  Uiso   1.00
C164   C     0.23410   0.45100   0.43360   0.01267  Uiso   1.00
C165   C     0.21050   0.42870   0.42730   0.01267  Uiso   1.00
C166   C     0.24020   0.47500   0.41050   0.01267  Uiso   1.00
C167   C     0.22310   0.47280   0.38130   0.01267  Uiso   1.00
C168   C     0.19600   0.42770   0.39770   0.01267  Uiso   1.00
C169   C     0.21270   0.49680   0.11420   0.01267  Uiso   1.00
C170   C     0.21650   0.47660   0.14260   0.01267  Uiso   1.00
C171   C     0.20560   0.44570   0.14240   0.01267  Uiso   1.00
C172   C     0.22540   0.48740   0.16980   0.01267  Uiso   1.00
C173   C     0.20910   0.42700   0.16970   0.01267  Uiso   1.00
C174   C     0.22810   0.46470   0.19670   0.01267  Uiso   1.00
C175   C     0.90620   0.52440   0.11470   0.01267  Uiso   1.00
C176   C     0.88830   0.51490   0.08640   0.01267  Uiso   1.00
C177   C     0.90300   0.50250   0.05960   0.01267  Uiso   1.00
C178   C     0.85540   0.51770   0.08400   0.01267  Uiso   1.00
C179   C     0.88620   0.49470   0.03250   0.01267  Uiso   1.00
C180   C     0.83980   0.50970   0.05660   0.01267  Uiso   1.00
C181   C     0.77440   0.02040   0.71360   0.01267  Uiso   1.00
C182   C     0.80410   0.00180   0.71480   0.01267  Uiso   1.00
C183   C     0.82700   0.00760   0.73880   0.01267  Uiso   1.00
C184   C     0.81120   0.97880   0.69200   0.01267  Uiso   1.00
C185   C     0.85510   0.99000   0.73920   0.01267  Uiso   1.00
C186   C     0.84120   0.96310   0.69450   0.01267  Uiso   1.00
C187   C     0.70850   0.15260   0.67120   0.01267  Uiso   1.00
C188   C     0.71780   0.18170   0.65300   0.01267  Uiso   1.00
C189   C     0.71170   0.18490   0.62100   0.01267  Uiso   1.00
C190   C     0.73130   0.20760   0.66850   0.01267  Uiso   1.00
C191   C     0.72030   0.21350   0.60590   0.01267  Uiso   1.00
C192   C     0.74030   0.23470   0.65110   0.01267  Uiso   1.00
C193   C     0.62270   0.03530   0.75960   0.01267  Uiso   1.00
C194   C     0.59520   0.01920   0.77560   0.01267  Uiso   1.00
C195   C     0.59430   0.01610   0.80840   0.01267  Uiso   1.00
C196   C     0.57070   0.00630   0.75770   0.01267  Uiso   1.00
C197   C     0.54610   0.99120   0.77430   0.01267  Uiso   1.00
C198   C     0.56640   0.00330   0.82190   0.01267  Uiso   1.00
C199   C     0.75280   0.04760   0.53620   0.01267  Uiso   1.00
C200   C     0.73410   0.04900   0.56640   0.01267  Uiso   1.00
C201   C     0.71050   0.07130   0.57270   0.01267  Uiso   1.00
C202   C     0.74020   0.02500   0.58950   0.01267  Uiso   1.00
C203   C     0.72310   0.02720   0.61870   0.01267  Uiso   1.00
C204   C     0.69600   0.07230   0.60230   0.01267  Uiso   1.00
C205   C     0.71270   0.00320   0.88580   0.01267  Uiso   1.00
C206   C     0.71650   0.02340   0.85740   0.01267  Uiso   1.00
C207   C     0.70560   0.05430   0.85760   0.01267  Uiso   1.00
C208   C     0.72540   0.01260   0.83020   0.01267  Uiso   1.00
C209   C     0.70910   0.07300   0.83030   0.01267  Uiso   1.00
C210   C     0.72810   0.03530   0.80330   0.01267  Uiso   1.00
C211   C     0.40620   0.97560   0.88530   0.01267  Uiso   1.00
C212   C     0.38830   0.98510   0.91360   0.01267  Uiso   1.00
C213   C     0.40300   0.99750   0.94040   0.01267  Uiso   1.00
C214   C     0.35540   0.98230   0.91600   0.01267  Uiso   1.00
C215   C     0.38620   0.00530   0.96750   0.01267  Uiso   1.00
C216   C     0.33980   0.99030   0.94340   0.01267  Uiso   1.00
C217   C     0.22560   0.52040   0.78640   0.01267  Uiso   1.00
C218   C     0.19590   0.50180   0.78520   0.01267  Uiso   1.00
C219   C     0.17300   0.50760   0.76120   0.01267  Uiso   1.00
C220   C     0.18880   0.47880   0.80800   0.01267  Uiso   1.00
C221   C     0.14490   0.49000   0.76080   0.01267  Uiso   1.00
C222   C     0.15880   0.46310   0.80550   0.01267  Uiso   1.00
C223   C     0.29150   0.65260   0.82880   0.01267  Uiso   1.00
C224   C     0.28220   0.68170   0.84700   0.01267  Uiso   1.00
C225   C     0.28830   0.68490   0.87900   0.01267  Uiso   1.00
C226   C     0.26870   0.70760   0.83150   0.01267  Uiso   1.00
C227   C     0.27970   0.71350   0.89410   0.01267  Uiso   1.00
C228   C     0.25970   0.73470   0.84890   0.01267  Uiso   1.00
C229   C     0.37730   0.53530   0.74040   0.01267  Uiso   1.00
C230   C     0.40480   0.51920   0.72440   0.01267  Uiso   1.00
C231   C     0.40570   0.51610   0.69160   0.01267  Uiso   1.00
C232   C     0.42930   0.50630   0.74230   0.01267  Uiso   1.00
C233   C     0.45390   0.49120   0.72570   0.01267  Uiso   1.00
C234   C     0.43360   0.50330   0.67810   0.01267  Uiso   1.00
C235   C     0.24720   0.54760   0.96380   0.01267  Uiso   1.00
C236   C     0.26590   0.54900   0.93360   0.01267  Uiso   1.00
C237   C     0.28950   0.57130   0.92730   0.01267  Uiso   1.00
C238   C     0.25980   0.52500   0.91050   0.01267  Uiso   1.00
C239   C     0.27690   0.52720   0.88130   0.01267  Uiso   1.00
C240   C     0.30400   0.57230   0.89770   0.01267  Uiso   1.00
C241   C     0.28730   0.50320   0.61420   0.01267  Uiso   1.00
C242   C     0.28350   0.52340   0.64260   0.01267  Uiso   1.00
C243   C     0.29440   0.55430   0.64240   0.01267  Uiso   1.00
C244   C     0.27460   0.51260   0.66980   0.01267  Uiso   1.00
C245   C     0.29090   0.57300   0.66970   0.01267  Uiso   1.00
C246   C     0.27190   0.53530   0.69670   0.01267  Uiso   1.00
C247   C     0.59380   0.47560   0.61470   0.01267  Uiso   1.00
C248   C     0.61170   0.48510   0.58640   0.01267  Uiso   1.00
C249   C     0.59700   0.49750   0.55960   0.01267  Uiso   1.00
C250   C     0.64460   0.48230   0.58400   0.01267  Uiso   1.00
C251   C     0.61380   0.50530   0.53250   0.01267  Uiso   1.00
C252   C     0.66020   0.49030   0.55660   0.01267  Uiso   1.00
C253   C     0.72560   0.97960   0.21360   0.01267  Uiso   1.00
C254   C     0.69590   0.99820   0.21480   0.01267  Uiso   1.00
C255   C     0.67300   0.99240   0.23880   0.01267  Uiso   1.00
C256   C     0.68880   0.02120   0.19200   0.01267  Uiso   1.00
C257   C     0.64490   0.01000   0.23920   0.01267  Uiso   1.00
C258   C     0.65880   0.03690   0.19450   0.01267  Uiso   1.00
C259   C     0.79150   0.84740   0.17120   0.01267  Uiso   1.00
C260   C     0.78220   0.81830   0.15300   0.01267  Uiso   1.00
C261   C     0.78830   0.81510   0.12100   0.01267  Uiso   1.00
C262   C     0.76870   0.79240   0.16850   0.01267  Uiso   1.00
C263   C     0.77970   0.78650   0.10590   0.01267  Uiso   1.00
C264   C     0.75970   0.76530   0.15110   0.01267  Uiso   1.00
C265   C     0.87730   0.96470   0.25960   0.01267  Uiso   1.00
C266   C     0.90480   0.98080   0.27560   0.01267  Uiso   1.00
C267   C     0.90570   0.98390   0.30840   0.01267  Uiso   1.00
C268   C     0.92930   0.99370   0.25770   0.01267  Uiso   1.00
C269   C     0.95390   0.00880   0.27430   0.01267  Uiso   1.00
C270   C     0.93360   0.99670   0.32190   0.01267  Uiso   1.00
C271   C     0.74720   0.95240   0.03620   0.01267  Uiso   1.00
C272   C     0.76590   0.95100   0.06640   0.01267  Uiso   1.00
C273   C     0.78950   0.92870   0.07270   0.01267  Uiso   1.00
C274   C     0.75980   0.97500   0.08950   0.01267  Uiso   1.00
C275   C     0.77690   0.97280   0.11870   0.01267  Uiso   1.00
C276   C     0.80400   0.92770   0.10230   0.01267  Uiso   1.00
C277   C     0.78730   0.99680   0.38580   0.01267  Uiso   1.00
C278   C     0.78350   0.97660   0.35740   0.01267  Uiso   1.00
C279   C     0.79440   0.94570   0.35760   0.01267  Uiso   1.00
C280   C     0.77460   0.98740   0.33020   0.01267  Uiso   1.00
C281   C     0.79090   0.92700   0.33030   0.01267  Uiso   1.00
C282   C     0.77190   0.96470   0.30330   0.01267  Uiso   1.00
C283   C     0.09380   0.02440   0.38530   0.01267  Uiso   1.00
C284   C     0.11170   0.01490   0.41360   0.01267  Uiso   1.00
C285   C     0.09700   0.00250   0.44040   0.01267  Uiso   1.00
C286   C     0.14460   0.01770   0.41600   0.01267  Uiso   1.00
C287   C     0.11380   0.99470   0.46750   0.01267  Uiso   1.00
C288   C     0.16020   0.00970   0.44340   0.01267  Uiso   1.00
C289   C     0.28640   0.27440   0.47960   0.01267  Uiso   1.00
C290   C     0.28520   0.30410   0.49820   0.01267  Uiso   1.00
C291   C     0.26120   0.32700   0.49240   0.01267  Uiso   1.00
C292   C     0.30800   0.31120   0.52120   0.01267  Uiso   1.00
C293   C     0.26080   0.35510   0.51000   0.01267  Uiso   1.00
C294   C     0.30550   0.34120   0.53690   0.01267  Uiso   1.00
C295   C     0.32880   0.20850   0.34740   0.01267  Uiso   1.00
C296   C     0.34700   0.21780   0.31830   0.01267  Uiso   1.00
C297   C     0.37900   0.21170   0.31510   0.01267  Uiso   1.00
C298   C     0.33150   0.23130   0.29240   0.01267  Uiso   1.00
C299   C     0.39410   0.22030   0.28650   0.01267  Uiso   1.00
C300   C     0.34890   0.24030   0.26530   0.01267  Uiso   1.00
C301   C     0.24040   0.12270   0.46470   0.01267  Uiso   1.00
C302   C     0.22440   0.09520   0.48080   0.01267  Uiso   1.00
C303   C     0.19160   0.09430   0.48390   0.01267  Uiso   1.00
C304   C     0.24230   0.07070   0.49370   0.01267  Uiso   1.00
C305   C     0.22570   0.04610   0.50880   0.01267  Uiso   1.00
C306   C     0.17810   0.06640   0.49670   0.01267  Uiso   1.00
C307   C     0.46380   0.25280   0.45240   0.01267  Uiso   1.00
C308   C     0.43360   0.23410   0.45100   0.01267  Uiso   1.00
C309   C     0.42730   0.21050   0.42870   0.01267  Uiso   1.00
C310   C     0.41050   0.24020   0.47500   0.01267  Uiso   1.00
C311   C     0.38130   0.22310   0.47280   0.01267  Uiso   1.00
C312   C     0.39770   0.19600   0.42770   0.01267  Uiso   1.00
C313   C     0.11420   0.21270   0.49680   0.01267  Uiso   1.00
C314   C     0.14260   0.21650   0.47660   0.01267  Uiso   1.00
C315   C     0.14240   0.20560   0.44570   0.01267  Uiso   1.00
C316   C     0.16980   0.22540   0.48740   0.01267  Uiso   1.00
C317   C     0.16970   0.20910   0.42700   0.01267  Uiso   1.00
C318   C     0.19670   0.22810   0.46470   0.01267  Uiso   1.00
C319   C     0.11470   0.90620   0.52440   0.01267  Uiso   1.00
C320   C     0.08640   0.88830   0.51490   0.01267  Uiso   1.00
C321   C     0.05960   0.90300   0.50250   0.01267  Uiso   1.00
C322   C     0.08400   0.85540   0.51770   0.01267  Uiso   1.00
C323   C     0.03250   0.88620   0.49470   0.01267  Uiso   1.00
C324   C     0.05660   0.83980   0.50970   0.01267  Uiso   1.00
C325   C     0.71360   0.77440   0.02040   0.01267  Uiso   1.00
C326   C     0.71480   0.80410   0.00180   0.01267  Uiso   1.00
C327   C     0.73880   0.82700   0.00760   0.01267  Uiso   1.00
C328   C     0.69200   0.81120   0.97880   0.01267  Uiso   1.00
C329   C     0.73920   0.85510   0.99000   0.01267  Uiso   1.00
C330   C     0.69450   0.84120   0.96310   0.01267  Uiso   1.00
C331   C     0.67120   0.70850   0.15260   0.01267  Uiso   1.00
C332   C     0.65300   0.71780   0.18170   0.01267  Uiso   1.00
C333   C     0.62100   0.71170   0.18490   0.01267  Uiso   1.00
C334   C     0.66850   0.73130   0.20760   0.01267  Uiso   1.00
C335   C     0.60590   0.72030   0.21350   0.01267  Uiso   1.00
C336   C     0.65110   0.74030   0.23470   0.01267  Uiso   1.00
C337   C     0.75960   0.62270   0.03530   0.01267  Uiso   1.00
C338   C     0.77560   0.59520   0.01920   0.01267  Uiso   1.00
C339   C     0.80840   0.59430   0.01610   0.01267  Uiso   1.00
C340   C     0.75770   0.57070   0.00630   0.01267  Uiso   1.00
C341   C     0.77430   0.54610   0.99120   0.01267  Uiso   1.00
C342   C     0.82190   0.56640   0.00330   0.01267  Uiso   1.00
C343   C     0.53620   0.75280   0.04760   0.01267  Uiso   1.00
C344   C     0.56640   0.73410   0.04900   0.01267  Uiso   1.00
C345   C     0.57270   0.71050   0.07130   0.01267  Uiso   1.00
C346   C     0.58950   0.74020   0.02500   0.01267  Uiso   1.00
C347   C     0.61870   0.72310   0.02720   0.01267  Uiso   1.00
C348   C     0.60230   0.69600   0.07230   0.01267  Uiso   1.00
C349   C     0.88580   0.71270   0.00320   0.01267  Uiso   1.00
C350   C     0.85740   0.71650   0.02340   0.01267  Uiso   1.00
C351   C     0.85760   0.70560   0.05430   0.01267  Uiso   1.00
C352   C     0.83020   0.72540   0.01260   0.01267  Uiso   1.00
C353   C     0.83030   0.70910   0.07300   0.01267  Uiso   1.00
C354   C     0.80330   0.72810   0.03530   0.01267  Uiso   1.00
C355   C     0.88530   0.40620   0.97560   0.01267  Uiso   1.00
C356   C     0.91360   0.38830   0.98510   0.01267  Uiso   1.00
C357   C     0.94040   0.40300   0.99750   0.01267  Uiso   1.00
C358   C     0.91600   0.35540   0.98230   0.01267  Uiso   1.00
C359   C     0.96750   0.38620   0.00530   0.01267  Uiso   1.00
C360   C     0.94340   0.33980   0.99030   0.01267  Uiso   1.00
C361   C     0.78640   0.22560   0.52040   0.01267  Uiso   1.00
C362   C     0.78520   0.19590   0.50180   0.01267  Uiso   1.00
C363   C     0.76120   0.17300   0.50760   0.01267  Uiso   1.00
C364   C     0.80800   0.18880   0.47880   0.01267  Uiso   1.00
C365   C     0.76080   0.14490   0.49000   0.01267  Uiso   1.00
C366   C     0.80550   0.15880   0.46310   0.01267  Uiso   1.00
C367   C     0.82880   0.29150   0.65260   0.01267  Uiso   1.00
C368   C     0.84700   0.28220   0.68170   0.01267  Uiso   1.00
C369   C     0.87900   0.28830   0.68490   0.01267  Uiso   1.00
C370   C     0.83150   0.26870   0.70760   0.01267  Uiso   1.00
C371   C     0.89410   0.27970   0.71350   0.01267  Uiso   1.00
C372   C     0.84890   0.25970   0.73470   0.01267  Uiso   1.00
C373   C     0.74040   0.37730   0.53530   0.01267  Uiso   1.00
C374   C     0.72440   0.40480   0.51920   0.01267  Uiso   1.00
C375   C     0.69160   0.40570   0.51610   0.01267  Uiso   1.00
C376   C     0.74230   0.42930   0.50630   0.01267  Uiso   1.00
C377   C     0.72570   0.45390   0.49120   0.01267  Uiso   1.00
C378   C     0.67810   0.43360   0.50330   0.01267  Uiso   1.00
C379   C     0.96380   0.24720   0.54760   0.01267  Uiso   1.00
C380   C     0.93360   0.26590   0.54900   0.01267  Uiso   1.00
C381   C     0.92730   0.28950   0.57130   0.01267  Uiso   1.00
C382   C     0.91050   0.25980   0.52500   0.01267  Uiso   1.00
C383   C     0.88130   0.27690   0.52720   0.01267  Uiso   1.00
C384   C     0.89770   0.30400   0.57230   0.01267  Uiso   1.00
C385   C     0.61420   0.28730   0.50320   0.01267  Uiso   1.00
C386   C     0.64260   0.28350   0.52340   0.01267  Uiso   1.00
C387   C     0.64240   0.29440   0.55430   0.01267  Uiso   1.00
C388   C     0.66980   0.27460   0.51260   0.01267  Uiso   1.00
C389   C     0.66970   0.29090   0.57300   0.01267  Uiso   1.00
C390   C     0.69670   0.27190   0.53530   0.01267  Uiso   1.00
C391   C     0.61470   0.59380   0.47560   0.01267  Uiso   1.00
C392   C     0.58640   0.61170   0.48510   0.01267  Uiso   1.00
C393   C     0.55960   0.59700   0.49750   0.01267  Uiso   1.00
C394   C     0.58400   0.64460   0.48230   0.01267  Uiso   1.00
C395   C     0.53250   0.61380   0.50530   0.01267  Uiso   1.00
C396   C     0.55660   0.66020   0.49030   0.01267  Uiso   1.00
C397   C     0.21360   0.72560   0.97960   0.01267  Uiso   1.00
C398   C     0.21480   0.69590   0.99820   0.01267  Uiso   1.00
C399   C     0.23880   0.67300   0.99240   0.01267  Uiso   1.00
C400   C     0.19200   0.68880   0.02120   0.01267  Uiso   1.00
C401   C     0.23920   0.64490   0.01000   0.01267  Uiso   1.00
C402   C     0.19450   0.65880   0.03690   0.01267  Uiso   1.00
C403   C     0.17120   0.79150   0.84740   0.01267  Uiso   1.00
C404   C     0.15300   0.78220   0.81830   0.01267  Uiso   1.00
C405   C     0.12100   0.78830   0.81510   0.01267  Uiso   1.00
C406   C     0.16850   0.76870   0.79240   0.01267  Uiso   1.00
C407   C     0.10590   0.77970   0.78650   0.01267  Uiso   1.00
C408   C     0.15110   0.75970   0.76530   0.01267  Uiso   1.00
C409   C     0.25960   0.87730   0.96470   0.01267  Uiso   1.00
C410   C     0.27560   0.90480   0.98080   0.01267  Uiso   1.00
C411   C     0.30840   0.90570   0.98390   0.01267  Uiso   1.00
C412   C     0.25770   0.92930   0.99370   0.01267  Uiso   1.00
C413   C     0.27430   0.95390   0.00880   0.01267  Uiso   1.00
C414   C     0.32190   0.93360   0.99670   0.01267  Uiso   1.00
C415   C     0.03620   0.74720   0.95240   0.01267  Uiso   1.00
C416   C     0.06640   0.76590   0.95100   0.01267  Uiso   1.00
C417   C     0.07270   0.78950   0.92870   0.01267  Uiso   1.00
C418   C     0.08950   0.75980   0.97500   0.01267  Uiso   1.00
C419   C     0.11870   0.77690   0.97280   0.01267  Uiso   1.00
C420   C     0.10230   0.80400   0.92770   0.01267  Uiso   1.00
C421   C     0.38580   0.78730   0.99680   0.01267  Uiso   1.00
C422   C     0.35740   0.78350   0.97660   0.01267  Uiso   1.00
C423   C     0.35760   0.79440   0.94570   0.01267  Uiso   1.00
C424   C     0.33020   0.77460   0.98740   0.01267  Uiso   1.00
C425   C     0.33030   0.79090   0.92700   0.01267  Uiso   1.00
C426   C     0.30330   0.77190   0.96470   0.01267  Uiso   1.00
C427   C     0.38530   0.09380   0.02440   0.01267  Uiso   1.00
C428   C     0.41360   0.11170   0.01490   0.01267  Uiso   1.00
C429   C     0.44040   0.09700   0.00250   0.01267  Uiso   1.00
C430   C     0.41600   0.14460   0.01770   0.01267  Uiso   1.00
C431   C     0.46750   0.11380   0.99470   0.01267  Uiso   1.00
C432   C     0.44340   0.16020   0.00970   0.01267  Uiso   1.00
C433   C     0.52040   0.71360   0.72560   0.01267  Uiso   1.00
C434   C     0.50180   0.71480   0.69590   0.01267  Uiso   1.00
C435   C     0.50760   0.73880   0.67300   0.01267  Uiso   1.00
C436   C     0.47880   0.69200   0.68880   0.01267  Uiso   1.00
C437   C     0.49000   0.73920   0.64490   0.01267  Uiso   1.00
C438   C     0.46310   0.69450   0.65880   0.01267  Uiso   1.00
C439   C     0.65260   0.67120   0.79150   0.01267  Uiso   1.00
C440   C     0.68170   0.65300   0.78220   0.01267  Uiso   1.00
C441   C     0.68490   0.62100   0.78830   0.01267  Uiso   1.00
C442   C     0.70760   0.66850   0.76870   0.01267  Uiso   1.00
C443   C     0.71350   0.60590   0.77970   0.01267  Uiso   1.00
C444   C     0.73470   0.65110   0.75970   0.01267  Uiso   1.00
C445   C     0.53530   0.75960   0.87730   0.01267  Uiso   1.00
C446   C     0.51920   0.77560   0.90480   0.01267  Uiso   1.00
C447   C     0.51610   0.80840   0.90570   0.01267  Uiso   1.00
C448   C     0.50630   0.75770   0.92930   0.01267  Uiso   1.00
C449   C     0.49120   0.77430   0.95390   0.01267  Uiso   1.00
C450   C     0.50330   0.82190   0.93360   0.01267  Uiso   1.00
C451   C     0.54760   0.53620   0.74720   0.01267  Uiso   1.00
C452   C     0.54900   0.56640   0.76590   0.01267  Uiso   1.00
C453   C     0.57130   0.57270   0.78950   0.01267  Uiso   1.00
C454   C     0.52500   0.58950   0.75980   0.01267  Uiso   1.00
C455   C     0.52720   0.61870   0.77690   0.01267  Uiso   1.00
C456   C     0.57230   0.60230   0.80400   0.01267  Uiso   1.00
C457   C     0.50320   0.88580   0.78730   0.01267  Uiso   1.00
C458   C     0.52340   0.85740   0.78350   0.01267  Uiso   1.00
C459   C     0.55430   0.85760   0.79440   0.01267  Uiso   1.00
C460   C     0.51260   0.83020   0.77460   0.01267  Uiso   1.00
C461   C     0.57300   0.83030   0.79090   0.01267  Uiso   1.00
C462   C     0.53530   0.80330   0.77190   0.01267  Uiso   1.00
C463   C     0.47560   0.88530   0.09380   0.01267  Uiso   1.00
C464   C     0.48510   0.91360   0.11170   0.01267  Uiso   1.00
C465   C     0.49750   0.94040   0.09700   0.01267  Uiso   1.00
C466   C     0.48230   0.91600   0.14460   0.01267  Uiso   1.00
C467   C     0.50530   0.96750   0.11380   0.01267  Uiso   1.00
C468   C     0.49030   0.94340   0.16020   0.01267  Uiso   1.00
C469   C     0.97960   0.28640   0.22560   0.01267  Uiso   1.00
C470   C     0.99820   0.28520   0.19590   0.01267  Uiso   1.00
C471   C     0.99240   0.26120   0.17300   0.01267  Uiso   1.00
C472   C     0.02120   0.30800   0.18880   0.01267  Uiso   1.00
C473   C     0.01000   0.26080   0.14490   0.01267  Uiso   1.00
C474   C     0.03690   0.30550   0.15880   0.01267  Uiso   1.00
C475   C     0.84740   0.32880   0.29150   0.01267  Uiso   1.00
C476   C     0.81830   0.34700   0.28220   0.01267  Uiso   1.00
C477   C     0.81510   0.37900   0.28830   0.01267  Uiso   1.00
C478   C     0.79240   0.33150   0.26870   0.01267  Uiso   1.00
C479   C     0.78650   0.39410   0.27970   0.01267  Uiso   1.00
C480   C     0.76530   0.34890   0.25970   0.01267  Uiso   1.00
C481   C     0.96470   0.24040   0.37730   0.01267  Uiso   1.00
C482   C     0.98080   0.22440   0.40480   0.01267  Uiso   1.00
C483   C     0.98390   0.19160   0.40570   0.01267  Uiso   1.00
C484   C     0.99370   0.24230   0.42930   0.01267  Uiso   1.00
C485   C     0.00880   0.22570   0.45390   0.01267  Uiso   1.00
C486   C     0.99670   0.17810   0.43360   0.01267  Uiso   1.00
C487   C     0.95240   0.46380   0.24720   0.01267  Uiso   1.00
C488   C     0.95100   0.43360   0.26590   0.01267  Uiso   1.00
C489   C     0.92870   0.42730   0.28950   0.01267  Uiso   1.00
C490   C     0.97500   0.41050   0.25980   0.01267  Uiso   1.00
C491   C     0.97280   0.38130   0.27690   0.01267  Uiso   1.00
C492   C     0.92770   0.39770   0.30400   0.01267  Uiso   1.00
C493   C     0.99680   0.11420   0.28730   0.01267  Uiso   1.00
C494   C     0.97660   0.14260   0.28350   0.01267  Uiso   1.00
C495   C     0.94570   0.14240   0.29440   0.01267  Uiso   1.00
C496   C     0.98740   0.16980   0.27460   0.01267  Uiso   1.00
C497   C     0.92700   0.16970   0.29090   0.01267  Uiso   1.00
C498   C     0.96470   0.19670   0.27190   0.01267  Uiso   1.00
C499   C     0.02440   0.11470   0.59380   0.01267  Uiso   1.00
C500   C     0.01490   0.08640   0.61170   0.01267  Uiso   1.00
C501   C     0.00250   0.05960   0.59700   0.01267  Uiso   1.00
C502   C     0.01770   0.08400   0.64460   0.01267  Uiso   1.00
C503   C     0.99470   0.03250   0.61380   0.01267  Uiso   1.00
C504   C     0.00970   0.05660   0.66020   0.01267  Uiso   1.00
C505   C     0.47960   0.21360   0.77440   0.01267  Uiso   1.00
C506   C     0.49820   0.21480   0.80410   0.01267  Uiso   1.00
C507   C     0.49240   0.23880   0.82700   0.01267  Uiso   1.00
C508   C     0.52120   0.19200   0.81120   0.01267  Uiso   1.00
C509   C     0.51000   0.23920   0.85510   0.01267  Uiso   1.00
C510   C     0.53690   0.19450   0.84120   0.01267  Uiso   1.00
C511   C     0.34740   0.17120   0.70850   0.01267  Uiso   1.00
C512   C     0.31830   0.15300   0.71780   0.01267  Uiso   1.00
C513   C     0.31510   0.12100   0.71170   0.01267  Uiso   1.00
C514   C     0.29240   0.16850   0.73130   0.01267  Uiso   1.00
C515   C     0.28650   0.10590   0.72030   0.01267  Uiso   1.00
C516   C     0.26530   0.15110   0.74030   0.01267  Uiso   1.00
C517   C     0.46470   0.25960   0.62270   0.01267  Uiso   1.00
C518   C     0.48080   0.27560   0.59520   0.01267  Uiso   1.00
C519   C     0.48390   0.30840   0.59430   0.01267  Uiso   1.00
C520   C     0.49370   0.25770   0.57070   0.01267  Uiso   1.00
C521   C     0.50880   0.27430   0.54610   0.01267  Uiso   1.00
C522   C     0.49670   0.32190   0.56640   0.01267  Uiso   1.00
C523   C     0.45240   0.03620   0.75280   0.01267  Uiso   1.00
C524   C     0.45100   0.06640   0.73410   0.01267  Uiso   1.00
C525   C     0.42870   0.07270   0.71050   0.01267  Uiso   1.00
C526   C     0.47500   0.08950   0.74020   0.01267  Uiso   1.00
C527   C     0.47280   0.11870   0.72310   0.01267  Uiso   1.00
C528   C     0.42770   0.10230   0.69600   0.01267  Uiso   1.00
C529   C     0.49680   0.38580   0.71270   0.01267  Uiso   1.00
C530   C     0.47660   0.35740   0.71650   0.01267  Uiso   1.00
C531   C     0.44570   0.35760   0.70560   0.01267  Uiso   1.00
C532   C     0.48740   0.33020   0.72540   0.01267  Uiso   1.00
C533   C     0.42700   0.33030   0.70910   0.01267  Uiso   1.00
C534   C     0.46470   0.30330   0.72810   0.01267  Uiso   1.00
C535   C     0.52440   0.38530   0.40620   0.01267  Uiso   1.00
C536   C     0.51490   0.41360   0.38830   0.01267  Uiso   1.00
C537   C     0.50250   0.44040   0.40300   0.01267  Uiso   1.00
C538   C     0.51770   0.41600   0.35540   0.01267  Uiso   1.00
C539   C     0.49470   0.46750   0.38620   0.01267  Uiso   1.00
C540   C     0.50970   0.44340   0.33980   0.01267  Uiso   1.00
C541   C     0.02040   0.78640   0.27440   0.01267  Uiso   1.00
C542   C     0.00180   0.78520   0.30410   0.01267  Uiso   1.00
C543   C     0.00760   0.76120   0.32700   0.01267  Uiso   1.00
C544   C     0.97880   0.80800   0.31120   0.01267  Uiso   1.00
C545   C     0.99000   0.76080   0.35510   0.01267  Uiso   1.00
C546   C     0.96310   0.80550   0.34120   0.01267  Uiso   1.00
C547   C     0.15260   0.82880   0.20850   0.01267  Uiso   1.00
C548   C     0.18170   0.84700   0.21780   0.01267  Uiso   1.00
C549   C     0.18490   0.87900   0.21170   0.01267  Uiso   1.00
C550   C     0.20760   0.83150   0.23130   0.01267  Uiso   1.00
C551   C     0.21350   0.89410   0.22030   0.01267  Uiso   1.00
C552   C     0.23470   0.84890   0.24030   0.01267  Uiso   1.00
C553   C     0.03530   0.74040   0.12270   0.01267  Uiso   1.00
C554   C     0.01920   0.72440   0.09520   0.01267  Uiso   1.00
C555   C     0.01610   0.69160   0.09430   0.01267  Uiso   1.00
C556   C     0.00630   0.74230   0.07070   0.01267  Uiso   1.00
C557   C     0.99120   0.72570   0.04610   0.01267  Uiso   1.00
C558   C     0.00330   0.67810   0.06640   0.01267  Uiso   1.00
C559   C     0.04760   0.96380   0.25280   0.01267  Uiso   1.00
C560   C     0.04900   0.93360   0.23410   0.01267  Uiso   1.00
C561   C     0.07130   0.92730   0.21050   0.01267  Uiso   1.00
C562   C     0.02500   0.91050   0.24020   0.01267  Uiso   1.00
C563   C     0.02720   0.88130   0.22310   0.01267  Uiso   1.00
C564   C     0.07230   0.89770   0.19600   0.01267  Uiso   1.00
C565   C     0.00320   0.61420   0.21270   0.01267  Uiso   1.00
C566   C     0.02340   0.64260   0.21650   0.01267  Uiso   1.00
C567   C     0.05430   0.64240   0.20560   0.01267  Uiso   1.00
C568   C     0.01260   0.66980   0.22540   0.01267  Uiso   1.00
C569   C     0.07300   0.66970   0.20910   0.01267  Uiso   1.00
C570   C     0.03530   0.69670   0.22810   0.01267  Uiso   1.00
C571   C     0.97560   0.61470   0.90620   0.01267  Uiso   1.00
C572   C     0.98510   0.58640   0.88830   0.01267  Uiso   1.00
C573   C     0.99750   0.55960   0.90300   0.01267  Uiso   1.00
C574   C     0.98230   0.58400   0.85540   0.01267  Uiso   1.00
C575   C     0.00530   0.53250   0.88620   0.01267  Uiso   1.00
C576   C     0.99030   0.55660   0.83980   0.01267  Uiso   1.00
C577   C     0.72560   0.52040   0.71360   0.01267  Uiso   1.00
C578   C     0.69590   0.50180   0.71480   0.01267  Uiso   1.00
C579   C     0.67300   0.50760   0.73880   0.01267  Uiso   1.00
C580   C     0.68880   0.47880   0.69200   0.01267  Uiso   1.00
C581   C     0.64490   0.49000   0.73920   0.01267  Uiso   1.00
C582   C     0.65880   0.46310   0.69450   0.01267  Uiso   1.00
C583   C     0.79150   0.65260   0.67120   0.01267  Uiso   1.00
C584   C     0.78220   0.68170   0.65300   0.01267  Uiso   1.00
C585   C     0.78830   0.68490   0.62100   0.01267  Uiso   1.00
C586   C     0.76870   0.70760   0.66850   0.01267  Uiso   1.00
C587   C     0.77970   0.71350   0.60590   0.01267  Uiso   1.00
C588   C     0.75970   0.73470   0.65110   0.01267  Uiso   1.00
C589   C     0.87730   0.53530   0.75960   0.01267  Uiso   1.00
C590   C     0.90480   0.51920   0.77560   0.01267  Uiso   1.00
C591   C     0.90570   0.51610   0.80840   0.01267  Uiso   1.00
C592   C     0.92930   0.50630   0.75770   0.01267  Uiso   1.00
C593   C     0.95390   0.49120   0.77430   0.01267  Uiso   1.00
C594   C     0.93360   0.50330   0.82190   0.01267  Uiso   1.00
C595   C     0.74720   0.54760   0.53620   0.01267  Uiso   1.00
C596   C     0.76590   0.54900   0.56640   0.01267  Uiso   1.00
C597   C     0.78950   0.57130   0.57270   0.01267  Uiso   1.00
C598   C     0.75980   0.52500   0.58950   0.01267  Uiso   1.00
C599   C     0.77690   0.52720   0.61870   0.01267  Uiso   1.00
C600   C     0.80400   0.57230   0.60230   0.01267  Uiso   1.00
C601   C     0.78730   0.50320   0.88580   0.01267  Uiso   1.00
C602   C     0.78350   0.52340   0.85740   0.01267  Uiso   1.00
C603   C     0.79440   0.55430   0.85760   0.01267  Uiso   1.00
C604   C     0.77460   0.51260   0.83020   0.01267  Uiso   1.00
C605   C     0.79090   0.57300   0.83030   0.01267  Uiso   1.00
C606   C     0.77190   0.53530   0.80330   0.01267  Uiso   1.00
C607   C     0.09380   0.47560   0.88530   0.01267  Uiso   1.00
C608   C     0.11170   0.48510   0.91360   0.01267  Uiso   1.00
C609   C     0.09700   0.49750   0.94040   0.01267  Uiso   1.00
C610   C     0.14460   0.48230   0.91600   0.01267  Uiso   1.00
C611   C     0.11380   0.50530   0.96750   0.01267  Uiso   1.00
C612   C     0.16020   0.49030   0.94340   0.01267  Uiso   1.00
C613   C     0.22560   0.97960   0.28640   0.01267  Uiso   1.00
C614   C     0.19590   0.99820   0.28520   0.01267  Uiso   1.00
C615   C     0.17300   0.99240   0.26120   0.01267  Uiso   1.00
C616   C     0.18880   0.02120   0.30800   0.01267  Uiso   1.00
C617   C     0.14490   0.01000   0.26080   0.01267  Uiso   1.00
C618   C     0.15880   0.03690   0.30550   0.01267  Uiso   1.00
C619   C     0.29150   0.84740   0.32880   0.01267  Uiso   1.00
C620   C     0.28220   0.81830   0.34700   0.01267  Uiso   1.00
C621   C     0.28830   0.81510   0.37900   0.01267  Uiso   1.00
C622   C     0.26870   0.79240   0.33150   0.01267  Uiso   1.00
C623   C     0.27970   0.78650   0.39410   0.01267  Uiso   1.00
C624   C     0.25970   0.76530   0.34890   0.01267  Uiso   1.00
C625   C     0.37730   0.96470   0.24040   0.01267  Uiso   1.00
C626   C     0.40480   0.98080   0.22440   0.01267  Uiso   1.00
C627   C     0.40570   0.98390   0.19160   0.01267  Uiso   1.00
C628   C     0.42930   0.99370   0.24230   0.01267  Uiso   1.00
C629   C     0.45390   0.00880   0.22570   0.01267  Uiso   1.00
C630   C     0.43360   0.99670   0.17810   0.01267  Uiso   1.00
C631   C     0.24720   0.95240   0.46380   0.01267  Uiso   1.00
C632   C     0.26590   0.95100   0.43360   0.01267  Uiso   1.00
C633   C     0.28950   0.92870   0.42730   0.01267  Uiso   1.00
C634   C     0.25980   0.97500   0.41050   0.01267  Uiso   1.00
C635   C     0.27690   0.97280   0.38130   0.01267  Uiso   1.00
C636   C     0.30400   0.92770   0.39770   0.01267  Uiso   1.00
C637   C     0.28730   0.99680   0.11420   0.01267  Uiso   1.00
C638   C     0.28350   0.97660   0.14260   0.01267  Uiso   1.00
C639   C     0.29440   0.94570   0.14240   0.01267  Uiso   1.00
C640   C     0.27460   0.98740   0.16980   0.01267  Uiso   1.00
C641   C     0.29090   0.92700   0.16970   0.01267  Uiso   1.00
C642   C     0.27190   0.96470   0.19670   0.01267  Uiso   1.00
C643   C     0.59380   0.02440   0.11470   0.01267  Uiso   1.00
C644   C     0.61170   0.01490   0.08640   0.01267  Uiso   1.00
C645   C     0.59700   0.00250   0.05960   0.01267  Uiso   1.00
C646   C     0.64460   0.01770   0.08400   0.01267  Uiso   1.00
C647   C     0.61380   0.99470   0.03250   0.01267  Uiso   1.00
C648   C     0.66020   0.00970   0.05660   0.01267  Uiso   1.00
C649   C     0.77440   0.47960   0.21360   0.01267  Uiso   1.00
C650   C     0.80410   0.49820   0.21480   0.01267  Uiso   1.00
C651   C     0.82700   0.49240   0.23880   0.01267  Uiso   1.00
C652   C     0.81120   0.52120   0.19200   0.01267  Uiso   1.00
C653   C     0.85510   0.51000   0.23920   0.01267  Uiso   1.00
C654   C     0.84120   0.53690   0.19450   0.01267  Uiso   1.00
C655   C     0.70850   0.34740   0.17120   0.01267  Uiso   1.00
C656   C     0.71780   0.31830   0.15300   0.01267  Uiso   1.00
C657   C     0.71170   0.31510   0.12100   0.01267  Uiso   1.00
C658   C     0.73130   0.29240   0.16850   0.01267  Uiso   1.00
C659   C     0.72030   0.28650   0.10590   0.01267  Uiso   1.00
C660   C     0.74030   0.26530   0.15110   0.01267  Uiso   1.00
C661   C     0.62270   0.46470   0.25960   0.01267  Uiso   1.00
C662   C     0.59520   0.48080   0.27560   0.01267  Uiso   1.00
C663   C     0.59430   0.48390   0.30840   0.01267  Uiso   1.00
C664   C     0.57070   0.49370   0.25770   0.01267  Uiso   1.00
C665   C     0.54610   0.50880   0.27430   0.01267  Uiso   1.00
C666   C     0.56640   0.49670   0.32190   0.01267  Uiso   1.00
C667   C     0.75280   0.45240   0.03620   0.01267  Uiso   1.00
C668   C     0.73410   0.45100   0.06640   0.01267  Uiso   1.00
C669   C     0.71050   0.42870   0.07270   0.01267  Uiso   1.00
C670   C     0.74020   0.47500   0.08950   0.01267  Uiso   1.00
C671   C     0.72310   0.47280   0.11870   0.01267  Uiso   1.00
C672   C     0.69600   0.42770   0.10230   0.01267  Uiso   1.00
C673   C     0.71270   0.49680   0.38580   0.01267  Uiso   1.00
C674   C     0.71650   0.47660   0.35740   0.01267  Uiso   1.00
C675   C     0.70560   0.44570   0.35760   0.01267  Uiso   1.00
C676   C     0.72540   0.48740   0.33020   0.01267  Uiso   1.00
C677   C     0.70910   0.42700   0.33030   0.01267  Uiso   1.00
C678   C     0.72810   0.46470   0.30330   0.01267  Uiso   1.00
C679   C     0.40620   0.52440   0.38530   0.01267  Uiso   1.00
C680   C     0.38830   0.51490   0.41360   0.01267  Uiso   1.00
C681   C     0.40300   0.50250   0.44040   0.01267  Uiso   1.00
C682   C     0.35540   0.51770   0.41600   0.01267  Uiso   1.00
C683   C     0.38620   0.49470   0.46750   0.01267  Uiso   1.00
C684   C     0.33980   0.50970   0.44340   0.01267  Uiso   1.00
C685   C     0.27440   0.02040   0.78640   0.01267  Uiso   1.00
C686   C     0.30410   0.00180   0.78520   0.01267  Uiso   1.00
C687   C     0.32700   0.00760   0.76120   0.01267  Uiso   1.00
C688   C     0.31120   0.97880   0.80800   0.01267  Uiso   1.00
C689   C     0.35510   0.99000   0.76080   0.01267  Uiso   1.00
C690   C     0.34120   0.96310   0.80550   0.01267  Uiso   1.00
C691   C     0.20850   0.15260   0.82880   0.01267  Uiso   1.00
C692   C     0.21780   0.18170   0.84700   0.01267  Uiso   1.00
C693   C     0.21170   0.18490   0.87900   0.01267  Uiso   1.00
C694   C     0.23130   0.20760   0.83150   0.01267  Uiso   1.00
C695   C     0.22030   0.21350   0.89410   0.01267  Uiso   1.00
C696   C     0.24030   0.23470   0.84890   0.01267  Uiso   1.00
C697   C     0.12270   0.03530   0.74040   0.01267  Uiso   1.00
C698   C     0.09520   0.01920   0.72440   0.01267  Uiso   1.00
C699   C     0.09430   0.01610   0.69160   0.01267  Uiso   1.00
C700   C     0.07070   0.00630   0.74230   0.01267  Uiso   1.00
C701   C     0.04610   0.99120   0.72570   0.01267  Uiso   1.00
C702   C     0.06640   0.00330   0.67810   0.01267  Uiso   1.00
C703   C     0.25280   0.04760   0.96380   0.01267  Uiso   1.00
C704   C     0.23410   0.04900   0.93360   0.01267  Uiso   1.00
C705   C     0.21050   0.07130   0.92730   0.01267  Uiso   1.00
C706   C     0.24020   0.02500   0.91050   0.01267  Uiso   1.00
C707   C     0.22310   0.02720   0.88130   0.01267  Uiso   1.00
C708   C     0.19600   0.07230   0.89770   0.01267  Uiso   1.00
C709   C     0.21270   0.00320   0.61420   0.01267  Uiso   1.00
C710   C     0.21650   0.02340   0.64260   0.01267  Uiso   1.00
C711   C     0.20560   0.05430   0.64240   0.01267  Uiso   1.00
C712   C     0.22540   0.01260   0.66980   0.01267  Uiso   1.00
C713   C     0.20910   0.07300   0.66970   0.01267  Uiso   1.00
C714   C     0.22810   0.03530   0.69670   0.01267  Uiso   1.00
C715   C     0.90620   0.97560   0.61470   0.01267  Uiso   1.00
C716   C     0.88830   0.98510   0.58640   0.01267  Uiso   1.00
C717   C     0.90300   0.99750   0.55960   0.01267  Uiso   1.00
C718   C     0.85540   0.98230   0.58400   0.01267  Uiso   1.00
C719   C     0.88620   0.00530   0.53250   0.01267  Uiso   1.00
C720   C     0.83980   0.99030   0.55660   0.01267  Uiso   1.00
C721   C     0.71360   0.72560   0.52040   0.01267  Uiso   1.00
C722   C     0.71480   0.69590   0.50180   0.01267  Uiso   1.00
C723   C     0.73880   0.67300   0.50760   0.01267  Uiso   1.00
C724   C     0.69200   0.68880   0.47880   0.01267  Uiso   1.00
C725   C     0.73920   0.64490   0.49000   0.01267  Uiso   1.00
C726   C     0.69450   0.65880   0.46310   0.01267  Uiso   1.00
C727   C     0.67120   0.79150   0.65260   0.01267  Uiso   1.00
C728   C     0.65300   0.78220   0.68170   0.01267  Uiso   1.00
C729   C     0.62100   0.78830   0.68490   0.01267  Uiso   1.00
C730   C     0.66850   0.76870   0.70760   0.01267  Uiso   1.00
C731   C     0.60590   0.77970   0.71350   0.01267  Uiso   1.00
C732   C     0.65110   0.75970   0.73470   0.01267  Uiso   1.00
C733   C     0.75960   0.87730   0.53530   0.01267  Uiso   1.00
C734   C     0.77560   0.90480   0.51920   0.01267  Uiso   1.00
C735   C     0.80840   0.90570   0.51610   0.01267  Uiso   1.00
C736   C     0.75770   0.92930   0.50630   0.01267  Uiso   1.00
C737   C     0.77430   0.95390   0.49120   0.01267  Uiso   1.00
C738   C     0.82190   0.93360   0.50330   0.01267  Uiso   1.00
C739   C     0.53620   0.74720   0.54760   0.01267  Uiso   1.00
C740   C     0.56640   0.76590   0.54900   0.01267  Uiso   1.00
C741   C     0.57270   0.78950   0.57130   0.01267  Uiso   1.00
C742   C     0.58950   0.75980   0.52500   0.01267  Uiso   1.00
C743   C     0.61870   0.77690   0.52720   0.01267  Uiso   1.00
C744   C     0.60230   0.80400   0.57230   0.01267  Uiso   1.00
C745   C     0.88580   0.78730   0.50320   0.01267  Uiso   1.00
C746   C     0.85740   0.78350   0.52340   0.01267  Uiso   1.00
C747   C     0.85760   0.79440   0.55430   0.01267  Uiso   1.00
C748   C     0.83020   0.77460   0.51260   0.01267  Uiso   1.00
C749   C     0.83030   0.79090   0.57300   0.01267  Uiso   1.00
C750   C     0.80330   0.77190   0.53530   0.01267  Uiso   1.00
C751   C     0.88530   0.09380   0.47560   0.01267  Uiso   1.00
C752   C     0.91360   0.11170   0.48510   0.01267  Uiso   1.00
C753   C     0.94040   0.09700   0.49750   0.01267  Uiso   1.00
C754   C     0.91600   0.14460   0.48230   0.01267  Uiso   1.00
C755   C     0.96750   0.11380   0.50530   0.01267  Uiso   1.00
C756   C     0.94340   0.16020   0.49030   0.01267  Uiso   1.00
C757   C     0.28640   0.22560   0.97960   0.01267  Uiso   1.00
C758   C     0.28520   0.19590   0.99820   0.01267  Uiso   1.00
C759   C     0.26120   0.17300   0.99240   0.01267  Uiso   1.00
C760   C     0.30800   0.18880   0.02120   0.01267  Uiso   1.00
C761   C     0.26080   0.14490   0.01000   0.01267  Uiso   1.00
C762   C     0.30550   0.15880   0.03690   0.01267  Uiso   1.00
C763   C     0.32880   0.29150   0.84740   0.01267  Uiso   1.00
C764   C     0.34700   0.28220   0.81830   0.01267  Uiso   1.00
C765   C     0.37900   0.28830   0.81510   0.01267  Uiso   1.00
C766   C     0.33150   0.26870   0.79240   0.01267  Uiso   1.00
C767   C     0.39410   0.27970   0.78650   0.01267  Uiso   1.00
C768   C     0.34890   0.25970   0.76530   0.01267  Uiso   1.00
C769   C     0.24040   0.37730   0.96470   0.01267  Uiso   1.00
C770   C     0.22440   0.40480   0.98080   0.01267  Uiso   1.00
C771   C     0.19160   0.40570   0.98390   0.01267  Uiso   1.00
C772   C     0.24230   0.42930   0.99370   0.01267  Uiso   1.00
C773   C     0.22570   0.45390   0.00880   0.01267  Uiso   1.00
C774   C     0.17810   0.43360   0.99670   0.01267  Uiso   1.00
C775   C     0.46380   0.24720   0.95240   0.01267  Uiso   1.00
C776   C     0.43360   0.26590   0.95100   0.01267  Uiso   1.00
C777   C     0.42730   0.28950   0.92870   0.01267  Uiso   1.00
C778   C     0.41050   0.25980   0.97500   0.01267  Uiso   1.00
C779   C     0.38130   0.27690   0.97280   0.01267  Uiso   1.00
C780   C     0.39770   0.30400   0.92770   0.01267  Uiso   1.00
C781   C     0.11420   0.28730   0.99680   0.01267  Uiso   1.00
C782   C     0.14260   0.28350   0.97660   0.01267  Uiso   1.00
C783   C     0.14240   0.29440   0.94570   0.01267  Uiso   1.00
C784   C     0.16980   0.27460   0.98740   0.01267  Uiso   1.00
C785   C     0.16970   0.29090   0.92700   0.01267  Uiso   1.00
C786   C     0.19670   0.27190   0.96470   0.01267  Uiso   1.00
C787   C     0.11470   0.59380   0.02440   0.01267  Uiso   1.00
C788   C     0.08640   0.61170   0.01490   0.01267  Uiso   1.00
C789   C     0.05960   0.59700   0.00250   0.01267  Uiso   1.00
C790   C     0.08400   0.64460   0.01770   0.01267  Uiso   1.00
C791   C     0.03250   0.61380   0.99470   0.01267  Uiso   1.00
C792   C     0.05660   0.66020   0.00970   0.01267  Uiso   1.00
C793   C     0.21360   0.77440   0.47960   0.01267  Uiso   1.00
C794   C     0.21480   0.80410   0.49820   0.01267  Uiso   1.00
C795   C     0.23880   0.82700   0.49240   0.01267  Uiso   1.00
C796   C     0.19200   0.81120   0.52120   0.01267  Uiso   1.00
C797   C     0.23920   0.85510   0.51000   0.01267  Uiso   1.00
C798   C     0.19450   0.84120   0.53690   0.01267  Uiso   1.00
C799   C     0.17120   0.70850   0.34740   0.01267  Uiso   1.00
C800   C     0.15300   0.71780   0.31830   0.01267  Uiso   1.00
C801   C     0.12100   0.71170   0.31510   0.01267  Uiso   1.00
C802   C     0.16850   0.73130   0.29240   0.01267  Uiso   1.00
C803   C     0.10590   0.72030   0.28650   0.01267  Uiso   1.00
C804   C     0.15110   0.74030   0.26530   0.01267  Uiso   1.00
C805   C     0.25960   0.62270   0.46470   0.01267  Uiso   1.00
C806   C     0.27560   0.59520   0.48080   0.01267  Uiso   1.00
C807   C     0.30840   0.59430   0.48390   0.01267  Uiso   1.00
C808   C     0.25770   0.57070   0.49370   0.01267  Uiso   1.00
C809   C     0.27430   0.54610   0.50880   0.01267  Uiso   1.00
C810   C     0.32190   0.56640   0.49670   0.01267  Uiso   1.00
C811   C     0.03620   0.75280   0.45240   0.01267  Uiso   1.00
C812   C     0.06640   0.73410   0.45100   0.01267  Uiso   1.00
C813   C     0.07270   0.71050   0.42870   0.01267  Uiso   1.00
C814   C     0.08950   0.74020   0.47500   0.01267  Uiso   1.00
C815   C     0.11870   0.72310   0.47280   0.01267  Uiso   1.00
C816   C     0.10230   0.69600   0.42770   0.01267  Uiso   1.00
C817   C     0.38580   0.71270   0.49680   0.01267  Uiso   1.00
C818   C     0.35740   0.71650   0.47660   0.01267  Uiso   1.00
C819   C     0.35760   0.70560   0.44570   0.01267  Uiso   1.00
C820   C     0.33020   0.72540   0.48740   0.01267  Uiso   1.00
C821   C     0.33030   0.70910   0.42700   0.01267  Uiso   1.00
C822   C     0.30330   0.72810   0.46470   0.01267  Uiso   1.00
C823   C     0.38530   0.40620   0.52440   0.01267  Uiso   1.00
C824   C     0.41360   0.38830   0.51490   0.01267  Uiso   1.00
C825   C     0.44040   0.40300   0.50250   0.01267  Uiso   1.00
C826   C     0.41600   0.35540   0.51770   0.01267  Uiso   1.00
C827   C     0.46750   0.38620   0.49470   0.01267  Uiso   1.00
C828   C     0.44340   0.33980   0.50970   0.01267  Uiso   1.00
C829   C     0.78640   0.27440   0.02040   0.01267  Uiso   1.00
C830   C     0.78520   0.30410   0.00180   0.01267  Uiso   1.00
C831   C     0.76120   0.32700   0.00760   0.01267  Uiso   1.00
C832   C     0.80800   0.31120   0.97880   0.01267  Uiso   1.00
C833   C     0.76080   0.35510   0.99000   0.01267  Uiso   1.00
C834   C     0.80550   0.34120   0.96310   0.01267  Uiso   1.00
C835   C     0.82880   0.20850   0.15260   0.01267  Uiso   1.00
C836   C     0.84700   0.21780   0.18170   0.01267  Uiso   1.00
C837   C     0.87900   0.21170   0.18490   0.01267  Uiso   1.00
C838   C     0.83150   0.23130   0.20760   0.01267  Uiso   1.00
C839   C     0.89410   0.22030   0.21350   0.01267  Uiso   1.00
C840   C     0.84890   0.24030   0.23470   0.01267  Uiso   1.00
C841   C     0.74040   0.12270   0.03530   0.01267  Uiso   1.00
C842   C     0.72440   0.09520   0.01920   0.01267  Uiso   1.00
C843   C     0.69160   0.09430   0.01610   0.01267  Uiso   1.00
C844   C     0.74230   0.07070   0.00630   0.01267  Uiso   1.00
C845   C     0.72570   0.04610   0.99120   0.01267  Uiso   1.00
C846   C     0.67810   0.06640   0.00330   0.01267  Uiso   1.00
C847   C     0.96380   0.25280   0.04760   0.01267  Uiso   1.00
C848   C     0.93360   0.23410   0.04900   0.01267  Uiso   1.00
C849   C     0.92730   0.21050   0.07130   0.01267  Uiso   1.00
C850   C     0.91050   0.24020   0.02500   0.01267  Uiso   1.00
C851   C     0.88130   0.22310   0.02720   0.01267  Uiso   1.00
C852   C     0.89770   0.19600   0.07230   0.01267  Uiso   1.00
C853   C     0.61420   0.21270   0.00320   0.01267  Uiso   1.00
C854   C     0.64260   0.21650   0.02340   0.01267  Uiso   1.00
C855   C     0.64240   0.20560   0.05430   0.01267  Uiso   1.00
C856   C     0.66980   0.22540   0.01260   0.01267  Uiso   1.00
C857   C     0.66970   0.20910   0.07300   0.01267  Uiso   1.00
C858   C     0.69670   0.22810   0.03530   0.01267  Uiso   1.00
C859   C     0.61470   0.90620   0.97560   0.01267  Uiso   1.00
C860   C     0.58640   0.88830   0.98510   0.01267  Uiso   1.00
C861   C     0.55960   0.90300   0.99750   0.01267  Uiso   1.00
C862   C     0.58400   0.85540   0.98230   0.01267  Uiso   1.00
C863   C     0.53250   0.88620   0.00530   0.01267  Uiso   1.00
C864   C     0.55660   0.83980   0.99030   0.01267  Uiso   1.00
N1     N     0.46140   0.29960   0.22910   0.01267  Uiso   1.00
N2     N     0.48260   0.30880   0.25160   0.01267  Uiso   1.00
N3     N     0.44600   0.27310   0.23850   0.01267  Uiso   1.00
N4     N     0.45750   0.26420   0.26709   0.01267  Uiso   1.00
N5     N     0.53220   0.28260   0.36260   0.01267  Uiso   1.00
N6     N     0.39420   0.31870   0.19320   0.01267  Uiso   1.00
N7     N     0.37370   0.34350   0.19590   0.01267  Uiso   1.00
N8     N     0.38100   0.29140   0.20250   0.01267  Uiso   1.00
N9     N     0.35060   0.29720   0.21280   0.01267  Uiso   1.00
N10    N     0.26130   0.37990   0.23450   0.01267  Uiso   1.00
N11    N     0.43770   0.24900   0.16480   0.01267  Uiso   1.00
N12    N     0.44670   0.22600   0.14440   0.01267  Uiso   1.00
N13    N     0.45010   0.27760   0.15440   0.01267  Uiso   1.00
N14    N     0.46700   0.27230   0.12780   0.01267  Uiso   1.00
N15    N     0.50870   0.19460   0.04290   0.01267  Uiso   1.00
N16    N     0.46530   0.49890   0.28620   0.01267  Uiso   1.00
N17    N     0.43970   0.50940   0.27130   0.01267  Uiso   1.00
N18    N     0.43080   0.48780   0.24920   0.01267  Uiso   1.00
N19    N     0.47340   0.46970   0.27400   0.01267  Uiso   1.00
N20    N     0.44960   0.37540   0.20170   0.01267  Uiso   1.00
N21    N     0.53040   0.14710   0.94440   0.01267  Uiso   1.00
N22    N     0.54194   0.16090   0.91780   0.01267  Uiso   1.00
N23    N     0.52000   0.11760   0.93780   0.01267  Uiso   1.00
N24    N     0.53840   0.14050   0.89337   0.01267  Uiso   1.00
N25    N     0.49840   0.02950   0.85470   0.01267  Uiso   1.00
N26    N     0.51110   0.06750   0.19840   0.01267  Uiso   1.00
N27    N     0.53570   0.08170   0.21210   0.01267  Uiso   1.00
N28    N     0.48550   0.08730   0.19840   0.01267  Uiso   1.00
N29    N     0.52770   0.11160   0.22100   0.01267  Uiso   1.00
N30    N     0.43650   0.19700   0.21930   0.01267  Uiso   1.00
N31    N     0.03860   0.70040   0.72910   0.01267  Uiso   1.00
N32    N     0.01740   0.69120   0.75160   0.01267  Uiso   1.00
N33    N     0.05400   0.72690   0.73850   0.01267  Uiso   1.00
N34    N     0.04250   0.73580   0.76709   0.01267  Uiso   1.00
N35    N     0.96780   0.71740   0.86260   0.01267  Uiso   1.00
N36    N     0.10580   0.68130   0.69320   0.01267  Uiso   1.00
N37    N     0.12630   0.65650   0.69590   0.01267  Uiso   1.00
N38    N     0.11900   0.70860   0.70250   0.01267  Uiso   1.00
N39    N     0.14940   0.70280   0.71280   0.01267  Uiso   1.00
N40    N     0.23870   0.62010   0.73450   0.01267  Uiso   1.00
N41    N     0.06230   0.75100   0.66480   0.01267  Uiso   1.00
N42    N     0.05330   0.77400   0.64440   0.01267  Uiso   1.00
N43    N     0.04990   0.72240   0.65440   0.01267  Uiso   1.00
N44    N     0.03300   0.72770   0.62780   0.01267  Uiso   1.00
N45    N     0.99130   0.80540   0.54290   0.01267  Uiso   1.00
N46    N     0.03470   0.50110   0.78620   0.01267  Uiso   1.00
N47    N     0.06030   0.49060   0.77130   0.01267  Uiso   1.00
N48    N     0.06920   0.51220   0.74920   0.01267  Uiso   1.00
N49    N     0.02660   0.53030   0.77400   0.01267  Uiso   1.00
N50    N     0.05040   0.62460   0.70170   0.01267  Uiso   1.00
N51    N     0.96960   0.85290   0.44440   0.01267  Uiso   1.00
N52    N     0.95806   0.83910   0.41780   0.01267  Uiso   1.00
N53    N     0.98000   0.88240   0.43780   0.01267  Uiso   1.00
N54    N     0.96160   0.85950   0.39337   0.01267  Uiso   1.00
N55    N     0.00160   0.97050   0.35470   0.01267  Uiso   1.00
N56    N     0.98890   0.93250   0.69840   0.01267  Uiso   1.00
N57    N     0.96430   0.91830   0.71210   0.01267  Uiso   1.00
N58    N     0.01450   0.91270   0.69840   0.01267  Uiso   1.00
N59    N     0.97230   0.88840   0.72100   0.01267  Uiso   1.00
N60    N     0.06350   0.80300   0.71930   0.01267  Uiso   1.00
N61    N     0.53860   0.79960   0.27090   0.01267  Uiso   1.00
N62    N     0.51740   0.80880   0.24840   0.01267  Uiso   1.00
N63    N     0.55400   0.77310   0.26150   0.01267  Uiso   1.00
N64    N     0.54250   0.76420   0.23291   0.01267  Uiso   1.00
N65    N     0.46780   0.78260   0.13740   0.01267  Uiso   1.00
N66    N     0.60580   0.81870   0.30680   0.01267  Uiso   1.00
N67    N     0.62630   0.84350   0.30410   0.01267  Uiso   1.00
N68    N     0.61900   0.79140   0.29750   0.01267  Uiso   1.00
N69    N     0.64940   0.79720   0.28720   0.01267  Uiso   1.00
N70    N     0.73870   0.87990   0.26550   0.01267  Uiso   1.00
N71    N     0.56230   0.74900   0.33520   0.01267  Uiso   1.00
N72    N     0.55330   0.72600   0.35560   0.01267  Uiso   1.00
N73    N     0.54990   0.77760   0.34560   0.01267  Uiso   1.00
N74    N     0.53300   0.77230   0.37220   0.01267  Uiso   1.00
N75    N     0.49130   0.69460   0.45710   0.01267  Uiso   1.00
N76    N     0.53470   0.99890   0.21380   0.01267  Uiso   1.00
N77    N     0.56030   0.00940   0.22870   0.01267  Uiso   1.00
N78    N     0.56920   0.98780   0.25080   0.01267  Uiso   1.00
N79    N     0.52660   0.96970   0.22600   0.01267  Uiso   1.00
N80    N     0.55040   0.87540   0.29830   0.01267  Uiso   1.00
N81    N     0.46960   0.64710   0.55560   0.01267  Uiso   1.00
N82    N     0.45806   0.66090   0.58220   0.01267  Uiso   1.00
N83    N     0.48000   0.61760   0.56220   0.01267  Uiso   1.00
N84    N     0.46160   0.64050   0.60663   0.01267  Uiso   1.00
N85    N     0.50160   0.52950   0.64530   0.01267  Uiso   1.00
N86    N     0.48890   0.56750   0.30160   0.01267  Uiso   1.00
N87    N     0.46430   0.58170   0.28790   0.01267  Uiso   1.00
N88    N     0.51450   0.58730   0.30160   0.01267  Uiso   1.00
N89    N     0.47230   0.61160   0.27900   0.01267  Uiso   1.00
N90    N     0.56350   0.69700   0.28070   0.01267  Uiso   1.00
N91    N     0.96140   0.20040   0.77090   0.01267  Uiso   1.00
N92    N     0.98260   0.19120   0.74840   0.01267  Uiso   1.00
N93    N     0.94600   0.22690   0.76150   0.01267  Uiso   1.00
N94    N     0.95750   0.23580   0.73291   0.01267  Uiso   1.00
N95    N     0.03220   0.21740   0.63740   0.01267  Uiso   1.00
N96    N     0.89420   0.18130   0.80680   0.01267  Uiso   1.00
N97    N     0.87370   0.15650   0.80410   0.01267  Uiso   1.00
N98    N     0.88100   0.20860   0.79750   0.01267  Uiso   1.00
N99    N     0.85060   0.20280   0.78720   0.01267  Uiso   1.00
N100   N     0.76130   0.12010   0.76550   0.01267  Uiso   1.00
N101   N     0.93770   0.25100   0.83520   0.01267  Uiso   1.00
N102   N     0.94670   0.27400   0.85560   0.01267  Uiso   1.00
N103   N     0.95010   0.22240   0.84560   0.01267  Uiso   1.00
N104   N     0.96700   0.22770   0.87220   0.01267  Uiso   1.00
N105   N     0.00870   0.30540   0.95710   0.01267  Uiso   1.00
N106   N     0.96530   0.00110   0.71380   0.01267  Uiso   1.00
N107   N     0.93970   0.99060   0.72870   0.01267  Uiso   1.00
N108   N     0.93080   0.01220   0.75080   0.01267  Uiso   1.00
N109   N     0.97340   0.03030   0.72600   0.01267  Uiso   1.00
N110   N     0.94960   0.12460   0.79830   0.01267  Uiso   1.00
N111   N     0.03040   0.35290   0.05560   0.01267  Uiso   1.00
N112   N     0.04194   0.33910   0.08220   0.01267  Uiso   1.00
N113   N     0.02000   0.38240   0.06220   0.01267  Uiso   1.00
N114   N     0.03840   0.35950   0.10663   0.01267  Uiso   1.00
N115   N     0.99840   0.47050   0.14530   0.01267  Uiso   1.00
N116   N     0.01110   0.43250   0.80160   0.01267  Uiso   1.00
N117   N     0.03570   0.41830   0.78790   0.01267  Uiso   1.00
N118   N     0.98550   0.41270   0.80160   0.01267  Uiso   1.00
N119   N     0.02770   0.38840   0.77900   0.01267  Uiso   1.00
N120   N     0.93650   0.30300   0.78070   0.01267  Uiso   1.00
N121   N     0.22910   0.46140   0.29960   0.01267  Uiso   1.00
N122   N     0.25160   0.48260   0.30880   0.01267  Uiso   1.00
N123   N     0.23850   0.44600   0.27310   0.01267  Uiso   1.00
N124   N     0.26709   0.45750   0.26420   0.01267  Uiso   1.00
N125   N     0.36260   0.53220   0.28260   0.01267  Uiso   1.00
N126   N     0.19320   0.39420   0.31870   0.01267  Uiso   1.00
N127   N     0.19590   0.37370   0.34350   0.01267  Uiso   1.00
N128   N     0.20250   0.38100   0.29140   0.01267  Uiso   1.00
N129   N     0.21280   0.35060   0.29720   0.01267  Uiso   1.00
N130   N     0.23450   0.26130   0.37990   0.01267  Uiso   1.00
N131   N     0.16480   0.43770   0.24900   0.01267  Uiso   1.00
N132   N     0.14440   0.44670   0.22600   0.01267  Uiso   1.00
N133   N     0.15440   0.45010   0.27760   0.01267  Uiso   1.00
N134   N     0.12780   0.46700   0.27230   0.01267  Uiso   1.00
N135   N     0.04290   0.50870   0.19460   0.01267  Uiso   1.00
N136   N     0.28620   0.46530   0.49890   0.01267  Uiso   1.00
N137   N     0.27130   0.43970   0.50940   0.01267  Uiso   1.00
N138   N     0.24920   0.43080   0.48780   0.01267  Uiso   1.00
N139   N     0.27400   0.47340   0.46970   0.01267  Uiso   1.00
N140   N     0.20170   0.44960   0.37540   0.01267  Uiso   1.00
N141   N     0.94440   0.53040   0.14710   0.01267  Uiso   1.00
N142   N     0.91780   0.54194   0.16090   0.01267  Uiso   1.00
N143   N     0.93780   0.52000   0.11760   0.01267  Uiso   1.00
N144   N     0.89337   0.53840   0.14050   0.01267  Uiso   1.00
N145   N     0.85470   0.49840   0.02950   0.01267  Uiso   1.00
N146   N     0.19840   0.51110   0.06750   0.01267  Uiso   1.00
N147   N     0.21210   0.53570   0.08170   0.01267  Uiso   1.00
N148   N     0.19840   0.48550   0.08730   0.01267  Uiso   1.00
N149   N     0.22100   0.52770   0.11160   0.01267  Uiso   1.00
N150   N     0.21930   0.43650   0.19700   0.01267  Uiso   1.00
N151   N     0.72910   0.03860   0.70040   0.01267  Uiso   1.00
N152   N     0.75160   0.01740   0.69120   0.01267  Uiso   1.00
N153   N     0.73850   0.05400   0.72690   0.01267  Uiso   1.00
N154   N     0.76709   0.04250   0.73580   0.01267  Uiso   1.00
N155   N     0.86260   0.96780   0.71740   0.01267  Uiso   1.00
N156   N     0.69320   0.10580   0.68130   0.01267  Uiso   1.00
N157   N     0.69590   0.12630   0.65650   0.01267  Uiso   1.00
N158   N     0.70250   0.11900   0.70860   0.01267  Uiso   1.00
N159   N     0.71280   0.14940   0.70280   0.01267  Uiso   1.00
N160   N     0.73450   0.23870   0.62010   0.01267  Uiso   1.00
N161   N     0.66480   0.06230   0.75100   0.01267  Uiso   1.00
N162   N     0.64440   0.05330   0.77400   0.01267  Uiso   1.00
N163   N     0.65440   0.04990   0.72240   0.01267  Uiso   1.00
N164   N     0.62780   0.03300   0.72770   0.01267  Uiso   1.00
N165   N     0.54290   0.99130   0.80540   0.01267  Uiso   1.00
N166   N     0.78620   0.03470   0.50110   0.01267  Uiso   1.00
N167   N     0.77130   0.06030   0.49060   0.01267  Uiso   1.00
N168   N     0.74920   0.06920   0.51220   0.01267  Uiso   1.00
N169   N     0.77400   0.02660   0.53030   0.01267  Uiso   1.00
N170   N     0.70170   0.05040   0.62460   0.01267  Uiso   1.00
N171   N     0.44440   0.96960   0.85290   0.01267  Uiso   1.00
N172   N     0.41780   0.95806   0.83910   0.01267  Uiso   1.00
N173   N     0.43780   0.98000   0.88240   0.01267  Uiso   1.00
N174   N     0.39337   0.96160   0.85950   0.01267  Uiso   1.00
N175   N     0.35470   0.00160   0.97050   0.01267  Uiso   1.00
N176   N     0.69840   0.98890   0.93250   0.01267  Uiso   1.00
N177   N     0.71210   0.96430   0.91830   0.01267  Uiso   1.00
N178   N     0.69840   0.01450   0.91270   0.01267  Uiso   1.00
N179   N     0.72100   0.97230   0.88840   0.01267  Uiso   1.00
N180   N     0.71930   0.06350   0.80300   0.01267  Uiso   1.00
N181   N     0.27090   0.53860   0.79960   0.01267  Uiso   1.00
N182   N     0.24840   0.51740   0.80880   0.01267  Uiso   1.00
N183   N     0.26150   0.55400   0.77310   0.01267  Uiso   1.00
N184   N     0.23291   0.54250   0.76420   0.01267  Uiso   1.00
N185   N     0.13740   0.46780   0.78260   0.01267  Uiso   1.00
N186   N     0.30680   0.60580   0.81870   0.01267  Uiso   1.00
N187   N     0.30410   0.62630   0.84350   0.01267  Uiso   1.00
N188   N     0.29750   0.61900   0.79140   0.01267  Uiso   1.00
N189   N     0.28720   0.64940   0.79720   0.01267  Uiso   1.00
N190   N     0.26550   0.73870   0.87990   0.01267  Uiso   1.00
N191   N     0.33520   0.56230   0.74900   0.01267  Uiso   1.00
N192   N     0.35560   0.55330   0.72600   0.01267  Uiso   1.00
N193   N     0.34560   0.54990   0.77760   0.01267  Uiso   1.00
N194   N     0.37220   0.53300   0.77230   0.01267  Uiso   1.00
N195   N     0.45710   0.49130   0.69460   0.01267  Uiso   1.00
N196   N     0.21380   0.53470   0.99890   0.01267  Uiso   1.00
N197   N     0.22870   0.56030   0.00940   0.01267  Uiso   1.00
N198   N     0.25080   0.56920   0.98780   0.01267  Uiso   1.00
N199   N     0.22600   0.52660   0.96970   0.01267  Uiso   1.00
N200   N     0.29830   0.55040   0.87540   0.01267  Uiso   1.00
N201   N     0.55560   0.46960   0.64710   0.01267  Uiso   1.00
N202   N     0.58220   0.45806   0.66090   0.01267  Uiso   1.00
N203   N     0.56220   0.48000   0.61760   0.01267  Uiso   1.00
N204   N     0.60663   0.46160   0.64050   0.01267  Uiso   1.00
N205   N     0.64530   0.50160   0.52950   0.01267  Uiso   1.00
N206   N     0.30160   0.48890   0.56750   0.01267  Uiso   1.00
N207   N     0.28790   0.46430   0.58170   0.01267  Uiso   1.00
N208   N     0.30160   0.51450   0.58730   0.01267  Uiso   1.00
N209   N     0.27900   0.47230   0.61160   0.01267  Uiso   1.00
N210   N     0.28070   0.56350   0.69700   0.01267  Uiso   1.00
N211   N     0.77090   0.96140   0.20040   0.01267  Uiso   1.00
N212   N     0.74840   0.98260   0.19120   0.01267  Uiso   1.00
N213   N     0.76150   0.94600   0.22690   0.01267  Uiso   1.00
N214   N     0.73291   0.95750   0.23580   0.01267  Uiso   1.00
N215   N     0.63740   0.03220   0.21740   0.01267  Uiso   1.00
N216   N     0.80680   0.89420   0.18130   0.01267  Uiso   1.00
N217   N     0.80410   0.87370   0.15650   0.01267  Uiso   1.00
N218   N     0.79750   0.88100   0.20860   0.01267  Uiso   1.00
N219   N     0.78720   0.85060   0.20280   0.01267  Uiso   1.00
N220   N     0.76550   0.76130   0.12010   0.01267  Uiso   1.00
N221   N     0.83520   0.93770   0.25100   0.01267  Uiso   1.00
N222   N     0.85560   0.94670   0.27400   0.01267  Uiso   1.00
N223   N     0.84560   0.95010   0.22240   0.01267  Uiso   1.00
N224   N     0.87220   0.96700   0.22770   0.01267  Uiso   1.00
N225   N     0.95710   0.00870   0.30540   0.01267  Uiso   1.00
N226   N     0.71380   0.96530   0.00110   0.01267  Uiso   1.00
N227   N     0.72870   0.93970   0.99060   0.01267  Uiso   1.00
N228   N     0.75080   0.93080   0.01220   0.01267  Uiso   1.00
N229   N     0.72600   0.97340   0.03030   0.01267  Uiso   1.00
N230   N     0.79830   0.94960   0.12460   0.01267  Uiso   1.00
N231   N     0.05560   0.03040   0.35290   0.01267  Uiso   1.00
N232   N     0.08220   0.04194   0.33910   0.01267  Uiso   1.00
N233   N     0.06220   0.02000   0.38240   0.01267  Uiso   1.00
N234   N     0.10663   0.03840   0.35950   0.01267  Uiso   1.00
N235   N     0.14530   0.99840   0.47050   0.01267  Uiso   1.00
N236   N     0.80160   0.01110   0.43250   0.01267  Uiso   1.00
N237   N     0.78790   0.03570   0.41830   0.01267  Uiso   1.00
N238   N     0.80160   0.98550   0.41270   0.01267  Uiso   1.00
N239   N     0.77900   0.02770   0.38840   0.01267  Uiso   1.00
N240   N     0.78070   0.93650   0.30300   0.01267  Uiso   1.00
N241   N     0.29960   0.22910   0.46140   0.01267  Uiso   1.00
N242   N     0.30880   0.25160   0.48260   0.01267  Uiso   1.00
N243   N     0.27310   0.23850   0.44600   0.01267  Uiso   1.00
N244   N     0.26420   0.26709   0.45750   0.01267  Uiso   1.00
N245   N     0.28260   0.36260   0.53220   0.01267  Uiso   1.00
N246   N     0.31870   0.19320   0.39420   0.01267  Uiso   1.00
N247   N     0.34350   0.19590   0.37370   0.01267  Uiso   1.00
N248   N     0.29140   0.20250   0.38100   0.01267  Uiso   1.00
N249   N     0.29720   0.21280   0.35060   0.01267  Uiso   1.00
N250   N     0.37990   0.23450   0.26130   0.01267  Uiso   1.00
N251   N     0.24900   0.16480   0.43770   0.01267  Uiso   1.00
N252   N     0.22600   0.14440   0.44670   0.01267  Uiso   1.00
N253   N     0.27760   0.15440   0.45010   0.01267  Uiso   1.00
N254   N     0.27230   0.12780   0.46700   0.01267  Uiso   1.00
N255   N     0.19460   0.04290   0.50870   0.01267  Uiso   1.00
N256   N     0.49890   0.28620   0.46530   0.01267  Uiso   1.00
N257   N     0.50940   0.27130   0.43970   0.01267  Uiso   1.00
N258   N     0.48780   0.24920   0.43080   0.01267  Uiso   1.00
N259   N     0.46970   0.27400   0.47340   0.01267  Uiso   1.00
N260   N     0.37540   0.20170   0.44960   0.01267  Uiso   1.00
N261   N     0.14710   0.94440   0.53040   0.01267  Uiso   1.00
N262   N     0.16090   0.91780   0.54194   0.01267  Uiso   1.00
N263   N     0.11760   0.93780   0.52000   0.01267  Uiso   1.00
N264   N     0.14050   0.89337   0.53840   0.01267  Uiso   1.00
N265   N     0.02950   0.85470   0.49840   0.01267  Uiso   1.00
N266   N     0.06750   0.19840   0.51110   0.01267  Uiso   1.00
N267   N     0.08170   0.21210   0.53570   0.01267  Uiso   1.00
N268   N     0.08730   0.19840   0.48550   0.01267  Uiso   1.00
N269   N     0.11160   0.22100   0.52770   0.01267  Uiso   1.00
N270   N     0.19700   0.21930   0.43650   0.01267  Uiso   1.00
N271   N     0.70040   0.72910   0.03860   0.01267  Uiso   1.00
N272   N     0.69120   0.75160   0.01740   0.01267  Uiso   1.00
N273   N     0.72690   0.73850   0.05400   0.01267  Uiso   1.00
N274   N     0.73580   0.76709   0.04250   0.01267  Uiso   1.00
N275   N     0.71740   0.86260   0.96780   0.01267  Uiso   1.00
N276   N     0.68130   0.69320   0.10580   0.01267  Uiso   1.00
N277   N     0.65650   0.69590   0.12630   0.01267  Uiso   1.00
N278   N     0.70860   0.70250   0.11900   0.01267  Uiso   1.00
N279   N     0.70280   0.71280   0.14940   0.01267  Uiso   1.00
N280   N     0.62010   0.73450   0.23870   0.01267  Uiso   1.00
N281   N     0.75100   0.66480   0.06230   0.01267  Uiso   1.00
N282   N     0.77400   0.64440   0.05330   0.01267  Uiso   1.00
N283   N     0.72240   0.65440   0.04990   0.01267  Uiso   1.00
N284   N     0.72770   0.62780   0.03300   0.01267  Uiso   1.00
N285   N     0.80540   0.54290   0.99130   0.01267  Uiso   1.00
N286   N     0.50110   0.78620   0.03470   0.01267  Uiso   1.00
N287   N     0.49060   0.77130   0.06030   0.01267  Uiso   1.00
N288   N     0.51220   0.74920   0.06920   0.01267  Uiso   1.00
N289   N     0.53030   0.77400   0.02660   0.01267  Uiso   1.00
N290   N     0.62460   0.70170   0.05040   0.01267  Uiso   1.00
N291   N     0.85290   0.44440   0.96960   0.01267  Uiso   1.00
N292   N     0.83910   0.41780   0.95806   0.01267  Uiso   1.00
N293   N     0.88240   0.43780   0.98000   0.01267  Uiso   1.00
N294   N     0.85950   0.39337   0.96160   0.01267  Uiso   1.00
N295   N     0.97050   0.35470   0.00160   0.01267  Uiso   1.00
N296   N     0.93250   0.69840   0.98890   0.01267  Uiso   1.00
N297   N     0.91830   0.71210   0.96430   0.01267  Uiso   1.00
N298   N     0.91270   0.69840   0.01450   0.01267  Uiso   1.00
N299   N     0.88840   0.72100   0.97230   0.01267  Uiso   1.00
N300   N     0.80300   0.71930   0.06350   0.01267  Uiso   1.00
N301   N     0.79960   0.27090   0.53860   0.01267  Uiso   1.00
N302   N     0.80880   0.24840   0.51740   0.01267  Uiso   1.00
N303   N     0.77310   0.26150   0.55400   0.01267  Uiso   1.00
N304   N     0.76420   0.23291   0.54250   0.01267  Uiso   1.00
N305   N     0.78260   0.13740   0.46780   0.01267  Uiso   1.00
N306   N     0.81870   0.30680   0.60580   0.01267  Uiso   1.00
N307   N     0.84350   0.30410   0.62630   0.01267  Uiso   1.00
N308   N     0.79140   0.29750   0.61900   0.01267  Uiso   1.00
N309   N     0.79720   0.28720   0.64940   0.01267  Uiso   1.00
N310   N     0.87990   0.26550   0.73870   0.01267  Uiso   1.00
N311   N     0.74900   0.33520   0.56230   0.01267  Uiso   1.00
N312   N     0.72600   0.35560   0.55330   0.01267  Uiso   1.00
N313   N     0.77760   0.34560   0.54990   0.01267  Uiso   1.00
N314   N     0.77230   0.37220   0.53300   0.01267  Uiso   1.00
N315   N     0.69460   0.45710   0.49130   0.01267  Uiso   1.00
N316   N     0.99890   0.21380   0.53470   0.01267  Uiso   1.00
N317   N     0.00940   0.22870   0.56030   0.01267  Uiso   1.00
N318   N     0.98780   0.25080   0.56920   0.01267  Uiso   1.00
N319   N     0.96970   0.22600   0.52660   0.01267  Uiso   1.00
N320   N     0.87540   0.29830   0.55040   0.01267  Uiso   1.00
N321   N     0.64710   0.55560   0.46960   0.01267  Uiso   1.00
N322   N     0.66090   0.58220   0.45806   0.01267  Uiso   1.00
N323   N     0.61760   0.56220   0.48000   0.01267  Uiso   1.00
N324   N     0.64050   0.60663   0.46160   0.01267  Uiso   1.00
N325   N     0.52950   0.64530   0.50160   0.01267  Uiso   1.00
N326   N     0.56750   0.30160   0.48890   0.01267  Uiso   1.00
N327   N     0.58170   0.28790   0.46430   0.01267  Uiso   1.00
N328   N     0.58730   0.30160   0.51450   0.01267  Uiso   1.00
N329   N     0.61160   0.27900   0.47230   0.01267  Uiso   1.00
N330   N     0.69700   0.28070   0.56350   0.01267  Uiso   1.00
N331   N     0.20040   0.77090   0.96140   0.01267  Uiso   1.00
N332   N     0.19120   0.74840   0.98260   0.01267  Uiso   1.00
N333   N     0.22690   0.76150   0.94600   0.01267  Uiso   1.00
N334   N     0.23580   0.73291   0.95750   0.01267  Uiso   1.00
N335   N     0.21740   0.63740   0.03220   0.01267  Uiso   1.00
N336   N     0.18130   0.80680   0.89420   0.01267  Uiso   1.00
N337   N     0.15650   0.80410   0.87370   0.01267  Uiso   1.00
N338   N     0.20860   0.79750   0.88100   0.01267  Uiso   1.00
N339   N     0.20280   0.78720   0.85060   0.01267  Uiso   1.00
N340   N     0.12010   0.76550   0.76130   0.01267  Uiso   1.00
N341   N     0.25100   0.83520   0.93770   0.01267  Uiso   1.00
N342   N     0.27400   0.85560   0.94670   0.01267  Uiso   1.00
N343   N     0.22240   0.84560   0.95010   0.01267  Uiso   1.00
N344   N     0.22770   0.87220   0.96700   0.01267  Uiso   1.00
N345   N     0.30540   0.95710   0.00870   0.01267  Uiso   1.00
N346   N     0.00110   0.71380   0.96530   0.01267  Uiso   1.00
N347   N     0.99060   0.72870   0.93970   0.01267  Uiso   1.00
N348   N     0.01220   0.75080   0.93080   0.01267  Uiso   1.00
N349   N     0.03030   0.72600   0.97340   0.01267  Uiso   1.00
N350   N     0.12460   0.79830   0.94960   0.01267  Uiso   1.00
N351   N     0.35290   0.05560   0.03040   0.01267  Uiso   1.00
N352   N     0.33910   0.08220   0.04194   0.01267  Uiso   1.00
N353   N     0.38240   0.06220   0.02000   0.01267  Uiso   1.00
N354   N     0.35950   0.10663   0.03840   0.01267  Uiso   1.00
N355   N     0.47050   0.14530   0.99840   0.01267  Uiso   1.00
N356   N     0.43250   0.80160   0.01110   0.01267  Uiso   1.00
N357   N     0.41830   0.78790   0.03570   0.01267  Uiso   1.00
N358   N     0.41270   0.80160   0.98550   0.01267  Uiso   1.00
N359   N     0.38840   0.77900   0.02770   0.01267  Uiso   1.00
N360   N     0.30300   0.78070   0.93650   0.01267  Uiso   1.00
N361   N     0.53860   0.70040   0.77090   0.01267  Uiso   1.00
N362   N     0.51740   0.69120   0.74840   0.01267  Uiso   1.00
N363   N     0.55400   0.72690   0.76150   0.01267  Uiso   1.00
N364   N     0.54250   0.73580   0.73291   0.01267  Uiso   1.00
N365   N     0.46780   0.71740   0.63740   0.01267  Uiso   1.00
N366   N     0.60580   0.68130   0.80680   0.01267  Uiso   1.00
N367   N     0.62630   0.65650   0.80410   0.01267  Uiso   1.00
N368   N     0.61900   0.70860   0.79750   0.01267  Uiso   1.00
N369   N     0.64940   0.70280   0.78720   0.01267  Uiso   1.00
N370   N     0.73870   0.62010   0.76550   0.01267  Uiso   1.00
N371   N     0.56230   0.75100   0.83520   0.01267  Uiso   1.00
N372   N     0.55330   0.77400   0.85560   0.01267  Uiso   1.00
N373   N     0.54990   0.72240   0.84560   0.01267  Uiso   1.00
N374   N     0.53300   0.72770   0.87220   0.01267  Uiso   1.00
N375   N     0.49130   0.80540   0.95710   0.01267  Uiso   1.00
N376   N     0.53470   0.50110   0.71380   0.01267  Uiso   1.00
N377   N     0.56030   0.49060   0.72870   0.01267  Uiso   1.00
N378   N     0.56920   0.51220   0.75080   0.01267  Uiso   1.00
N379   N     0.52660   0.53030   0.72600   0.01267  Uiso   1.00
N380   N     0.55040   0.62460   0.79830   0.01267  Uiso   1.00
N381   N     0.46960   0.85290   0.05560   0.01267  Uiso   1.00
N382   N     0.45806   0.83910   0.08220   0.01267  Uiso   1.00
N383   N     0.48000   0.88240   0.06220   0.01267  Uiso   1.00
N384   N     0.46160   0.85950   0.10663   0.01267  Uiso   1.00
N385   N     0.50160   0.97050   0.14530   0.01267  Uiso   1.00
N386   N     0.48890   0.93250   0.80160   0.01267  Uiso   1.00
N387   N     0.46430   0.91830   0.78790   0.01267  Uiso   1.00
N388   N     0.51450   0.91270   0.80160   0.01267  Uiso   1.00
N389   N     0.47230   0.88840   0.77900   0.01267  Uiso   1.00
N390   N     0.56350   0.80300   0.78070   0.01267  Uiso   1.00
N391   N     0.96140   0.29960   0.27090   0.01267  Uiso   1.00
N392   N     0.98260   0.30880   0.24840   0.01267  Uiso   1.00
N393   N     0.94600   0.27310   0.26150   0.01267  Uiso   1.00
N394   N     0.95750   0.26420   0.23291   0.01267  Uiso   1.00
N395   N     0.03220   0.28260   0.13740   0.01267  Uiso   1.00
N396   N     0.89420   0.31870   0.30680   0.01267  Uiso   1.00
N397   N     0.87370   0.34350   0.30410   0.01267  Uiso   1.00
N398   N     0.88100   0.29140   0.29750   0.01267  Uiso   1.00
N399   N     0.85060   0.29720   0.28720   0.01267  Uiso   1.00
N400   N     0.76130   0.37990   0.26550   0.01267  Uiso   1.00
N401   N     0.93770   0.24900   0.33520   0.01267  Uiso   1.00
N402   N     0.94670   0.22600   0.35560   0.01267  Uiso   1.00
N403   N     0.95010   0.27760   0.34560   0.01267  Uiso   1.00
N404   N     0.96700   0.27230   0.37220   0.01267  Uiso   1.00
N405   N     0.00870   0.19460   0.45710   0.01267  Uiso   1.00
N406   N     0.96530   0.49890   0.21380   0.01267  Uiso   1.00
N407   N     0.93970   0.50940   0.22870   0.01267  Uiso   1.00
N408   N     0.93080   0.48780   0.25080   0.01267  Uiso   1.00
N409   N     0.97340   0.46970   0.22600   0.01267  Uiso   1.00
N410   N     0.94960   0.37540   0.29830   0.01267  Uiso   1.00
N411   N     0.03040   0.14710   0.55560   0.01267  Uiso   1.00
N412   N     0.04194   0.16090   0.58220   0.01267  Uiso   1.00
N413   N     0.02000   0.11760   0.56220   0.01267  Uiso   1.00
N414   N     0.03840   0.14050   0.60663   0.01267  Uiso   1.00
N415   N     0.99840   0.02950   0.64530   0.01267  Uiso   1.00
N416   N     0.01110   0.06750   0.30160   0.01267  Uiso   1.00
N417   N     0.03570   0.08170   0.28790   0.01267  Uiso   1.00
N418   N     0.98550   0.08730   0.30160   0.01267  Uiso   1.00
N419   N     0.02770   0.11160   0.27900   0.01267  Uiso   1.00
N420   N     0.93650   0.19700   0.28070   0.01267  Uiso   1.00
N421   N     0.46140   0.20040   0.72910   0.01267  Uiso   1.00
N422   N     0.48260   0.19120   0.75160   0.01267  Uiso   1.00
N423   N     0.44600   0.22690   0.73850   0.01267  Uiso   1.00
N424   N     0.45750   0.23580   0.76709   0.01267  Uiso   1.00
N425   N     0.53220   0.21740   0.86260   0.01267  Uiso   1.00
N426   N     0.39420   0.18130   0.69320   0.01267  Uiso   1.00
N427   N     0.37370   0.15650   0.69590   0.01267  Uiso   1.00
N428   N     0.38100   0.20860   0.70250   0.01267  Uiso   1.00
N429   N     0.35060   0.20280   0.71280   0.01267  Uiso   1.00
N430   N     0.26130   0.12010   0.73450   0.01267  Uiso   1.00
N431   N     0.43770   0.25100   0.66480   0.01267  Uiso   1.00
N432   N     0.44670   0.27400   0.64440   0.01267  Uiso   1.00
N433   N     0.45010   0.22240   0.65440   0.01267  Uiso   1.00
N434   N     0.46700   0.22770   0.62780   0.01267  Uiso   1.00
N435   N     0.50870   0.30540   0.54290   0.01267  Uiso   1.00
N436   N     0.46530   0.00110   0.78620   0.01267  Uiso   1.00
N437   N     0.43970   0.99060   0.77130   0.01267  Uiso   1.00
N438   N     0.43080   0.01220   0.74920   0.01267  Uiso   1.00
N439   N     0.47340   0.03030   0.77400   0.01267  Uiso   1.00
N440   N     0.44960   0.12460   0.70170   0.01267  Uiso   1.00
N441   N     0.53040   0.35290   0.44440   0.01267  Uiso   1.00
N442   N     0.54194   0.33910   0.41780   0.01267  Uiso   1.00
N443   N     0.52000   0.38240   0.43780   0.01267  Uiso   1.00
N444   N     0.53840   0.35950   0.39337   0.01267  Uiso   1.00
N445   N     0.49840   0.47050   0.35470   0.01267  Uiso   1.00
N446   N     0.51110   0.43250   0.69840   0.01267  Uiso   1.00
N447   N     0.53570   0.41830   0.71210   0.01267  Uiso   1.00
N448   N     0.48550   0.41270   0.69840   0.01267  Uiso   1.00
N449   N     0.52770   0.38840   0.72100   0.01267  Uiso   1.00
N450   N     0.43650   0.30300   0.71930   0.01267  Uiso   1.00
N451   N     0.03860   0.79960   0.22910   0.01267  Uiso   1.00
N452   N     0.01740   0.80880   0.25160   0.01267  Uiso   1.00
N453   N     0.05400   0.77310   0.23850   0.01267  Uiso   1.00
N454   N     0.04250   0.76420   0.26709   0.01267  Uiso   1.00
N455   N     0.96780   0.78260   0.36260   0.01267  Uiso   1.00
N456   N     0.10580   0.81870   0.19320   0.01267  Uiso   1.00
N457   N     0.12630   0.84350   0.19590   0.01267  Uiso   1.00
N458   N     0.11900   0.79140   0.20250   0.01267  Uiso   1.00
N459   N     0.14940   0.79720   0.21280   0.01267  Uiso   1.00
N460   N     0.23870   0.87990   0.23450   0.01267  Uiso   1.00
N461   N     0.06230   0.74900   0.16480   0.01267  Uiso   1.00
N462   N     0.05330   0.72600   0.14440   0.01267  Uiso   1.00
N463   N     0.04990   0.77760   0.15440   0.01267  Uiso   1.00
N464   N     0.03300   0.77230   0.12780   0.01267  Uiso   1.00
N465   N     0.99130   0.69460   0.04290   0.01267  Uiso   1.00
N466   N     0.03470   0.99890   0.28620   0.01267  Uiso   1.00
N467   N     0.06030   0.00940   0.27130   0.01267  Uiso   1.00
N468   N     0.06920   0.98780   0.24920   0.01267  Uiso   1.00
N469   N     0.02660   0.96970   0.27400   0.01267  Uiso   1.00
N470   N     0.05040   0.87540   0.20170   0.01267  Uiso   1.00
N471   N     0.96960   0.64710   0.94440   0.01267  Uiso   1.00
N472   N     0.95806   0.66090   0.91780   0.01267  Uiso   1.00
N473   N     0.98000   0.61760   0.93780   0.01267  Uiso   1.00
N474   N     0.96160   0.64050   0.89337   0.01267  Uiso   1.00
N475   N     0.00160   0.52950   0.85470   0.01267  Uiso   1.00
N476   N     0.98890   0.56750   0.19840   0.01267  Uiso   1.00
N477   N     0.96430   0.58170   0.21210   0.01267  Uiso   1.00
N478   N     0.01450   0.58730   0.19840   0.01267  Uiso   1.00
N479   N     0.97230   0.61160   0.22100   0.01267  Uiso   1.00
N480   N     0.06350   0.69700   0.21930   0.01267  Uiso   1.00
N481   N     0.77090   0.53860   0.70040   0.01267  Uiso   1.00
N482   N     0.74840   0.51740   0.69120   0.01267  Uiso   1.00
N483   N     0.76150   0.55400   0.72690   0.01267  Uiso   1.00
N484   N     0.73291   0.54250   0.73580   0.01267  Uiso   1.00
N485   N     0.63740   0.46780   0.71740   0.01267  Uiso   1.00
N486   N     0.80680   0.60580   0.68130   0.01267  Uiso   1.00
N487   N     0.80410   0.62630   0.65650   0.01267  Uiso   1.00
N488   N     0.79750   0.61900   0.70860   0.01267  Uiso   1.00
N489   N     0.78720   0.64940   0.70280   0.01267  Uiso   1.00
N490   N     0.76550   0.73870   0.62010   0.01267  Uiso   1.00
N491   N     0.83520   0.56230   0.75100   0.01267  Uiso   1.00
N492   N     0.85560   0.55330   0.77400   0.01267  Uiso   1.00
N493   N     0.84560   0.54990   0.72240   0.01267  Uiso   1.00
N494   N     0.87220   0.53300   0.72770   0.01267  Uiso   1.00
N495   N     0.95710   0.49130   0.80540   0.01267  Uiso   1.00
N496   N     0.71380   0.53470   0.50110   0.01267  Uiso   1.00
N497   N     0.72870   0.56030   0.49060   0.01267  Uiso   1.00
N498   N     0.75080   0.56920   0.51220   0.01267  Uiso   1.00
N499   N     0.72600   0.52660   0.53030   0.01267  Uiso   1.00
N500   N     0.79830   0.55040   0.62460   0.01267  Uiso   1.00
N501   N     0.05560   0.46960   0.85290   0.01267  Uiso   1.00
N502   N     0.08220   0.45806   0.83910   0.01267  Uiso   1.00
N503   N     0.06220   0.48000   0.88240   0.01267  Uiso   1.00
N504   N     0.10663   0.46160   0.85950   0.01267  Uiso   1.00
N505   N     0.14530   0.50160   0.97050   0.01267  Uiso   1.00
N506   N     0.80160   0.48890   0.93250   0.01267  Uiso   1.00
N507   N     0.78790   0.46430   0.91830   0.01267  Uiso   1.00
N508   N     0.80160   0.51450   0.91270   0.01267  Uiso   1.00
N509   N     0.77900   0.47230   0.88840   0.01267  Uiso   1.00
N510   N     0.78070   0.56350   0.80300   0.01267  Uiso   1.00
N511   N     0.27090   0.96140   0.29960   0.01267  Uiso   1.00
N512   N     0.24840   0.98260   0.30880   0.01267  Uiso   1.00
N513   N     0.26150   0.94600   0.27310   0.01267  Uiso   1.00
N514   N     0.23291   0.95750   0.26420   0.01267  Uiso   1.00
N515   N     0.13740   0.03220   0.28260   0.01267  Uiso   1.00
N516   N     0.30680   0.89420   0.31870   0.01267  Uiso   1.00
N517   N     0.30410   0.87370   0.34350   0.01267  Uiso   1.00
N518   N     0.29750   0.88100   0.29140   0.01267  Uiso   1.00
N519   N     0.28720   0.85060   0.29720   0.01267  Uiso   1.00
N520   N     0.26550   0.76130   0.37990   0.01267  Uiso   1.00
N521   N     0.33520   0.93770   0.24900   0.01267  Uiso   1.00
N522   N     0.35560   0.94670   0.22600   0.01267  Uiso   1.00
N523   N     0.34560   0.95010   0.27760   0.01267  Uiso   1.00
N524   N     0.37220   0.96700   0.27230   0.01267  Uiso   1.00
N525   N     0.45710   0.00870   0.19460   0.01267  Uiso   1.00
N526   N     0.21380   0.96530   0.49890   0.01267  Uiso   1.00
N527   N     0.22870   0.93970   0.50940   0.01267  Uiso   1.00
N528   N     0.25080   0.93080   0.48780   0.01267  Uiso   1.00
N529   N     0.22600   0.97340   0.46970   0.01267  Uiso   1.00
N530   N     0.29830   0.94960   0.37540   0.01267  Uiso   1.00
N531   N     0.55560   0.03040   0.14710   0.01267  Uiso   1.00
N532   N     0.58220   0.04194   0.16090   0.01267  Uiso   1.00
N533   N     0.56220   0.02000   0.11760   0.01267  Uiso   1.00
N534   N     0.60663   0.03840   0.14050   0.01267  Uiso   1.00
N535   N     0.64530   0.99840   0.02950   0.01267  Uiso   1.00
N536   N     0.30160   0.01110   0.06750   0.01267  Uiso   1.00
N537   N     0.28790   0.03570   0.08170   0.01267  Uiso   1.00
N538   N     0.30160   0.98550   0.08730   0.01267  Uiso   1.00
N539   N     0.27900   0.02770   0.11160   0.01267  Uiso   1.00
N540   N     0.28070   0.93650   0.19700   0.01267  Uiso   1.00
N541   N     0.72910   0.46140   0.20040   0.01267  Uiso   1.00
N542   N     0.75160   0.48260   0.19120   0.01267  Uiso   1.00
N543   N     0.73850   0.44600   0.22690   0.01267  Uiso   1.00
N544   N     0.76709   0.45750   0.23580   0.01267  Uiso   1.00
N545   N     0.86260   0.53220   0.21740   0.01267  Uiso   1.00
N546   N     0.69320   0.39420   0.18130   0.01267  Uiso   1.00
N547   N     0.69590   0.37370   0.15650   0.01267  Uiso   1.00
N548   N     0.70250   0.38100   0.20860   0.01267  Uiso   1.00
N549   N     0.71280   0.35060   0.20280   0.01267  Uiso   1.00
N550   N     0.73450   0.26130   0.12010   0.01267  Uiso   1.00
N551   N     0.66480   0.43770   0.25100   0.01267  Uiso   1.00
N552   N     0.64440   0.44670   0.27400   0.01267  Uiso   1.00
N553   N     0.65440   0.45010   0.22240   0.01267  Uiso   1.00
N554   N     0.62780   0.46700   0.22770   0.01267  Uiso   1.00
N555   N     0.54290   0.50870   0.30540   0.01267  Uiso   1.00
N556   N     0.78620   0.46530   0.00110   0.01267  Uiso   1.00
N557   N     0.77130   0.43970   0.99060   0.01267  Uiso   1.00
N558   N     0.74920   0.43080   0.01220   0.01267  Uiso   1.00
N559   N     0.77400   0.47340   0.03030   0.01267  Uiso   1.00
N560   N     0.70170   0.44960   0.12460   0.01267  Uiso   1.00
N561   N     0.44440   0.53040   0.35290   0.01267  Uiso   1.00
N562   N     0.41780   0.54194   0.33910   0.01267  Uiso   1.00
N563   N     0.43780   0.52000   0.38240   0.01267  Uiso   1.00
N564   N     0.39337   0.53840   0.35950   0.01267  Uiso   1.00
N565   N     0.35470   0.49840   0.47050   0.01267  Uiso   1.00
N566   N     0.69840   0.51110   0.43250   0.01267  Uiso   1.00
N567   N     0.71210   0.53570   0.41830   0.01267  Uiso   1.00
N568   N     0.69840   0.48550   0.41270   0.01267  Uiso   1.00
N569   N     0.72100   0.52770   0.38840   0.01267  Uiso   1.00
N570   N     0.71930   0.43650   0.30300   0.01267  Uiso   1.00
N571   N     0.22910   0.03860   0.79960   0.01267  Uiso   1.00
N572   N     0.25160   0.01740   0.80880   0.01267  Uiso   1.00
N573   N     0.23850   0.05400   0.77310   0.01267  Uiso   1.00
N574   N     0.26709   0.04250   0.76420   0.01267  Uiso   1.00
N575   N     0.36260   0.96780   0.78260   0.01267  Uiso   1.00
N576   N     0.19320   0.10580   0.81870   0.01267  Uiso   1.00
N577   N     0.19590   0.12630   0.84350   0.01267  Uiso   1.00
N578   N     0.20250   0.11900   0.79140   0.01267  Uiso   1.00
N579   N     0.21280   0.14940   0.79720   0.01267  Uiso   1.00
N580   N     0.23450   0.23870   0.87990   0.01267  Uiso   1.00
N581   N     0.16480   0.06230   0.74900   0.01267  Uiso   1.00
N582   N     0.14440   0.05330   0.72600   0.01267  Uiso   1.00
N583   N     0.15440   0.04990   0.77760   0.01267  Uiso   1.00
N584   N     0.12780   0.03300   0.77230   0.01267  Uiso   1.00
N585   N     0.04290   0.99130   0.69460   0.01267  Uiso   1.00
N586   N     0.28620   0.03470   0.99890   0.01267  Uiso   1.00
N587   N     0.27130   0.06030   0.00940   0.01267  Uiso   1.00
N588   N     0.24920   0.06920   0.98780   0.01267  Uiso   1.00
N589   N     0.27400   0.02660   0.96970   0.01267  Uiso   1.00
N590   N     0.20170   0.05040   0.87540   0.01267  Uiso   1.00
N591   N     0.94440   0.96960   0.64710   0.01267  Uiso   1.00
N592   N     0.91780   0.95806   0.66090   0.01267  Uiso   1.00
N593   N     0.93780   0.98000   0.61760   0.01267  Uiso   1.00
N594   N     0.89337   0.96160   0.64050   0.01267  Uiso   1.00
N595   N     0.85470   0.00160   0.52950   0.01267  Uiso   1.00
N596   N     0.19840   0.98890   0.56750   0.01267  Uiso   1.00
N597   N     0.21210   0.96430   0.58170   0.01267  Uiso   1.00
N598   N     0.19840   0.01450   0.58730   0.01267  Uiso   1.00
N599   N     0.22100   0.97230   0.61160   0.01267  Uiso   1.00
N600   N     0.21930   0.06350   0.69700   0.01267  Uiso   1.00
N601   N     0.70040   0.77090   0.53860   0.01267  Uiso   1.00
N602   N     0.69120   0.74840   0.51740   0.01267  Uiso   1.00
N603   N     0.72690   0.76150   0.55400   0.01267  Uiso   1.00
N604   N     0.73580   0.73291   0.54250   0.01267  Uiso   1.00
N605   N     0.71740   0.63740   0.46780   0.01267  Uiso   1.00
N606   N     0.68130   0.80680   0.60580   0.01267  Uiso   1.00
N607   N     0.65650   0.80410   0.62630   0.01267  Uiso   1.00
N608   N     0.70860   0.79750   0.61900   0.01267  Uiso   1.00
N609   N     0.70280   0.78720   0.64940   0.01267  Uiso   1.00
N610   N     0.62010   0.76550   0.73870   0.01267  Uiso   1.00
N611   N     0.75100   0.83520   0.56230   0.01267  Uiso   1.00
N612   N     0.77400   0.85560   0.55330   0.01267  Uiso   1.00
N613   N     0.72240   0.84560   0.54990   0.01267  Uiso   1.00
N614   N     0.72770   0.87220   0.53300   0.01267  Uiso   1.00
N615   N     0.80540   0.95710   0.49130   0.01267  Uiso   1.00
N616   N     0.50110   0.71380   0.53470   0.01267  Uiso   1.00
N617   N     0.49060   0.72870   0.56030   0.01267  Uiso   1.00
N618   N     0.51220   0.75080   0.56920   0.01267  Uiso   1.00
N619   N     0.53030   0.72600   0.52660   0.01267  Uiso   1.00
N620   N     0.62460   0.79830   0.55040   0.01267  Uiso   1.00
N621   N     0.85290   0.05560   0.46960   0.01267  Uiso   1.00
N622   N     0.83910   0.08220   0.45806   0.01267  Uiso   1.00
N623   N     0.88240   0.06220   0.48000   0.01267  Uiso   1.00
N624   N     0.85950   0.10663   0.46160   0.01267  Uiso   1.00
N625   N     0.97050   0.14530   0.50160   0.01267  Uiso   1.00
N626   N     0.93250   0.80160   0.48890   0.01267  Uiso   1.00
N627   N     0.91830   0.78790   0.46430   0.01267  Uiso   1.00
N628   N     0.91270   0.80160   0.51450   0.01267  Uiso   1.00
N629   N     0.88840   0.77900   0.47230   0.01267  Uiso   1.00
N630   N     0.80300   0.78070   0.56350   0.01267  Uiso   1.00
N631   N     0.29960   0.27090   0.96140   0.01267  Uiso   1.00
N632   N     0.30880   0.24840   0.98260   0.01267  Uiso   1.00
N633   N     0.27310   0.26150   0.94600   0.01267  Uiso   1.00
N634   N     0.26420   0.23291   0.95750   0.01267  Uiso   1.00
N635   N     0.28260   0.13740   0.03220   0.01267  Uiso   1.00
N636   N     0.31870   0.30680   0.89420   0.01267  Uiso   1.00
N637   N     0.34350   0.30410   0.87370   0.01267  Uiso   1.00
N638   N     0.29140   0.29750   0.88100   0.01267  Uiso   1.00
N639   N     0.29720   0.28720   0.85060   0.01267  Uiso   1.00
N640   N     0.37990   0.26550   0.76130   0.01267  Uiso   1.00
N641   N     0.24900   0.33520   0.93770   0.01267  Uiso   1.00
N642   N     0.22600   0.35560   0.94670   0.01267  Uiso   1.00
N643   N     0.27760   0.34560   0.95010   0.01267  Uiso   1.00
N644   N     0.27230   0.37220   0.96700   0.01267  Uiso   1.00
N645   N     0.19460   0.45710   0.00870   0.01267  Uiso   1.00
N646   N     0.49890   0.21380   0.96530   0.01267  Uiso   1.00
N647   N     0.50940   0.22870   0.93970   0.01267  Uiso   1.00
N648   N     0.48780   0.25080   0.93080   0.01267  Uiso   1.00
N649   N     0.46970   0.22600   0.97340   0.01267  Uiso   1.00
N650   N     0.37540   0.29830   0.94960   0.01267  Uiso   1.00
N651   N     0.14710   0.55560   0.03040   0.01267  Uiso   1.00
N652   N     0.16090   0.58220   0.04194   0.01267  Uiso   1.00
N653   N     0.11760   0.56220   0.02000   0.01267  Uiso   1.00
N654   N     0.14050   0.60663   0.03840   0.01267  Uiso   1.00
N655   N     0.02950   0.64530   0.99840   0.01267  Uiso   1.00
N656   N     0.06750   0.30160   0.01110   0.01267  Uiso   1.00
N657   N     0.08170   0.28790   0.03570   0.01267  Uiso   1.00
N658   N     0.08730   0.30160   0.98550   0.01267  Uiso   1.00
N659   N     0.11160   0.27900   0.02770   0.01267  Uiso   1.00
N660   N     0.19700   0.28070   0.93650   0.01267  Uiso   1.00
N661   N     0.20040   0.72910   0.46140   0.01267  Uiso   1.00
N662   N     0.19120   0.75160   0.48260   0.01267  Uiso   1.00
N663   N     0.22690   0.73850   0.44600   0.01267  Uiso   1.00
N664   N     0.23580   0.76709   0.45750   0.01267  Uiso   1.00
N665   N     0.21740   0.86260   0.53220   0.01267  Uiso   1.00
N666   N     0.18130   0.69320   0.39420   0.01267  Uiso   1.00
N667   N     0.15650   0.69590   0.37370   0.01267  Uiso   1.00
N668   N     0.20860   0.70250   0.38100   0.01267  Uiso   1.00
N669   N     0.20280   0.71280   0.35060   0.01267  Uiso   1.00
N670   N     0.12010   0.73450   0.26130   0.01267  Uiso   1.00
N671   N     0.25100   0.66480   0.43770   0.01267  Uiso   1.00
N672   N     0.27400   0.64440   0.44670   0.01267  Uiso   1.00
N673   N     0.22240   0.65440   0.45010   0.01267  Uiso   1.00
N674   N     0.22770   0.62780   0.46700   0.01267  Uiso   1.00
N675   N     0.30540   0.54290   0.50870   0.01267  Uiso   1.00
N676   N     0.00110   0.78620   0.46530   0.01267  Uiso   1.00
N677   N     0.99060   0.77130   0.43970   0.01267  Uiso   1.00
N678   N     0.01220   0.74920   0.43080   0.01267  Uiso   1.00
N679   N     0.03030   0.77400   0.47340   0.01267  Uiso   1.00
N680   N     0.12460   0.70170   0.44960   0.01267  Uiso   1.00
N681   N     0.35290   0.44440   0.53040   0.01267  Uiso   1.00
N682   N     0.33910   0.41780   0.54194   0.01267  Uiso   1.00
N683   N     0.38240   0.43780   0.52000   0.01267  Uiso   1.00
N684   N     0.35950   0.39337   0.53840   0.01267  Uiso   1.00
N685   N     0.47050   0.35470   0.49840   0.01267  Uiso   1.00
N686   N     0.43250   0.69840   0.51110   0.01267  Uiso   1.00
N687   N     0.41830   0.71210   0.53570   0.01267  Uiso   1.00
N688   N     0.41270   0.69840   0.48550   0.01267  Uiso   1.00
N689   N     0.38840   0.72100   0.52770   0.01267  Uiso   1.00
N690   N     0.30300   0.71930   0.43650   0.01267  Uiso   1.00
N691   N     0.79960   0.22910   0.03860   0.01267  Uiso   1.00
N692   N     0.80880   0.25160   0.01740   0.01267  Uiso   1.00
N693   N     0.77310   0.23850   0.05400   0.01267  Uiso   1.00
N694   N     0.76420   0.26709   0.04250   0.01267  Uiso   1.00
N695   N     0.78260   0.36260   0.96780   0.01267  Uiso   1.00
N696   N     0.81870   0.19320   0.10580   0.01267  Uiso   1.00
N697   N     0.84350   0.19590   0.12630   0.01267  Uiso   1.00
N698   N     0.79140   0.20250   0.11900   0.01267  Uiso   1.00
N699   N     0.79720   0.21280   0.14940   0.01267  Uiso   1.00
N700   N     0.87990   0.23450   0.23870   0.01267  Uiso   1.00
N701   N     0.74900   0.16480   0.06230   0.01267  Uiso   1.00
N702   N     0.72600   0.14440   0.05330   0.01267  Uiso   1.00
N703   N     0.77760   0.15440   0.04990   0.01267  Uiso   1.00
N704   N     0.77230   0.12780   0.03300   0.01267  Uiso   1.00
N705   N     0.69460   0.04290   0.99130   0.01267  Uiso   1.00
N706   N     0.99890   0.28620   0.03470   0.01267  Uiso   1.00
N707   N     0.00940   0.27130   0.06030   0.01267  Uiso   1.00
N708   N     0.98780   0.24920   0.06920   0.01267  Uiso   1.00
N709   N     0.96970   0.27400   0.02660   0.01267  Uiso   1.00
N710   N     0.87540   0.20170   0.05040   0.01267  Uiso   1.00
N711   N     0.64710   0.94440   0.96960   0.01267  Uiso   1.00
N712   N     0.66090   0.91780   0.95806   0.01267  Uiso   1.00
N713   N     0.61760   0.93780   0.98000   0.01267  Uiso   1.00
N714   N     0.64050   0.89337   0.96160   0.01267  Uiso   1.00
N715   N     0.52950   0.85470   0.00160   0.01267  Uiso   1.00
N716   N     0.56750   0.19840   0.98890   0.01267  Uiso   1.00
N717   N     0.58170   0.21210   0.96430   0.01267  Uiso   1.00
N718   N     0.58730   0.19840   0.01450   0.01267  Uiso   1.00
N719   N     0.61160   0.22100   0.97230   0.01267  Uiso   1.00
N720   N     0.69700   0.21930   0.06350   0.01267  Uiso   1.00
