data_image0
_cell_length_a       22.0223
_cell_length_b       22.0223
_cell_length_c       21.628
_cell_angle_alpha    90
_cell_angle_beta     90
_cell_angle_gamma    90

_symmetry_space_group_name_H-M    "P 1"
_symmetry_int_tables_number       1

loop_
  _symmetry_equiv_pos_as_xyz
  'x, y, z'

loop_
  _atom_site_label
  _atom_site_occupancy
  _atom_site_fract_x
  _atom_site_fract_y
  _atom_site_fract_z
  _atom_site_thermal_displace_type
  _atom_site_B_iso_or_equiv
  _atom_site_type_symbol
  Cd1      1.0000 0.20639  0.81047  0.07110  Biso   1.000  Cd
  O1       1.0000 0.21190  0.70818  0.07630  Biso   1.000  O
  N1       1.0000 0.18880  0.77114  0.97150  Biso   1.000  N
  C1       1.0000 0.20420  0.67750  0.02520  Biso   1.000  C
  O2       1.0000 0.25437  0.90900  0.06760  Biso   1.000  O
  C2       1.0000 0.20870  0.61460  0.02100  Biso   1.000  C
  H1       1.0000 0.21870  0.59200  0.05640  Biso   1.000  H
  O3       1.0000 0.30600  0.82770  0.04000  Biso   1.000  O
  C3       1.0000 0.19850  0.58400  0.96490  Biso   1.000  C
  H2       1.0000 0.20150  0.54140  0.96390  Biso   1.000  H
  C4       1.0000 0.18480  0.61320  0.91380  Biso   1.000  C
  H3       1.0000 0.17770  0.59120  0.87730  Biso   1.000  H
  C5       1.0000 0.18060  0.67750  0.91300  Biso   1.000  C
  C6       1.0000 0.19110  0.70930  0.96890  Biso   1.000  C
  C7       1.0000 0.16980  0.71210  0.85980  Biso   1.000  C
  H4       1.0000 0.16250  0.69240  0.82200  Biso   1.000  H
  C8       1.0000 0.16950  0.77480  0.86220  Biso   1.000  C
  H5       1.0000 0.16340  0.79780  0.82610  Biso   1.000  H
  C9       1.0000 0.17840  0.80350  0.91910  Biso   1.000  C
  C10      1.0000 0.17890  0.86890  0.92760  Biso   1.000  C
  H6       1.0000 0.19190  0.88280  0.96650  Biso   1.000  H
  C11      1.0000 0.16320  0.91140  0.88710  Biso   1.000  C
  H7       1.0000 0.14930  0.89840  0.84820  Biso   1.000  H
  C12      1.0000 0.16570  0.97640  0.89800  Biso   1.000  C
  C13      1.0000 0.13960  0.01670  0.85790  Biso   1.000  C
  H8       1.0000 0.12080  0.00230  0.82170  Biso   1.000  H
  C14      1.0000 0.14060  0.07900  0.87000  Biso   1.000  C
  H9       1.0000 0.12020  0.10520  0.84270  Biso   1.000  H
  C15      1.0000 0.19520  0.06360  0.95600  Biso   1.000  C
  H10      1.0000 0.21730  0.07920  0.98970  Biso   1.000  H
  C16      1.0000 0.19280  0.00190  0.94980  Biso   1.000  C
  H11      1.0000 0.20950  0.97670  0.98050  Biso   1.000  H
  C17      1.0000 0.30330  0.88320  0.05090  Biso   1.000  C
  C18      1.0000 0.36080  0.92040  0.04460  Biso   1.000  C
  C19      1.0000 0.41250  0.89160  0.02250  Biso   1.000  C
  H12      1.0000 0.41050  0.85100  0.00950  Biso   1.000  H
  C20      1.0000 0.46720  0.92330  0.01950  Biso   1.000  C
  H13      1.0000 0.50220  0.90380  0.00450  Biso   1.000  H
  C21      1.0000 0.47040  0.98420  0.03880  Biso   1.000  C
  C22      1.0000 0.41780  0.01280  0.05700  Biso   1.000  C
  H14      1.0000 0.41880  0.05420  0.06720  Biso   1.000  H
  C23      1.0000 0.36260  0.98100  0.06050  Biso   1.000  C
  H15      1.0000 0.32710  0.00100  0.07360  Biso   1.000  H
  N2       1.0000 0.16940  0.10290  0.91900  Biso   1.000  N
  Cd2      1.0000 0.70639  0.31047  0.57110  Biso   1.000  Cd
  O4       1.0000 0.71190  0.20818  0.57630  Biso   1.000  O
  N3       1.0000 0.68880  0.27114  0.47150  Biso   1.000  N
  C24      1.0000 0.70420  0.17750  0.52520  Biso   1.000  C
  O5       1.0000 0.75437  0.40900  0.56760  Biso   1.000  O
  C25      1.0000 0.70870  0.11460  0.52100  Biso   1.000  C
  H16      1.0000 0.71870  0.09200  0.55640  Biso   1.000  H
  O6       1.0000 0.80600  0.32770  0.54000  Biso   1.000  O
  C26      1.0000 0.69850  0.08400  0.46490  Biso   1.000  C
  H17      1.0000 0.70150  0.04140  0.46390  Biso   1.000  H
  C27      1.0000 0.68480  0.11320  0.41380  Biso   1.000  C
  H18      1.0000 0.67770  0.09120  0.37730  Biso   1.000  H
  C28      1.0000 0.68060  0.17750  0.41300  Biso   1.000  C
  C29      1.0000 0.69110  0.20930  0.46890  Biso   1.000  C
  C30      1.0000 0.66980  0.21210  0.35980  Biso   1.000  C
  H19      1.0000 0.66250  0.19240  0.32200  Biso   1.000  H
  C31      1.0000 0.66950  0.27480  0.36220  Biso   1.000  C
  H20      1.0000 0.66340  0.29780  0.32610  Biso   1.000  H
  C32      1.0000 0.67840  0.30350  0.41910  Biso   1.000  C
  C33      1.0000 0.67890  0.36890  0.42760  Biso   1.000  C
  H21      1.0000 0.69190  0.38280  0.46650  Biso   1.000  H
  C34      1.0000 0.66320  0.41140  0.38710  Biso   1.000  C
  H22      1.0000 0.64930  0.39840  0.34820  Biso   1.000  H
  C35      1.0000 0.66570  0.47640  0.39800  Biso   1.000  C
  C36      1.0000 0.63960  0.51670  0.35790  Biso   1.000  C
  H23      1.0000 0.62080  0.50230  0.32170  Biso   1.000  H
  C37      1.0000 0.64060  0.57900  0.37000  Biso   1.000  C
  H24      1.0000 0.62020  0.60520  0.34270  Biso   1.000  H
  C38      1.0000 0.69520  0.56360  0.45600  Biso   1.000  C
  H25      1.0000 0.71730  0.57920  0.48970  Biso   1.000  H
  C39      1.0000 0.69280  0.50190  0.44980  Biso   1.000  C
  H26      1.0000 0.70950  0.47670  0.48050  Biso   1.000  H
  C40      1.0000 0.80330  0.38320  0.55090  Biso   1.000  C
  C41      1.0000 0.86080  0.42040  0.54460  Biso   1.000  C
  C42      1.0000 0.91250  0.39160  0.52250  Biso   1.000  C
  H27      1.0000 0.91050  0.35100  0.50950  Biso   1.000  H
  C43      1.0000 0.96720  0.42330  0.51950  Biso   1.000  C
  H28      1.0000 0.00220  0.40380  0.50450  Biso   1.000  H
  C44      1.0000 0.97040  0.48420  0.53880  Biso   1.000  C
  C45      1.0000 0.91780  0.51280  0.55700  Biso   1.000  C
  H29      1.0000 0.91880  0.55420  0.56720  Biso   1.000  H
  C46      1.0000 0.86260  0.48100  0.56050  Biso   1.000  C
  H30      1.0000 0.82710  0.50100  0.57360  Biso   1.000  H
  N4       1.0000 0.66940  0.60290  0.41900  Biso   1.000  N
  Cd3      1.0000 0.79361  0.18953  0.07110  Biso   1.000  Cd
  O7       1.0000 0.78810  0.29182  0.07630  Biso   1.000  O
  N5       1.0000 0.81120  0.22886  0.97150  Biso   1.000  N
  C47      1.0000 0.79580  0.32250  0.02520  Biso   1.000  C
  O8       1.0000 0.74563  0.09100  0.06760  Biso   1.000  O
  C48      1.0000 0.79130  0.38540  0.02100  Biso   1.000  C
  H31      1.0000 0.78130  0.40800  0.05640  Biso   1.000  H
  O9       1.0000 0.69400  0.17230  0.04000  Biso   1.000  O
  C49      1.0000 0.80150  0.41600  0.96490  Biso   1.000  C
  H32      1.0000 0.79850  0.45860  0.96390  Biso   1.000  H
  C50      1.0000 0.81520  0.38680  0.91380  Biso   1.000  C
  H33      1.0000 0.82230  0.40880  0.87730  Biso   1.000  H
  C51      1.0000 0.81940  0.32250  0.91300  Biso   1.000  C
  C52      1.0000 0.80890  0.29070  0.96890  Biso   1.000  C
  C53      1.0000 0.83020  0.28790  0.85980  Biso   1.000  C
  H34      1.0000 0.83750  0.30760  0.82200  Biso   1.000  H
  C54      1.0000 0.83050  0.22520  0.86220  Biso   1.000  C
  H35      1.0000 0.83660  0.20220  0.82610  Biso   1.000  H
  C55      1.0000 0.82160  0.19650  0.91910  Biso   1.000  C
  C56      1.0000 0.82110  0.13110  0.92760  Biso   1.000  C
  H36      1.0000 0.80810  0.11720  0.96650  Biso   1.000  H
  C57      1.0000 0.83680  0.08860  0.88710  Biso   1.000  C
  H37      1.0000 0.85070  0.10160  0.84820  Biso   1.000  H
  C58      1.0000 0.83430  0.02360  0.89800  Biso   1.000  C
  C59      1.0000 0.86040  0.98330  0.85790  Biso   1.000  C
  H38      1.0000 0.87920  0.99770  0.82170  Biso   1.000  H
  C60      1.0000 0.85940  0.92100  0.87000  Biso   1.000  C
  H39      1.0000 0.87980  0.89480  0.84270  Biso   1.000  H
  C61      1.0000 0.80480  0.93640  0.95600  Biso   1.000  C
  H40      1.0000 0.78270  0.92080  0.98970  Biso   1.000  H
  C62      1.0000 0.80720  0.99810  0.94980  Biso   1.000  C
  H41      1.0000 0.79050  0.02330  0.98050  Biso   1.000  H
  C63      1.0000 0.69670  0.11680  0.05090  Biso   1.000  C
  C64      1.0000 0.63920  0.07960  0.04460  Biso   1.000  C
  C65      1.0000 0.58750  0.10840  0.02250  Biso   1.000  C
  H42      1.0000 0.58950  0.14900  0.00950  Biso   1.000  H
  C66      1.0000 0.53280  0.07670  0.01950  Biso   1.000  C
  H43      1.0000 0.49780  0.09620  0.00450  Biso   1.000  H
  C67      1.0000 0.52960  0.01580  0.03880  Biso   1.000  C
  C68      1.0000 0.58220  0.98720  0.05700  Biso   1.000  C
  H44      1.0000 0.58120  0.94580  0.06720  Biso   1.000  H
  C69      1.0000 0.63740  0.01900  0.06050  Biso   1.000  C
  H45      1.0000 0.67290  0.99900  0.07360  Biso   1.000  H
  N6       1.0000 0.83060  0.89710  0.91900  Biso   1.000  N
  Cd4      1.0000 0.29361  0.68953  0.57110  Biso   1.000  Cd
  O10      1.0000 0.28810  0.79182  0.57630  Biso   1.000  O
  N7       1.0000 0.31120  0.72886  0.47150  Biso   1.000  N
  C70      1.0000 0.29580  0.82250  0.52520  Biso   1.000  C
  O11      1.0000 0.24563  0.59100  0.56760  Biso   1.000  O
  C71      1.0000 0.29130  0.88540  0.52100  Biso   1.000  C
  H46      1.0000 0.28130  0.90800  0.55640  Biso   1.000  H
  O12      1.0000 0.19400  0.67230  0.54000  Biso   1.000  O
  C72      1.0000 0.30150  0.91600  0.46490  Biso   1.000  C
  H47      1.0000 0.29850  0.95860  0.46390  Biso   1.000  H
  C73      1.0000 0.31520  0.88680  0.41380  Biso   1.000  C
  H48      1.0000 0.32230  0.90880  0.37730  Biso   1.000  H
  C74      1.0000 0.31940  0.82250  0.41300  Biso   1.000  C
  C75      1.0000 0.30890  0.79070  0.46890  Biso   1.000  C
  C76      1.0000 0.33020  0.78790  0.35980  Biso   1.000  C
  H49      1.0000 0.33750  0.80760  0.32200  Biso   1.000  H
  C77      1.0000 0.33050  0.72520  0.36220  Biso   1.000  C
  H50      1.0000 0.33660  0.70220  0.32610  Biso   1.000  H
  C78      1.0000 0.32160  0.69650  0.41910  Biso   1.000  C
  C79      1.0000 0.32110  0.63110  0.42760  Biso   1.000  C
  H51      1.0000 0.30810  0.61720  0.46650  Biso   1.000  H
  C80      1.0000 0.33680  0.58860  0.38710  Biso   1.000  C
  H52      1.0000 0.35070  0.60160  0.34820  Biso   1.000  H
  C81      1.0000 0.33430  0.52360  0.39800  Biso   1.000  C
  C82      1.0000 0.36040  0.48330  0.35790  Biso   1.000  C
  H53      1.0000 0.37920  0.49770  0.32170  Biso   1.000  H
  C83      1.0000 0.35940  0.42100  0.37000  Biso   1.000  C
  H54      1.0000 0.37980  0.39480  0.34270  Biso   1.000  H
  C84      1.0000 0.30480  0.43640  0.45600  Biso   1.000  C
  H55      1.0000 0.28270  0.42080  0.48970  Biso   1.000  H
  C85      1.0000 0.30720  0.49810  0.44980  Biso   1.000  C
  H56      1.0000 0.29050  0.52330  0.48050  Biso   1.000  H
  C86      1.0000 0.19670  0.61680  0.55090  Biso   1.000  C
  C87      1.0000 0.13920  0.57960  0.54460  Biso   1.000  C
  C88      1.0000 0.08750  0.60840  0.52250  Biso   1.000  C
  H57      1.0000 0.08950  0.64900  0.50950  Biso   1.000  H
  C89      1.0000 0.03280  0.57670  0.51950  Biso   1.000  C
  H58      1.0000 0.99780  0.59620  0.50450  Biso   1.000  H
  C90      1.0000 0.02960  0.51580  0.53880  Biso   1.000  C
  C91      1.0000 0.08220  0.48720  0.55700  Biso   1.000  C
  H59      1.0000 0.08120  0.44580  0.56720  Biso   1.000  H
  C92      1.0000 0.13740  0.51900  0.56050  Biso   1.000  C
  H60      1.0000 0.17290  0.49900  0.57360  Biso   1.000  H
  N8       1.0000 0.33060  0.39710  0.41900  Biso   1.000  N
  Cd5      1.0000 0.81047  0.79361  0.92890  Biso   1.000  Cd
  O13      1.0000 0.70818  0.78810  0.92370  Biso   1.000  O
  N9       1.0000 0.77114  0.81120  0.02850  Biso   1.000  N
  C93      1.0000 0.67750  0.79580  0.97480  Biso   1.000  C
  O14      1.0000 0.90900  0.74563  0.93240  Biso   1.000  O
  C94      1.0000 0.61460  0.79130  0.97900  Biso   1.000  C
  H61      1.0000 0.59200  0.78130  0.94360  Biso   1.000  H
  O15      1.0000 0.82770  0.69400  0.96000  Biso   1.000  O
  C95      1.0000 0.58400  0.80150  0.03510  Biso   1.000  C
  H62      1.0000 0.54140  0.79850  0.03610  Biso   1.000  H
  C96      1.0000 0.61320  0.81520  0.08620  Biso   1.000  C
  H63      1.0000 0.59120  0.82230  0.12270  Biso   1.000  H
  C97      1.0000 0.67750  0.81940  0.08700  Biso   1.000  C
  C98      1.0000 0.70930  0.80890  0.03110  Biso   1.000  C
  C99      1.0000 0.71210  0.83020  0.14020  Biso   1.000  C
  H64      1.0000 0.69240  0.83750  0.17800  Biso   1.000  H
  C100     1.0000 0.77480  0.83050  0.13780  Biso   1.000  C
  H65      1.0000 0.79780  0.83660  0.17390  Biso   1.000  H
  C101     1.0000 0.80350  0.82160  0.08090  Biso   1.000  C
  C102     1.0000 0.86890  0.82110  0.07240  Biso   1.000  C
  H66      1.0000 0.88280  0.80810  0.03350  Biso   1.000  H
  C103     1.0000 0.91140  0.83680  0.11290  Biso   1.000  C
  H67      1.0000 0.89840  0.85070  0.15180  Biso   1.000  H
  C104     1.0000 0.97640  0.83430  0.10200  Biso   1.000  C
  C105     1.0000 0.01670  0.86040  0.14210  Biso   1.000  C
  H68      1.0000 0.00230  0.87920  0.17830  Biso   1.000  H
  C106     1.0000 0.07900  0.85940  0.13000  Biso   1.000  C
  H69      1.0000 0.10520  0.87980  0.15730  Biso   1.000  H
  C107     1.0000 0.06360  0.80480  0.04400  Biso   1.000  C
  H70      1.0000 0.07920  0.78270  0.01030  Biso   1.000  H
  C108     1.0000 0.00190  0.80720  0.05020  Biso   1.000  C
  H71      1.0000 0.97670  0.79050  0.01950  Biso   1.000  H
  C109     1.0000 0.88320  0.69670  0.94910  Biso   1.000  C
  C110     1.0000 0.92040  0.63920  0.95540  Biso   1.000  C
  C111     1.0000 0.89160  0.58750  0.97750  Biso   1.000  C
  H72      1.0000 0.85100  0.58950  0.99050  Biso   1.000  H
  C112     1.0000 0.92330  0.53280  0.98050  Biso   1.000  C
  H73      1.0000 0.90380  0.49780  0.99550  Biso   1.000  H
  C113     1.0000 0.98420  0.52960  0.96120  Biso   1.000  C
  C114     1.0000 0.01280  0.58220  0.94300  Biso   1.000  C
  H74      1.0000 0.05420  0.58120  0.93280  Biso   1.000  H
  C115     1.0000 0.98100  0.63740  0.93950  Biso   1.000  C
  H75      1.0000 0.00100  0.67290  0.92640  Biso   1.000  H
  N10      1.0000 0.10290  0.83060  0.08100  Biso   1.000  N
  Cd6      1.0000 0.31047  0.29361  0.42890  Biso   1.000  Cd
  O16      1.0000 0.20818  0.28810  0.42370  Biso   1.000  O
  N11      1.0000 0.27114  0.31120  0.52850  Biso   1.000  N
  C116     1.0000 0.17750  0.29580  0.47480  Biso   1.000  C
  O17      1.0000 0.40900  0.24563  0.43240  Biso   1.000  O
  C117     1.0000 0.11460  0.29130  0.47900  Biso   1.000  C
  H76      1.0000 0.09200  0.28130  0.44360  Biso   1.000  H
  O18      1.0000 0.32770  0.19400  0.46000  Biso   1.000  O
  C118     1.0000 0.08400  0.30150  0.53510  Biso   1.000  C
  H77      1.0000 0.04140  0.29850  0.53610  Biso   1.000  H
  C119     1.0000 0.11320  0.31520  0.58620  Biso   1.000  C
  H78      1.0000 0.09120  0.32230  0.62270  Biso   1.000  H
  C120     1.0000 0.17750  0.31940  0.58700  Biso   1.000  C
  C121     1.0000 0.20930  0.30890  0.53110  Biso   1.000  C
  C122     1.0000 0.21210  0.33020  0.64020  Biso   1.000  C
  H79      1.0000 0.19240  0.33750  0.67800  Biso   1.000  H
  C123     1.0000 0.27480  0.33050  0.63780  Biso   1.000  C
  H80      1.0000 0.29780  0.33660  0.67390  Biso   1.000  H
  C124     1.0000 0.30350  0.32160  0.58090  Biso   1.000  C
  C125     1.0000 0.36890  0.32110  0.57240  Biso   1.000  C
  H81      1.0000 0.38280  0.30810  0.53350  Biso   1.000  H
  C126     1.0000 0.41140  0.33680  0.61290  Biso   1.000  C
  H82      1.0000 0.39840  0.35070  0.65180  Biso   1.000  H
  C127     1.0000 0.47640  0.33430  0.60200  Biso   1.000  C
  C128     1.0000 0.51670  0.36040  0.64210  Biso   1.000  C
  H83      1.0000 0.50230  0.37920  0.67830  Biso   1.000  H
  C129     1.0000 0.57900  0.35940  0.63000  Biso   1.000  C
  H84      1.0000 0.60520  0.37980  0.65730  Biso   1.000  H
  C130     1.0000 0.56360  0.30480  0.54400  Biso   1.000  C
  H85      1.0000 0.57920  0.28270  0.51030  Biso   1.000  H
  C131     1.0000 0.50190  0.30720  0.55020  Biso   1.000  C
  H86      1.0000 0.47670  0.29050  0.51950  Biso   1.000  H
  C132     1.0000 0.38320  0.19670  0.44910  Biso   1.000  C
  C133     1.0000 0.42040  0.13920  0.45540  Biso   1.000  C
  C134     1.0000 0.39160  0.08750  0.47750  Biso   1.000  C
  H87      1.0000 0.35100  0.08950  0.49050  Biso   1.000  H
  C135     1.0000 0.42330  0.03280  0.48050  Biso   1.000  C
  H88      1.0000 0.40380  0.99780  0.49550  Biso   1.000  H
  C136     1.0000 0.48420  0.02960  0.46120  Biso   1.000  C
  C137     1.0000 0.51280  0.08220  0.44300  Biso   1.000  C
  H89      1.0000 0.55420  0.08120  0.43280  Biso   1.000  H
  C138     1.0000 0.48100  0.13740  0.43950  Biso   1.000  C
  H90      1.0000 0.50100  0.17290  0.42640  Biso   1.000  H
  N12      1.0000 0.60290  0.33060  0.58100  Biso   1.000  N
  Cd7      1.0000 0.18953  0.20639  0.92890  Biso   1.000  Cd
  O19      1.0000 0.29182  0.21190  0.92370  Biso   1.000  O
  N13      1.0000 0.22886  0.18880  0.02850  Biso   1.000  N
  C139     1.0000 0.32250  0.20420  0.97480  Biso   1.000  C
  O20      1.0000 0.09100  0.25437  0.93240  Biso   1.000  O
  C140     1.0000 0.38540  0.20870  0.97900  Biso   1.000  C
  H91      1.0000 0.40800  0.21870  0.94360  Biso   1.000  H
  O21      1.0000 0.17230  0.30600  0.96000  Biso   1.000  O
  C141     1.0000 0.41600  0.19850  0.03510  Biso   1.000  C
  H92      1.0000 0.45860  0.20150  0.03610  Biso   1.000  H
  C142     1.0000 0.38680  0.18480  0.08620  Biso   1.000  C
  H93      1.0000 0.40880  0.17770  0.12270  Biso   1.000  H
  C143     1.0000 0.32250  0.18060  0.08700  Biso   1.000  C
  C144     1.0000 0.29070  0.19110  0.03110  Biso   1.000  C
  C145     1.0000 0.28790  0.16980  0.14020  Biso   1.000  C
  H94      1.0000 0.30760  0.16250  0.17800  Biso   1.000  H
  C146     1.0000 0.22520  0.16950  0.13780  Biso   1.000  C
  H95      1.0000 0.20220  0.16340  0.17390  Biso   1.000  H
  C147     1.0000 0.19650  0.17840  0.08090  Biso   1.000  C
  C148     1.0000 0.13110  0.17890  0.07240  Biso   1.000  C
  H96      1.0000 0.11720  0.19190  0.03350  Biso   1.000  H
  C149     1.0000 0.08860  0.16320  0.11290  Biso   1.000  C
  H97      1.0000 0.10160  0.14930  0.15180  Biso   1.000  H
  C150     1.0000 0.02360  0.16570  0.10200  Biso   1.000  C
  C151     1.0000 0.98330  0.13960  0.14210  Biso   1.000  C
  H98      1.0000 0.99770  0.12080  0.17830  Biso   1.000  H
  C152     1.0000 0.92100  0.14060  0.13000  Biso   1.000  C
  H99      1.0000 0.89480  0.12020  0.15730  Biso   1.000  H
  C153     1.0000 0.93640  0.19520  0.04400  Biso   1.000  C
  H100     1.0000 0.92080  0.21730  0.01030  Biso   1.000  H
  C154     1.0000 0.99810  0.19280  0.05020  Biso   1.000  C
  H101     1.0000 0.02330  0.20950  0.01950  Biso   1.000  H
  C155     1.0000 0.11680  0.30330  0.94910  Biso   1.000  C
  C156     1.0000 0.07960  0.36080  0.95540  Biso   1.000  C
  C157     1.0000 0.10840  0.41250  0.97750  Biso   1.000  C
  H102     1.0000 0.14900  0.41050  0.99050  Biso   1.000  H
  C158     1.0000 0.07670  0.46720  0.98050  Biso   1.000  C
  H103     1.0000 0.09620  0.50220  0.99550  Biso   1.000  H
  C159     1.0000 0.01580  0.47040  0.96120  Biso   1.000  C
  C160     1.0000 0.98720  0.41780  0.94300  Biso   1.000  C
  H104     1.0000 0.94580  0.41880  0.93280  Biso   1.000  H
  C161     1.0000 0.01900  0.36260  0.93950  Biso   1.000  C
  H105     1.0000 0.99900  0.32710  0.92640  Biso   1.000  H
  N14      1.0000 0.89710  0.16940  0.08100  Biso   1.000  N
  Cd8      1.0000 0.68953  0.70639  0.42890  Biso   1.000  Cd
  O22      1.0000 0.79182  0.71190  0.42370  Biso   1.000  O
  N15      1.0000 0.72886  0.68880  0.52850  Biso   1.000  N
  C162     1.0000 0.82250  0.70420  0.47480  Biso   1.000  C
  O23      1.0000 0.59100  0.75437  0.43240  Biso   1.000  O
  C163     1.0000 0.88540  0.70870  0.47900  Biso   1.000  C
  H106     1.0000 0.90800  0.71870  0.44360  Biso   1.000  H
  O24      1.0000 0.67230  0.80600  0.46000  Biso   1.000  O
  C164     1.0000 0.91600  0.69850  0.53510  Biso   1.000  C
  H107     1.0000 0.95860  0.70150  0.53610  Biso   1.000  H
  C165     1.0000 0.88680  0.68480  0.58620  Biso   1.000  C
  H108     1.0000 0.90880  0.67770  0.62270  Biso   1.000  H
  C166     1.0000 0.82250  0.68060  0.58700  Biso   1.000  C
  C167     1.0000 0.79070  0.69110  0.53110  Biso   1.000  C
  C168     1.0000 0.78790  0.66980  0.64020  Biso   1.000  C
  H109     1.0000 0.80760  0.66250  0.67800  Biso   1.000  H
  C169     1.0000 0.72520  0.66950  0.63780  Biso   1.000  C
  H110     1.0000 0.70220  0.66340  0.67390  Biso   1.000  H
  C170     1.0000 0.69650  0.67840  0.58090  Biso   1.000  C
  C171     1.0000 0.63110  0.67890  0.57240  Biso   1.000  C
  H111     1.0000 0.61720  0.69190  0.53350  Biso   1.000  H
  C172     1.0000 0.58860  0.66320  0.61290  Biso   1.000  C
  H112     1.0000 0.60160  0.64930  0.65180  Biso   1.000  H
  C173     1.0000 0.52360  0.66570  0.60200  Biso   1.000  C
  C174     1.0000 0.48330  0.63960  0.64210  Biso   1.000  C
  H113     1.0000 0.49770  0.62080  0.67830  Biso   1.000  H
  C175     1.0000 0.42100  0.64060  0.63000  Biso   1.000  C
  H114     1.0000 0.39480  0.62020  0.65730  Biso   1.000  H
  C176     1.0000 0.43640  0.69520  0.54400  Biso   1.000  C
  H115     1.0000 0.42080  0.71730  0.51030  Biso   1.000  H
  C177     1.0000 0.49810  0.69280  0.55020  Biso   1.000  C
  H116     1.0000 0.52330  0.70950  0.51950  Biso   1.000  H
  C178     1.0000 0.61680  0.80330  0.44910  Biso   1.000  C
  C179     1.0000 0.57960  0.86080  0.45540  Biso   1.000  C
  C180     1.0000 0.60840  0.91250  0.47750  Biso   1.000  C
  H117     1.0000 0.64900  0.91050  0.49050  Biso   1.000  H
  C181     1.0000 0.57670  0.96720  0.48050  Biso   1.000  C
  H118     1.0000 0.59620  0.00220  0.49550  Biso   1.000  H
  C182     1.0000 0.51580  0.97040  0.46120  Biso   1.000  C
  C183     1.0000 0.48720  0.91780  0.44300  Biso   1.000  C
  H119     1.0000 0.44580  0.91880  0.43280  Biso   1.000  H
  C184     1.0000 0.51900  0.86260  0.43950  Biso   1.000  C
  H120     1.0000 0.49900  0.82710  0.42640  Biso   1.000  H
  N16      1.0000 0.39710  0.66940  0.58100  Biso   1.000  N
  Cd9      1.0000 0.29361  0.81047  0.67890  Biso   1.000  Cd
  O25      1.0000 0.28810  0.70818  0.67370  Biso   1.000  O
  N17      1.0000 0.31120  0.77114  0.77850  Biso   1.000  N
  C185     1.0000 0.29580  0.67750  0.72480  Biso   1.000  C
  O26      1.0000 0.24563  0.90900  0.68240  Biso   1.000  O
  C186     1.0000 0.29130  0.61460  0.72900  Biso   1.000  C
  H121     1.0000 0.28130  0.59200  0.69360  Biso   1.000  H
  O27      1.0000 0.19400  0.82770  0.71000  Biso   1.000  O
  C187     1.0000 0.30150  0.58400  0.78510  Biso   1.000  C
  H122     1.0000 0.29850  0.54140  0.78610  Biso   1.000  H
  C188     1.0000 0.31520  0.61320  0.83620  Biso   1.000  C
  H123     1.0000 0.32230  0.59120  0.87270  Biso   1.000  H
  C189     1.0000 0.31940  0.67750  0.83700  Biso   1.000  C
  C190     1.0000 0.30890  0.70930  0.78110  Biso   1.000  C
  C191     1.0000 0.33020  0.71210  0.89020  Biso   1.000  C
  H124     1.0000 0.33750  0.69240  0.92800  Biso   1.000  H
  C192     1.0000 0.33050  0.77480  0.88780  Biso   1.000  C
  H125     1.0000 0.33660  0.79780  0.92390  Biso   1.000  H
  C193     1.0000 0.32160  0.80350  0.83090  Biso   1.000  C
  C194     1.0000 0.32110  0.86890  0.82240  Biso   1.000  C
  H126     1.0000 0.30810  0.88280  0.78350  Biso   1.000  H
  C195     1.0000 0.33680  0.91140  0.86290  Biso   1.000  C
  H127     1.0000 0.35070  0.89840  0.90180  Biso   1.000  H
  C196     1.0000 0.33430  0.97640  0.85200  Biso   1.000  C
  C197     1.0000 0.36040  0.01670  0.89210  Biso   1.000  C
  H128     1.0000 0.37920  0.00230  0.92830  Biso   1.000  H
  C198     1.0000 0.35940  0.07900  0.88000  Biso   1.000  C
  H129     1.0000 0.37980  0.10520  0.90730  Biso   1.000  H
  C199     1.0000 0.30480  0.06360  0.79400  Biso   1.000  C
  H130     1.0000 0.28270  0.07920  0.76030  Biso   1.000  H
  C200     1.0000 0.30720  0.00190  0.80020  Biso   1.000  C
  H131     1.0000 0.29050  0.97670  0.76950  Biso   1.000  H
  C201     1.0000 0.19670  0.88320  0.69910  Biso   1.000  C
  C202     1.0000 0.13920  0.92040  0.70540  Biso   1.000  C
  C203     1.0000 0.08750  0.89160  0.72750  Biso   1.000  C
  H132     1.0000 0.08950  0.85100  0.74050  Biso   1.000  H
  C204     1.0000 0.03280  0.92330  0.73050  Biso   1.000  C
  H133     1.0000 0.99780  0.90380  0.74550  Biso   1.000  H
  C205     1.0000 0.02960  0.98420  0.71120  Biso   1.000  C
  C206     1.0000 0.08220  0.01280  0.69300  Biso   1.000  C
  H134     1.0000 0.08120  0.05420  0.68280  Biso   1.000  H
  C207     1.0000 0.13740  0.98100  0.68950  Biso   1.000  C
  H135     1.0000 0.17290  0.00100  0.67640  Biso   1.000  H
  N18      1.0000 0.33060  0.10290  0.83100  Biso   1.000  N
  Cd10     1.0000 0.79361  0.31047  0.17890  Biso   1.000  Cd
  O28      1.0000 0.78810  0.20818  0.17370  Biso   1.000  O
  N19      1.0000 0.81120  0.27114  0.27850  Biso   1.000  N
  C208     1.0000 0.79580  0.17750  0.22480  Biso   1.000  C
  O29      1.0000 0.74563  0.40900  0.18240  Biso   1.000  O
  C209     1.0000 0.79130  0.11460  0.22900  Biso   1.000  C
  H136     1.0000 0.78130  0.09200  0.19360  Biso   1.000  H
  O30      1.0000 0.69400  0.32770  0.21000  Biso   1.000  O
  C210     1.0000 0.80150  0.08400  0.28510  Biso   1.000  C
  H137     1.0000 0.79850  0.04140  0.28610  Biso   1.000  H
  C211     1.0000 0.81520  0.11320  0.33620  Biso   1.000  C
  H138     1.0000 0.82230  0.09120  0.37270  Biso   1.000  H
  C212     1.0000 0.81940  0.17750  0.33700  Biso   1.000  C
  C213     1.0000 0.80890  0.20930  0.28110  Biso   1.000  C
  C214     1.0000 0.83020  0.21210  0.39020  Biso   1.000  C
  H139     1.0000 0.83750  0.19240  0.42800  Biso   1.000  H
  C215     1.0000 0.83050  0.27480  0.38780  Biso   1.000  C
  H140     1.0000 0.83660  0.29780  0.42390  Biso   1.000  H
  C216     1.0000 0.82160  0.30350  0.33090  Biso   1.000  C
  C217     1.0000 0.82110  0.36890  0.32240  Biso   1.000  C
  H141     1.0000 0.80810  0.38280  0.28350  Biso   1.000  H
  C218     1.0000 0.83680  0.41140  0.36290  Biso   1.000  C
  H142     1.0000 0.85070  0.39840  0.40180  Biso   1.000  H
  C219     1.0000 0.83430  0.47640  0.35200  Biso   1.000  C
  C220     1.0000 0.86040  0.51670  0.39210  Biso   1.000  C
  H143     1.0000 0.87920  0.50230  0.42830  Biso   1.000  H
  C221     1.0000 0.85940  0.57900  0.38000  Biso   1.000  C
  H144     1.0000 0.87980  0.60520  0.40730  Biso   1.000  H
  C222     1.0000 0.80480  0.56360  0.29400  Biso   1.000  C
  H145     1.0000 0.78270  0.57920  0.26030  Biso   1.000  H
  C223     1.0000 0.80720  0.50190  0.30020  Biso   1.000  C
  H146     1.0000 0.79050  0.47670  0.26950  Biso   1.000  H
  C224     1.0000 0.69670  0.38320  0.19910  Biso   1.000  C
  C225     1.0000 0.63920  0.42040  0.20540  Biso   1.000  C
  C226     1.0000 0.58750  0.39160  0.22750  Biso   1.000  C
  H147     1.0000 0.58950  0.35100  0.24050  Biso   1.000  H
  C227     1.0000 0.53280  0.42330  0.23050  Biso   1.000  C
  H148     1.0000 0.49780  0.40380  0.24550  Biso   1.000  H
  C228     1.0000 0.52960  0.48420  0.21120  Biso   1.000  C
  C229     1.0000 0.58220  0.51280  0.19300  Biso   1.000  C
  H149     1.0000 0.58120  0.55420  0.18280  Biso   1.000  H
  C230     1.0000 0.63740  0.48100  0.18950  Biso   1.000  C
  H150     1.0000 0.67290  0.50100  0.17640  Biso   1.000  H
  N20      1.0000 0.83060  0.60290  0.33100  Biso   1.000  N
  Cd11     1.0000 0.70639  0.18953  0.67890  Biso   1.000  Cd
  O31      1.0000 0.71190  0.29182  0.67370  Biso   1.000  O
  N21      1.0000 0.68880  0.22886  0.77850  Biso   1.000  N
  C231     1.0000 0.70420  0.32250  0.72480  Biso   1.000  C
  O32      1.0000 0.75437  0.09100  0.68240  Biso   1.000  O
  C232     1.0000 0.70870  0.38540  0.72900  Biso   1.000  C
  H151     1.0000 0.71870  0.40800  0.69360  Biso   1.000  H
  O33      1.0000 0.80600  0.17230  0.71000  Biso   1.000  O
  C233     1.0000 0.69850  0.41600  0.78510  Biso   1.000  C
  H152     1.0000 0.70150  0.45860  0.78610  Biso   1.000  H
  C234     1.0000 0.68480  0.38680  0.83620  Biso   1.000  C
  H153     1.0000 0.67770  0.40880  0.87270  Biso   1.000  H
  C235     1.0000 0.68060  0.32250  0.83700  Biso   1.000  C
  C236     1.0000 0.69110  0.29070  0.78110  Biso   1.000  C
  C237     1.0000 0.66980  0.28790  0.89020  Biso   1.000  C
  H154     1.0000 0.66250  0.30760  0.92800  Biso   1.000  H
  C238     1.0000 0.66950  0.22520  0.88780  Biso   1.000  C
  H155     1.0000 0.66340  0.20220  0.92390  Biso   1.000  H
  C239     1.0000 0.67840  0.19650  0.83090  Biso   1.000  C
  C240     1.0000 0.67890  0.13110  0.82240  Biso   1.000  C
  H156     1.0000 0.69190  0.11720  0.78350  Biso   1.000  H
  C241     1.0000 0.66320  0.08860  0.86290  Biso   1.000  C
  H157     1.0000 0.64930  0.10160  0.90180  Biso   1.000  H
  C242     1.0000 0.66570  0.02360  0.85200  Biso   1.000  C
  C243     1.0000 0.63960  0.98330  0.89210  Biso   1.000  C
  H158     1.0000 0.62080  0.99770  0.92830  Biso   1.000  H
  C244     1.0000 0.64060  0.92100  0.88000  Biso   1.000  C
  H159     1.0000 0.62020  0.89480  0.90730  Biso   1.000  H
  C245     1.0000 0.69520  0.93640  0.79400  Biso   1.000  C
  H160     1.0000 0.71730  0.92080  0.76030  Biso   1.000  H
  C246     1.0000 0.69280  0.99810  0.80020  Biso   1.000  C
  H161     1.0000 0.70950  0.02330  0.76950  Biso   1.000  H
  C247     1.0000 0.80330  0.11680  0.69910  Biso   1.000  C
  C248     1.0000 0.86080  0.07960  0.70540  Biso   1.000  C
  C249     1.0000 0.91250  0.10840  0.72750  Biso   1.000  C
  H162     1.0000 0.91050  0.14900  0.74050  Biso   1.000  H
  C250     1.0000 0.96720  0.07670  0.73050  Biso   1.000  C
  H163     1.0000 0.00220  0.09620  0.74550  Biso   1.000  H
  C251     1.0000 0.97040  0.01580  0.71120  Biso   1.000  C
  C252     1.0000 0.91780  0.98720  0.69300  Biso   1.000  C
  H164     1.0000 0.91880  0.94580  0.68280  Biso   1.000  H
  C253     1.0000 0.86260  0.01900  0.68950  Biso   1.000  C
  H165     1.0000 0.82710  0.99900  0.67640  Biso   1.000  H
  N22      1.0000 0.66940  0.89710  0.83100  Biso   1.000  N
  Cd12     1.0000 0.20639  0.68953  0.17890  Biso   1.000  Cd
  O34      1.0000 0.21190  0.79182  0.17370  Biso   1.000  O
  N23      1.0000 0.18880  0.72886  0.27850  Biso   1.000  N
  C254     1.0000 0.20420  0.82250  0.22480  Biso   1.000  C
  O35      1.0000 0.25437  0.59100  0.18240  Biso   1.000  O
  C255     1.0000 0.20870  0.88540  0.22900  Biso   1.000  C
  H166     1.0000 0.21870  0.90800  0.19360  Biso   1.000  H
  O36      1.0000 0.30600  0.67230  0.21000  Biso   1.000  O
  C256     1.0000 0.19850  0.91600  0.28510  Biso   1.000  C
  H167     1.0000 0.20150  0.95860  0.28610  Biso   1.000  H
  C257     1.0000 0.18480  0.88680  0.33620  Biso   1.000  C
  H168     1.0000 0.17770  0.90880  0.37270  Biso   1.000  H
  C258     1.0000 0.18060  0.82250  0.33700  Biso   1.000  C
  C259     1.0000 0.19110  0.79070  0.28110  Biso   1.000  C
  C260     1.0000 0.16980  0.78790  0.39020  Biso   1.000  C
  H169     1.0000 0.16250  0.80760  0.42800  Biso   1.000  H
  C261     1.0000 0.16950  0.72520  0.38780  Biso   1.000  C
  H170     1.0000 0.16340  0.70220  0.42390  Biso   1.000  H
  C262     1.0000 0.17840  0.69650  0.33090  Biso   1.000  C
  C263     1.0000 0.17890  0.63110  0.32240  Biso   1.000  C
  H171     1.0000 0.19190  0.61720  0.28350  Biso   1.000  H
  C264     1.0000 0.16320  0.58860  0.36290  Biso   1.000  C
  H172     1.0000 0.14930  0.60160  0.40180  Biso   1.000  H
  C265     1.0000 0.16570  0.52360  0.35200  Biso   1.000  C
  C266     1.0000 0.13960  0.48330  0.39210  Biso   1.000  C
  H173     1.0000 0.12080  0.49770  0.42830  Biso   1.000  H
  C267     1.0000 0.14060  0.42100  0.38000  Biso   1.000  C
  H174     1.0000 0.12020  0.39480  0.40730  Biso   1.000  H
  C268     1.0000 0.19520  0.43640  0.29400  Biso   1.000  C
  H175     1.0000 0.21730  0.42080  0.26030  Biso   1.000  H
  C269     1.0000 0.19280  0.49810  0.30020  Biso   1.000  C
  H176     1.0000 0.20950  0.52330  0.26950  Biso   1.000  H
  C270     1.0000 0.30330  0.61680  0.19910  Biso   1.000  C
  C271     1.0000 0.36080  0.57960  0.20540  Biso   1.000  C
  C272     1.0000 0.41250  0.60840  0.22750  Biso   1.000  C
  H177     1.0000 0.41050  0.64900  0.24050  Biso   1.000  H
  C273     1.0000 0.46720  0.57670  0.23050  Biso   1.000  C
  H178     1.0000 0.50220  0.59620  0.24550  Biso   1.000  H
  C274     1.0000 0.47040  0.51580  0.21120  Biso   1.000  C
  C275     1.0000 0.41780  0.48720  0.19300  Biso   1.000  C
  H179     1.0000 0.41880  0.44580  0.18280  Biso   1.000  H
  C276     1.0000 0.36260  0.51900  0.18950  Biso   1.000  C
  H180     1.0000 0.32710  0.49900  0.17640  Biso   1.000  H
  N24      1.0000 0.16940  0.39710  0.33100  Biso   1.000  N
  Cd13     1.0000 0.68953  0.79361  0.82110  Biso   1.000  Cd
  O37      1.0000 0.79182  0.78810  0.82630  Biso   1.000  O
  N25      1.0000 0.72886  0.81120  0.72150  Biso   1.000  N
  C277     1.0000 0.82250  0.79580  0.77520  Biso   1.000  C
  O38      1.0000 0.59100  0.74563  0.81760  Biso   1.000  O
  C278     1.0000 0.88540  0.79130  0.77100  Biso   1.000  C
  H181     1.0000 0.90800  0.78130  0.80640  Biso   1.000  H
  O39      1.0000 0.67230  0.69400  0.79000  Biso   1.000  O
  C279     1.0000 0.91600  0.80150  0.71490  Biso   1.000  C
  H182     1.0000 0.95860  0.79850  0.71390  Biso   1.000  H
  C280     1.0000 0.88680  0.81520  0.66380  Biso   1.000  C
  H183     1.0000 0.90880  0.82230  0.62730  Biso   1.000  H
  C281     1.0000 0.82250  0.81940  0.66300  Biso   1.000  C
  C282     1.0000 0.79070  0.80890  0.71890  Biso   1.000  C
  C283     1.0000 0.78790  0.83020  0.60980  Biso   1.000  C
  H184     1.0000 0.80760  0.83750  0.57200  Biso   1.000  H
  C284     1.0000 0.72520  0.83050  0.61220  Biso   1.000  C
  H185     1.0000 0.70220  0.83660  0.57610  Biso   1.000  H
  C285     1.0000 0.69650  0.82160  0.66910  Biso   1.000  C
  C286     1.0000 0.63110  0.82110  0.67760  Biso   1.000  C
  H186     1.0000 0.61720  0.80810  0.71650  Biso   1.000  H
  C287     1.0000 0.58860  0.83680  0.63710  Biso   1.000  C
  H187     1.0000 0.60160  0.85070  0.59820  Biso   1.000  H
  C288     1.0000 0.52360  0.83430  0.64800  Biso   1.000  C
  C289     1.0000 0.48330  0.86040  0.60790  Biso   1.000  C
  H188     1.0000 0.49770  0.87920  0.57170  Biso   1.000  H
  C290     1.0000 0.42100  0.85940  0.62000  Biso   1.000  C
  H189     1.0000 0.39480  0.87980  0.59270  Biso   1.000  H
  C291     1.0000 0.43640  0.80480  0.70600  Biso   1.000  C
  H190     1.0000 0.42080  0.78270  0.73970  Biso   1.000  H
  C292     1.0000 0.49810  0.80720  0.69980  Biso   1.000  C
  H191     1.0000 0.52330  0.79050  0.73050  Biso   1.000  H
  C293     1.0000 0.61680  0.69670  0.80090  Biso   1.000  C
  C294     1.0000 0.57960  0.63920  0.79460  Biso   1.000  C
  C295     1.0000 0.60840  0.58750  0.77250  Biso   1.000  C
  H192     1.0000 0.64900  0.58950  0.75950  Biso   1.000  H
  C296     1.0000 0.57670  0.53280  0.76950  Biso   1.000  C
  H193     1.0000 0.59620  0.49780  0.75450  Biso   1.000  H
  C297     1.0000 0.51580  0.52960  0.78880  Biso   1.000  C
  C298     1.0000 0.48720  0.58220  0.80700  Biso   1.000  C
  H194     1.0000 0.44580  0.58120  0.81720  Biso   1.000  H
  C299     1.0000 0.51900  0.63740  0.81050  Biso   1.000  C
  H195     1.0000 0.49900  0.67290  0.82360  Biso   1.000  H
  N26      1.0000 0.39710  0.83060  0.66900  Biso   1.000  N
  Cd14     1.0000 0.18953  0.29361  0.32110  Biso   1.000  Cd
  O40      1.0000 0.29182  0.28810  0.32630  Biso   1.000  O
  N27      1.0000 0.22886  0.31120  0.22150  Biso   1.000  N
  C300     1.0000 0.32250  0.29580  0.27520  Biso   1.000  C
  O41      1.0000 0.09100  0.24563  0.31760  Biso   1.000  O
  C301     1.0000 0.38540  0.29130  0.27100  Biso   1.000  C
  H196     1.0000 0.40800  0.28130  0.30640  Biso   1.000  H
  O42      1.0000 0.17230  0.19400  0.29000  Biso   1.000  O
  C302     1.0000 0.41600  0.30150  0.21490  Biso   1.000  C
  H197     1.0000 0.45860  0.29850  0.21390  Biso   1.000  H
  C303     1.0000 0.38680  0.31520  0.16380  Biso   1.000  C
  H198     1.0000 0.40880  0.32230  0.12730  Biso   1.000  H
  C304     1.0000 0.32250  0.31940  0.16300  Biso   1.000  C
  C305     1.0000 0.29070  0.30890  0.21890  Biso   1.000  C
  C306     1.0000 0.28790  0.33020  0.10980  Biso   1.000  C
  H199     1.0000 0.30760  0.33750  0.07200  Biso   1.000  H
  C307     1.0000 0.22520  0.33050  0.11220  Biso   1.000  C
  H200     1.0000 0.20220  0.33660  0.07610  Biso   1.000  H
  C308     1.0000 0.19650  0.32160  0.16910  Biso   1.000  C
  C309     1.0000 0.13110  0.32110  0.17760  Biso   1.000  C
  H201     1.0000 0.11720  0.30810  0.21650  Biso   1.000  H
  C310     1.0000 0.08860  0.33680  0.13710  Biso   1.000  C
  H202     1.0000 0.10160  0.35070  0.09820  Biso   1.000  H
  C311     1.0000 0.02360  0.33430  0.14800  Biso   1.000  C
  C312     1.0000 0.98330  0.36040  0.10790  Biso   1.000  C
  H203     1.0000 0.99770  0.37920  0.07170  Biso   1.000  H
  C313     1.0000 0.92100  0.35940  0.12000  Biso   1.000  C
  H204     1.0000 0.89480  0.37980  0.09270  Biso   1.000  H
  C314     1.0000 0.93640  0.30480  0.20600  Biso   1.000  C
  H205     1.0000 0.92080  0.28270  0.23970  Biso   1.000  H
  C315     1.0000 0.99810  0.30720  0.19980  Biso   1.000  C
  H206     1.0000 0.02330  0.29050  0.23050  Biso   1.000  H
  C316     1.0000 0.11680  0.19670  0.30090  Biso   1.000  C
  C317     1.0000 0.07960  0.13920  0.29460  Biso   1.000  C
  C318     1.0000 0.10840  0.08750  0.27250  Biso   1.000  C
  H207     1.0000 0.14900  0.08950  0.25950  Biso   1.000  H
  C319     1.0000 0.07670  0.03280  0.26950  Biso   1.000  C
  H208     1.0000 0.09620  0.99780  0.25450  Biso   1.000  H
  C320     1.0000 0.01580  0.02960  0.28880  Biso   1.000  C
  C321     1.0000 0.98720  0.08220  0.30700  Biso   1.000  C
  H209     1.0000 0.94580  0.08120  0.31720  Biso   1.000  H
  C322     1.0000 0.01900  0.13740  0.31050  Biso   1.000  C
  H210     1.0000 0.99900  0.17290  0.32360  Biso   1.000  H
  N28      1.0000 0.89710  0.33060  0.16900  Biso   1.000  N
  Cd15     1.0000 0.31047  0.20639  0.82110  Biso   1.000  Cd
  O43      1.0000 0.20818  0.21190  0.82630  Biso   1.000  O
  N29      1.0000 0.27114  0.18880  0.72150  Biso   1.000  N
  C323     1.0000 0.17750  0.20420  0.77520  Biso   1.000  C
  O44      1.0000 0.40900  0.25437  0.81760  Biso   1.000  O
  C324     1.0000 0.11460  0.20870  0.77100  Biso   1.000  C
  H211     1.0000 0.09200  0.21870  0.80640  Biso   1.000  H
  O45      1.0000 0.32770  0.30600  0.79000  Biso   1.000  O
  C325     1.0000 0.08400  0.19850  0.71490  Biso   1.000  C
  H212     1.0000 0.04140  0.20150  0.71390  Biso   1.000  H
  C326     1.0000 0.11320  0.18480  0.66380  Biso   1.000  C
  H213     1.0000 0.09120  0.17770  0.62730  Biso   1.000  H
  C327     1.0000 0.17750  0.18060  0.66300  Biso   1.000  C
  C328     1.0000 0.20930  0.19110  0.71890  Biso   1.000  C
  C329     1.0000 0.21210  0.16980  0.60980  Biso   1.000  C
  H214     1.0000 0.19240  0.16250  0.57200  Biso   1.000  H
  C330     1.0000 0.27480  0.16950  0.61220  Biso   1.000  C
  H215     1.0000 0.29780  0.16340  0.57610  Biso   1.000  H
  C331     1.0000 0.30350  0.17840  0.66910  Biso   1.000  C
  C332     1.0000 0.36890  0.17890  0.67760  Biso   1.000  C
  H216     1.0000 0.38280  0.19190  0.71650  Biso   1.000  H
  C333     1.0000 0.41140  0.16320  0.63710  Biso   1.000  C
  H217     1.0000 0.39840  0.14930  0.59820  Biso   1.000  H
  C334     1.0000 0.47640  0.16570  0.64800  Biso   1.000  C
  C335     1.0000 0.51670  0.13960  0.60790  Biso   1.000  C
  H218     1.0000 0.50230  0.12080  0.57170  Biso   1.000  H
  C336     1.0000 0.57900  0.14060  0.62000  Biso   1.000  C
  H219     1.0000 0.60520  0.12020  0.59270  Biso   1.000  H
  C337     1.0000 0.56360  0.19520  0.70600  Biso   1.000  C
  H220     1.0000 0.57920  0.21730  0.73970  Biso   1.000  H
  C338     1.0000 0.50190  0.19280  0.69980  Biso   1.000  C
  H221     1.0000 0.47670  0.20950  0.73050  Biso   1.000  H
  C339     1.0000 0.38320  0.30330  0.80090  Biso   1.000  C
  C340     1.0000 0.42040  0.36080  0.79460  Biso   1.000  C
  C341     1.0000 0.39160  0.41250  0.77250  Biso   1.000  C
  H222     1.0000 0.35100  0.41050  0.75950  Biso   1.000  H
  C342     1.0000 0.42330  0.46720  0.76950  Biso   1.000  C
  H223     1.0000 0.40380  0.50220  0.75450  Biso   1.000  H
  C343     1.0000 0.48420  0.47040  0.78880  Biso   1.000  C
  C344     1.0000 0.51280  0.41780  0.80700  Biso   1.000  C
  H224     1.0000 0.55420  0.41880  0.81720  Biso   1.000  H
  C345     1.0000 0.48100  0.36260  0.81050  Biso   1.000  C
  H225     1.0000 0.50100  0.32710  0.82360  Biso   1.000  H
  N30      1.0000 0.60290  0.16940  0.66900  Biso   1.000  N
  Cd16     1.0000 0.81047  0.70639  0.32110  Biso   1.000  Cd
  O46      1.0000 0.70818  0.71190  0.32630  Biso   1.000  O
  N31      1.0000 0.77114  0.68880  0.22150  Biso   1.000  N
  C346     1.0000 0.67750  0.70420  0.27520  Biso   1.000  C
  O47      1.0000 0.90900  0.75437  0.31760  Biso   1.000  O
  C347     1.0000 0.61460  0.70870  0.27100  Biso   1.000  C
  H226     1.0000 0.59200  0.71870  0.30640  Biso   1.000  H
  O48      1.0000 0.82770  0.80600  0.29000  Biso   1.000  O
  C348     1.0000 0.58400  0.69850  0.21490  Biso   1.000  C
  H227     1.0000 0.54140  0.70150  0.21390  Biso   1.000  H
  C349     1.0000 0.61320  0.68480  0.16380  Biso   1.000  C
  H228     1.0000 0.59120  0.67770  0.12730  Biso   1.000  H
  C350     1.0000 0.67750  0.68060  0.16300  Biso   1.000  C
  C351     1.0000 0.70930  0.69110  0.21890  Biso   1.000  C
  C352     1.0000 0.71210  0.66980  0.10980  Biso   1.000  C
  H229     1.0000 0.69240  0.66250  0.07200  Biso   1.000  H
  C353     1.0000 0.77480  0.66950  0.11220  Biso   1.000  C
  H230     1.0000 0.79780  0.66340  0.07610  Biso   1.000  H
  C354     1.0000 0.80350  0.67840  0.16910  Biso   1.000  C
  C355     1.0000 0.86890  0.67890  0.17760  Biso   1.000  C
  H231     1.0000 0.88280  0.69190  0.21650  Biso   1.000  H
  C356     1.0000 0.91140  0.66320  0.13710  Biso   1.000  C
  H232     1.0000 0.89840  0.64930  0.09820  Biso   1.000  H
  C357     1.0000 0.97640  0.66570  0.14800  Biso   1.000  C
  C358     1.0000 0.01670  0.63960  0.10790  Biso   1.000  C
  H233     1.0000 0.00230  0.62080  0.07170  Biso   1.000  H
  C359     1.0000 0.07900  0.64060  0.12000  Biso   1.000  C
  H234     1.0000 0.10520  0.62020  0.09270  Biso   1.000  H
  C360     1.0000 0.06360  0.69520  0.20600  Biso   1.000  C
  H235     1.0000 0.07920  0.71730  0.23970  Biso   1.000  H
  C361     1.0000 0.00190  0.69280  0.19980  Biso   1.000  C
  H236     1.0000 0.97670  0.70950  0.23050  Biso   1.000  H
  C362     1.0000 0.88320  0.80330  0.30090  Biso   1.000  C
  C363     1.0000 0.92040  0.86080  0.29460  Biso   1.000  C
  C364     1.0000 0.89160  0.91250  0.27250  Biso   1.000  C
  H237     1.0000 0.85100  0.91050  0.25950  Biso   1.000  H
  C365     1.0000 0.92330  0.96720  0.26950  Biso   1.000  C
  H238     1.0000 0.90380  0.00220  0.25450  Biso   1.000  H
  C366     1.0000 0.98420  0.97040  0.28880  Biso   1.000  C
  C367     1.0000 0.01280  0.91780  0.30700  Biso   1.000  C
  H239     1.0000 0.05420  0.91880  0.31720  Biso   1.000  H
  C368     1.0000 0.98100  0.86260  0.31050  Biso   1.000  C
  H240     1.0000 0.00100  0.82710  0.32360  Biso   1.000  H
  N32      1.0000 0.10290  0.66940  0.16900  Biso   1.000  N
