data_GUSMAJ_clean
_audit_creation_date              2014-07-02
_audit_creation_method            'Materials Studio'
_symmetry_space_group_name_H-M    'P1'
_symmetry_Int_Tables_number       1
_symmetry_cell_setting            triclinic
loop_
_symmetry_equiv_pos_as_xyz
  x,y,z
_cell_length_a                    23.8330
_cell_length_b                    23.8330
_cell_length_c                    23.8330
_cell_angle_alpha                 109.4710
_cell_angle_beta                  109.4710
_cell_angle_gamma                 109.4710
loop_
_atom_site_label
_atom_site_type_symbol
_atom_site_fract_x
_atom_site_fract_y
_atom_site_fract_z
_atom_site_U_iso_or_equiv
_atom_site_adp_type
_atom_site_occupancy
Eu1    Eu    0.45234   0.45234   0.95234   0.01267  Uiso   1.00
Eu2    Eu    0.00000   0.50000   0.54766   0.01267  Uiso   1.00
Eu3    Eu    0.50000   0.04766   0.50000   0.01267  Uiso   1.00
Eu4    Eu    0.04766   0.00000   0.00000   0.01267  Uiso   1.00
Eu5    Eu    0.00000   0.50000   0.04766   0.01267  Uiso   1.00
Eu6    Eu    0.95234   0.95234   0.45234   0.01267  Uiso   1.00
Eu7    Eu    0.50000   0.54766   0.50000   0.01267  Uiso   1.00
Eu8    Eu    0.54766   0.00000   0.00000   0.01267  Uiso   1.00
H1     H     0.64600   0.50080   0.18080   0.01267  Uiso   1.00
H2     H     0.70120   0.38060   0.22140   0.01267  Uiso   1.00
H3     H     0.63020   0.31250   0.16650   0.01267  Uiso   1.00
H4     H     0.67380   0.31490   0.10450   0.01267  Uiso   1.00
H5     H     0.69090   0.30420   0.00910   0.01267  Uiso   1.00
H6     H     0.65930   0.35640   0.95290   0.01267  Uiso   1.00
H7     H     0.60710   0.41450   0.98320   0.01267  Uiso   1.00
H8     H     0.61850   0.59470   0.17540   0.01267  Uiso   1.00
H9     H     0.54280   0.53280   0.13580   0.01267  Uiso   1.00
H10    H     0.51920   0.46770   0.21190   0.01267  Uiso   1.00
H11    H     0.54700   0.53010   0.33450   0.01267  Uiso   1.00
H12    H     0.65050   0.64870   0.39280   0.01267  Uiso   1.00
H13    H     0.82000   0.46520   0.31920   0.01267  Uiso   1.00
H14    H     0.65920   0.47980   0.27860   0.01267  Uiso   1.00
H15    H     0.64600   0.46370   0.33350   0.01267  Uiso   1.00
H16    H     0.71040   0.56930   0.39550   0.01267  Uiso   1.00
H17    H     0.79510   0.68180   0.49090   0.01267  Uiso   1.00
H18    H     0.90350   0.70640   0.54710   0.01267  Uiso   1.00
H19    H     0.93130   0.62390   0.51680   0.01267  Uiso   1.00
H20    H     0.91930   0.44310   0.32460   0.01267  Uiso   1.00
H21    H     0.89700   0.40700   0.36420   0.01267  Uiso   1.00
H22    H     0.75580   0.30730   0.28810   0.01267  Uiso   1.00
H23    H     0.69560   0.21250   0.16550   0.01267  Uiso   1.00
H24    H     0.75590   0.25770   0.10720   0.01267  Uiso   1.00
H25    H     0.68000   0.99920   0.64520   0.01267  Uiso   1.00
H26    H     0.84080   0.11940   0.82060   0.01267  Uiso   1.00
H27    H     0.85400   0.18750   0.81770   0.01267  Uiso   1.00
H28    H     0.78960   0.18510   0.85890   0.01267  Uiso   1.00
H29    H     0.70490   0.19580   0.88670   0.01267  Uiso   1.00
H30    H     0.59650   0.14360   0.80290   0.01267  Uiso   1.00
H31    H     0.56870   0.08550   0.69260   0.01267  Uiso   1.00
H32    H     0.58070   0.90530   0.52380   0.01267  Uiso   1.00
H33    H     0.60300   0.96720   0.51000   0.01267  Uiso   1.00
H34    H     0.74420   0.03230   0.55150   0.01267  Uiso   1.00
H35    H     0.80440   0.96990   0.51690   0.01267  Uiso   1.00
H36    H     0.74410   0.85130   0.50180   0.01267  Uiso   1.00
H37    H     0.85400   0.03480   0.85480   0.01267  Uiso   1.00
H38    H     0.79880   0.02020   0.67940   0.01267  Uiso   1.00
H39    H     0.86980   0.03630   0.68230   0.01267  Uiso   1.00
H40    H     0.82620   0.93070   0.64110   0.01267  Uiso   1.00
H41    H     0.80910   0.81820   0.61330   0.01267  Uiso   1.00
H42    H     0.84070   0.79360   0.69710   0.01267  Uiso   1.00
H43    H     0.89290   0.87610   0.80740   0.01267  Uiso   1.00
H44    H     0.88150   0.05690   0.97620   0.01267  Uiso   1.00
H45    H     0.95720   0.09300   0.99000   0.01267  Uiso   1.00
H46    H     0.98080   0.19270   0.94850   0.01267  Uiso   1.00
H47    H     0.95300   0.28750   0.98310   0.01267  Uiso   1.00
H48    H     0.84950   0.24230   0.99820   0.01267  Uiso   1.00
H49    H     0.14520   0.68000   0.49920   0.01267  Uiso   1.00
H50    H     0.32060   0.84080   0.61940   0.01267  Uiso   1.00
H51    H     0.31770   0.85400   0.68750   0.01267  Uiso   1.00
H52    H     0.35890   0.78960   0.68510   0.01267  Uiso   1.00
H53    H     0.38670   0.70490   0.69580   0.01267  Uiso   1.00
H54    H     0.30290   0.59650   0.64360   0.01267  Uiso   1.00
H55    H     0.19260   0.56870   0.58550   0.01267  Uiso   1.00
H56    H     0.02380   0.58070   0.40530   0.01267  Uiso   1.00
H57    H     0.01000   0.60300   0.46720   0.01267  Uiso   1.00
H58    H     0.05150   0.74420   0.53230   0.01267  Uiso   1.00
H59    H     0.01690   0.80440   0.46990   0.01267  Uiso   1.00
H60    H     0.00180   0.74410   0.35130   0.01267  Uiso   1.00
H61    H     0.35480   0.85400   0.53480   0.01267  Uiso   1.00
H62    H     0.17940   0.79880   0.52020   0.01267  Uiso   1.00
H63    H     0.18230   0.86980   0.53630   0.01267  Uiso   1.00
H64    H     0.14110   0.82620   0.43070   0.01267  Uiso   1.00
H65    H     0.11330   0.80910   0.31820   0.01267  Uiso   1.00
H66    H     0.19710   0.84070   0.29360   0.01267  Uiso   1.00
H67    H     0.30740   0.89290   0.37610   0.01267  Uiso   1.00
H68    H     0.47620   0.88150   0.55690   0.01267  Uiso   1.00
H69    H     0.49000   0.95720   0.59300   0.01267  Uiso   1.00
H70    H     0.44850   0.98080   0.69270   0.01267  Uiso   1.00
H71    H     0.48310   0.95300   0.78750   0.01267  Uiso   1.00
H72    H     0.49820   0.84950   0.74230   0.01267  Uiso   1.00
H73    H     0.68080   0.64600   0.00080   0.01267  Uiso   1.00
H74    H     0.72140   0.70120   0.88060   0.01267  Uiso   1.00
H75    H     0.66650   0.63020   0.81250   0.01267  Uiso   1.00
H76    H     0.60450   0.67380   0.81490   0.01267  Uiso   1.00
H77    H     0.50910   0.69090   0.80420   0.01267  Uiso   1.00
H78    H     0.45290   0.65930   0.85640   0.01267  Uiso   1.00
H79    H     0.48320   0.60710   0.91450   0.01267  Uiso   1.00
H80    H     0.67540   0.61850   0.09470   0.01267  Uiso   1.00
H81    H     0.63580   0.54280   0.03280   0.01267  Uiso   1.00
H82    H     0.71190   0.51920   0.96770   0.01267  Uiso   1.00
H83    H     0.83450   0.54700   0.03010   0.01267  Uiso   1.00
H84    H     0.89280   0.65050   0.14870   0.01267  Uiso   1.00
H85    H     0.81920   0.82000   0.96520   0.01267  Uiso   1.00
H86    H     0.77860   0.65920   0.97980   0.01267  Uiso   1.00
H87    H     0.83350   0.64600   0.96370   0.01267  Uiso   1.00
H88    H     0.89550   0.71040   0.06930   0.01267  Uiso   1.00
H89    H     0.99090   0.79510   0.18180   0.01267  Uiso   1.00
H90    H     0.04710   0.90350   0.20640   0.01267  Uiso   1.00
H91    H     0.01680   0.93130   0.12390   0.01267  Uiso   1.00
H92    H     0.82460   0.91930   0.94310   0.01267  Uiso   1.00
H93    H     0.86420   0.89700   0.90700   0.01267  Uiso   1.00
H94    H     0.78810   0.75580   0.80730   0.01267  Uiso   1.00
H95    H     0.66550   0.69560   0.71250   0.01267  Uiso   1.00
H96    H     0.60720   0.75590   0.75770   0.01267  Uiso   1.00
H97    H     0.46520   0.81920   0.32000   0.01267  Uiso   1.00
H98    H     0.47980   0.77860   0.15920   0.01267  Uiso   1.00
H99    H     0.46370   0.83350   0.14600   0.01267  Uiso   1.00
H100   H     0.56930   0.89550   0.21040   0.01267  Uiso   1.00
H101   H     0.68180   0.99090   0.29510   0.01267  Uiso   1.00
H102   H     0.70640   0.04710   0.40350   0.01267  Uiso   1.00
H103   H     0.62390   0.01680   0.43130   0.01267  Uiso   1.00
H104   H     0.44310   0.82460   0.41930   0.01267  Uiso   1.00
H105   H     0.40700   0.86420   0.39700   0.01267  Uiso   1.00
H106   H     0.30730   0.78810   0.25580   0.01267  Uiso   1.00
H107   H     0.21250   0.66550   0.19560   0.01267  Uiso   1.00
H108   H     0.25770   0.60720   0.25590   0.01267  Uiso   1.00
H109   H     0.50080   0.68080   0.14600   0.01267  Uiso   1.00
H110   H     0.38060   0.72140   0.20120   0.01267  Uiso   1.00
H111   H     0.31250   0.66650   0.13020   0.01267  Uiso   1.00
H112   H     0.31490   0.60450   0.17380   0.01267  Uiso   1.00
H113   H     0.30420   0.50910   0.19090   0.01267  Uiso   1.00
H114   H     0.35640   0.45290   0.15930   0.01267  Uiso   1.00
H115   H     0.41450   0.48320   0.10710   0.01267  Uiso   1.00
H116   H     0.59470   0.67540   0.11850   0.01267  Uiso   1.00
H117   H     0.53280   0.63580   0.04280   0.01267  Uiso   1.00
H118   H     0.46770   0.71190   0.01920   0.01267  Uiso   1.00
H119   H     0.53010   0.83450   0.04700   0.01267  Uiso   1.00
H120   H     0.64870   0.89280   0.15050   0.01267  Uiso   1.00
H121   H     0.03480   0.35480   0.35400   0.01267  Uiso   1.00
H122   H     0.02020   0.17940   0.29880   0.01267  Uiso   1.00
H123   H     0.03630   0.18230   0.36980   0.01267  Uiso   1.00
H124   H     0.93070   0.14110   0.32620   0.01267  Uiso   1.00
H125   H     0.81820   0.11330   0.30910   0.01267  Uiso   1.00
H126   H     0.79360   0.19710   0.34070   0.01267  Uiso   1.00
H127   H     0.87610   0.30740   0.39290   0.01267  Uiso   1.00
H128   H     0.05690   0.47620   0.38150   0.01267  Uiso   1.00
H129   H     0.09300   0.49000   0.45720   0.01267  Uiso   1.00
H130   H     0.19270   0.44850   0.48080   0.01267  Uiso   1.00
H131   H     0.28750   0.48310   0.45300   0.01267  Uiso   1.00
H132   H     0.24230   0.49820   0.34950   0.01267  Uiso   1.00
H133   H     0.99920   0.14520   0.18000   0.01267  Uiso   1.00
H134   H     0.11940   0.32060   0.34080   0.01267  Uiso   1.00
H135   H     0.18750   0.31770   0.35400   0.01267  Uiso   1.00
H136   H     0.18510   0.35890   0.28960   0.01267  Uiso   1.00
H137   H     0.19580   0.38670   0.20490   0.01267  Uiso   1.00
H138   H     0.14360   0.30290   0.09650   0.01267  Uiso   1.00
H139   H     0.08550   0.19260   0.06870   0.01267  Uiso   1.00
H140   H     0.90530   0.02380   0.08070   0.01267  Uiso   1.00
H141   H     0.96720   0.01000   0.10300   0.01267  Uiso   1.00
H142   H     0.03230   0.05150   0.24420   0.01267  Uiso   1.00
H143   H     0.96990   0.01690   0.30440   0.01267  Uiso   1.00
H144   H     0.85130   0.00180   0.24410   0.01267  Uiso   1.00
H145   H     0.96520   0.32000   0.81920   0.01267  Uiso   1.00
H146   H     0.97980   0.15920   0.77860   0.01267  Uiso   1.00
H147   H     0.96370   0.14600   0.83350   0.01267  Uiso   1.00
H148   H     0.06930   0.21040   0.89550   0.01267  Uiso   1.00
H149   H     0.18180   0.29510   0.99090   0.01267  Uiso   1.00
H150   H     0.20640   0.40350   0.04710   0.01267  Uiso   1.00
H151   H     0.12390   0.43130   0.01680   0.01267  Uiso   1.00
H152   H     0.94310   0.41930   0.82460   0.01267  Uiso   1.00
H153   H     0.90700   0.39700   0.86420   0.01267  Uiso   1.00
H154   H     0.80730   0.25580   0.78810   0.01267  Uiso   1.00
H155   H     0.71250   0.19560   0.66550   0.01267  Uiso   1.00
H156   H     0.75770   0.25590   0.60720   0.01267  Uiso   1.00
H157   H     0.00080   0.14600   0.68080   0.01267  Uiso   1.00
H158   H     0.88060   0.20120   0.72140   0.01267  Uiso   1.00
H159   H     0.81250   0.13020   0.66650   0.01267  Uiso   1.00
H160   H     0.81490   0.17380   0.60450   0.01267  Uiso   1.00
H161   H     0.80420   0.19090   0.50910   0.01267  Uiso   1.00
H162   H     0.85640   0.15930   0.45290   0.01267  Uiso   1.00
H163   H     0.91450   0.10710   0.48320   0.01267  Uiso   1.00
H164   H     0.09470   0.11850   0.67540   0.01267  Uiso   1.00
H165   H     0.03280   0.04280   0.63580   0.01267  Uiso   1.00
H166   H     0.96770   0.01920   0.71190   0.01267  Uiso   1.00
H167   H     0.03010   0.04700   0.83450   0.01267  Uiso   1.00
H168   H     0.14870   0.15050   0.89280   0.01267  Uiso   1.00
H169   H     0.53480   0.35400   0.35480   0.01267  Uiso   1.00
H170   H     0.52020   0.29880   0.17940   0.01267  Uiso   1.00
H171   H     0.53630   0.36980   0.18230   0.01267  Uiso   1.00
H172   H     0.43070   0.32620   0.14110   0.01267  Uiso   1.00
H173   H     0.31820   0.30910   0.11330   0.01267  Uiso   1.00
H174   H     0.29360   0.34070   0.19710   0.01267  Uiso   1.00
H175   H     0.37610   0.39290   0.30740   0.01267  Uiso   1.00
H176   H     0.55690   0.38150   0.47620   0.01267  Uiso   1.00
H177   H     0.59300   0.45720   0.49000   0.01267  Uiso   1.00
H178   H     0.69270   0.48080   0.44850   0.01267  Uiso   1.00
H179   H     0.78750   0.45300   0.48310   0.01267  Uiso   1.00
H180   H     0.74230   0.34950   0.49820   0.01267  Uiso   1.00
H181   H     0.49920   0.18000   0.14520   0.01267  Uiso   1.00
H182   H     0.61940   0.34080   0.32060   0.01267  Uiso   1.00
H183   H     0.68750   0.35400   0.31770   0.01267  Uiso   1.00
H184   H     0.68510   0.28960   0.35890   0.01267  Uiso   1.00
H185   H     0.69580   0.20490   0.38670   0.01267  Uiso   1.00
H186   H     0.64360   0.09650   0.30290   0.01267  Uiso   1.00
H187   H     0.58550   0.06870   0.19260   0.01267  Uiso   1.00
H188   H     0.40530   0.08070   0.02380   0.01267  Uiso   1.00
H189   H     0.46720   0.10300   0.01000   0.01267  Uiso   1.00
H190   H     0.53230   0.24420   0.05150   0.01267  Uiso   1.00
H191   H     0.46990   0.30440   0.01690   0.01267  Uiso   1.00
H192   H     0.35130   0.24410   0.00180   0.01267  Uiso   1.00
H193   H     0.14600   0.18080   0.50080   0.01267  Uiso   1.00
H194   H     0.20120   0.22140   0.38060   0.01267  Uiso   1.00
H195   H     0.13020   0.16650   0.31250   0.01267  Uiso   1.00
H196   H     0.17380   0.10450   0.31490   0.01267  Uiso   1.00
H197   H     0.19090   0.00910   0.30420   0.01267  Uiso   1.00
H198   H     0.15930   0.95290   0.35640   0.01267  Uiso   1.00
H199   H     0.10710   0.98320   0.41450   0.01267  Uiso   1.00
H200   H     0.11850   0.17540   0.59470   0.01267  Uiso   1.00
H201   H     0.04280   0.13580   0.53280   0.01267  Uiso   1.00
H202   H     0.01920   0.21190   0.46770   0.01267  Uiso   1.00
H203   H     0.04700   0.33450   0.53010   0.01267  Uiso   1.00
H204   H     0.15050   0.39280   0.64870   0.01267  Uiso   1.00
H205   H     0.32000   0.31920   0.46520   0.01267  Uiso   1.00
H206   H     0.15920   0.27860   0.47980   0.01267  Uiso   1.00
H207   H     0.14600   0.33350   0.46370   0.01267  Uiso   1.00
H208   H     0.21040   0.39550   0.56930   0.01267  Uiso   1.00
H209   H     0.29510   0.49090   0.68180   0.01267  Uiso   1.00
H210   H     0.40350   0.54710   0.70640   0.01267  Uiso   1.00
H211   H     0.43130   0.51680   0.62390   0.01267  Uiso   1.00
H212   H     0.41930   0.32460   0.44310   0.01267  Uiso   1.00
H213   H     0.39700   0.36420   0.40700   0.01267  Uiso   1.00
H214   H     0.25580   0.28810   0.30730   0.01267  Uiso   1.00
H215   H     0.19560   0.16550   0.21250   0.01267  Uiso   1.00
H216   H     0.25590   0.10720   0.25770   0.01267  Uiso   1.00
H217   H     0.18000   0.64520   0.99920   0.01267  Uiso   1.00
H218   H     0.34080   0.82060   0.11940   0.01267  Uiso   1.00
H219   H     0.35400   0.81770   0.18750   0.01267  Uiso   1.00
H220   H     0.28960   0.85890   0.18510   0.01267  Uiso   1.00
H221   H     0.20490   0.88670   0.19580   0.01267  Uiso   1.00
H222   H     0.09650   0.80290   0.14360   0.01267  Uiso   1.00
H223   H     0.06870   0.69260   0.08550   0.01267  Uiso   1.00
H224   H     0.08070   0.52380   0.90530   0.01267  Uiso   1.00
H225   H     0.10300   0.51000   0.96720   0.01267  Uiso   1.00
H226   H     0.24420   0.55150   0.03230   0.01267  Uiso   1.00
H227   H     0.30440   0.51690   0.96990   0.01267  Uiso   1.00
H228   H     0.24410   0.50180   0.85130   0.01267  Uiso   1.00
H229   H     0.35400   0.85480   0.03480   0.01267  Uiso   1.00
H230   H     0.29880   0.67940   0.02020   0.01267  Uiso   1.00
H231   H     0.36980   0.68230   0.03630   0.01267  Uiso   1.00
H232   H     0.32620   0.64110   0.93070   0.01267  Uiso   1.00
H233   H     0.30910   0.61330   0.81820   0.01267  Uiso   1.00
H234   H     0.34070   0.69710   0.79360   0.01267  Uiso   1.00
H235   H     0.39290   0.80740   0.87610   0.01267  Uiso   1.00
H236   H     0.38150   0.97620   0.05690   0.01267  Uiso   1.00
H237   H     0.45720   0.99000   0.09300   0.01267  Uiso   1.00
H238   H     0.48080   0.94850   0.19270   0.01267  Uiso   1.00
H239   H     0.45300   0.98310   0.28750   0.01267  Uiso   1.00
H240   H     0.34950   0.99820   0.24230   0.01267  Uiso   1.00
H241   H     0.64520   0.49920   0.68000   0.01267  Uiso   1.00
H242   H     0.82060   0.61940   0.84080   0.01267  Uiso   1.00
H243   H     0.81770   0.68750   0.85400   0.01267  Uiso   1.00
H244   H     0.85890   0.68510   0.78960   0.01267  Uiso   1.00
H245   H     0.88670   0.69580   0.70490   0.01267  Uiso   1.00
H246   H     0.80290   0.64360   0.59650   0.01267  Uiso   1.00
H247   H     0.69260   0.58550   0.56870   0.01267  Uiso   1.00
H248   H     0.52380   0.40530   0.58070   0.01267  Uiso   1.00
H249   H     0.51000   0.46720   0.60300   0.01267  Uiso   1.00
H250   H     0.55150   0.53230   0.74420   0.01267  Uiso   1.00
H251   H     0.51690   0.46990   0.80440   0.01267  Uiso   1.00
H252   H     0.50180   0.35130   0.74410   0.01267  Uiso   1.00
H253   H     0.85480   0.53480   0.85400   0.01267  Uiso   1.00
H254   H     0.67940   0.52020   0.79880   0.01267  Uiso   1.00
H255   H     0.68230   0.53630   0.86980   0.01267  Uiso   1.00
H256   H     0.64110   0.43070   0.82620   0.01267  Uiso   1.00
H257   H     0.61330   0.31820   0.80910   0.01267  Uiso   1.00
H258   H     0.69710   0.29360   0.84070   0.01267  Uiso   1.00
H259   H     0.80740   0.37610   0.89290   0.01267  Uiso   1.00
H260   H     0.97620   0.55690   0.88150   0.01267  Uiso   1.00
H261   H     0.99000   0.59300   0.95720   0.01267  Uiso   1.00
H262   H     0.94850   0.69270   0.98080   0.01267  Uiso   1.00
H263   H     0.98310   0.78750   0.95300   0.01267  Uiso   1.00
H264   H     0.99820   0.74230   0.84950   0.01267  Uiso   1.00
H265   H     0.18080   0.00080   0.64600   0.01267  Uiso   1.00
H266   H     0.22140   0.88060   0.70120   0.01267  Uiso   1.00
H267   H     0.16650   0.81250   0.63020   0.01267  Uiso   1.00
H268   H     0.10450   0.81490   0.67380   0.01267  Uiso   1.00
H269   H     0.00910   0.80420   0.69090   0.01267  Uiso   1.00
H270   H     0.95290   0.85640   0.65930   0.01267  Uiso   1.00
H271   H     0.98320   0.91450   0.60710   0.01267  Uiso   1.00
H272   H     0.17540   0.09470   0.61850   0.01267  Uiso   1.00
H273   H     0.13580   0.03280   0.54280   0.01267  Uiso   1.00
H274   H     0.21190   0.96770   0.51920   0.01267  Uiso   1.00
H275   H     0.33450   0.03010   0.54700   0.01267  Uiso   1.00
H276   H     0.39280   0.14870   0.65050   0.01267  Uiso   1.00
H277   H     0.31920   0.96520   0.82000   0.01267  Uiso   1.00
H278   H     0.27860   0.97980   0.65920   0.01267  Uiso   1.00
H279   H     0.33350   0.96370   0.64600   0.01267  Uiso   1.00
H280   H     0.39550   0.06930   0.71040   0.01267  Uiso   1.00
H281   H     0.49090   0.18180   0.79510   0.01267  Uiso   1.00
H282   H     0.54710   0.20640   0.90350   0.01267  Uiso   1.00
H283   H     0.51680   0.12390   0.93130   0.01267  Uiso   1.00
H284   H     0.32460   0.94310   0.91930   0.01267  Uiso   1.00
H285   H     0.36420   0.90700   0.89700   0.01267  Uiso   1.00
H286   H     0.28810   0.80730   0.75580   0.01267  Uiso   1.00
H287   H     0.16550   0.71250   0.69560   0.01267  Uiso   1.00
H288   H     0.10720   0.75770   0.75590   0.01267  Uiso   1.00
C1     C     0.65180   0.36130   0.19750   0.01267  Uiso   1.00
C2     C     0.64280   0.38460   0.10500   0.01267  Uiso   1.00
C3     C     0.66450   0.33900   0.08250   0.01267  Uiso   1.00
C4     C     0.67210   0.33070   0.02340   0.01267  Uiso   1.00
C5     C     0.65290   0.36020   0.99010   0.01267  Uiso   1.00
C6     C     0.62290   0.39670   0.01020   0.01267  Uiso   1.00
C7     C     0.61370   0.40990   0.06480   0.01267  Uiso   1.00
C8     C     0.58700   0.46010   0.08550   0.01267  Uiso   1.00
C9     C     0.58970   0.55130   0.17040   0.01267  Uiso   1.00
C10    C     0.59370   0.56080   0.23110   0.01267  Uiso   1.00
C11    C     0.55210   0.51360   0.24390   0.01267  Uiso   1.00
C12    C     0.56900   0.54800   0.31380   0.01267  Uiso   1.00
C13    C     0.62670   0.61590   0.34640   0.01267  Uiso   1.00
C14    C     0.66380   0.45430   0.30250   0.01267  Uiso   1.00
C15    C     0.77960   0.53780   0.39500   0.01267  Uiso   1.00
C16    C     0.75650   0.58200   0.41750   0.01267  Uiso   1.00
C17    C     0.80730   0.64870   0.47660   0.01267  Uiso   1.00
C18    C     0.87010   0.66280   0.50990   0.01267  Uiso   1.00
C19    C     0.88650   0.61270   0.48980   0.01267  Uiso   1.00
C20    C     0.84510   0.54890   0.43520   0.01267  Uiso   1.00
C21    C     0.87460   0.50150   0.41450   0.01267  Uiso   1.00
C22    C     0.88090   0.41930   0.32960   0.01267  Uiso   1.00
C23    C     0.82970   0.36260   0.26890   0.01267  Uiso   1.00
C24    C     0.76970   0.30820   0.25610   0.01267  Uiso   1.00
C25    C     0.73420   0.25520   0.18620   0.01267  Uiso   1.00
C26    C     0.76950   0.28030   0.15360   0.01267  Uiso   1.00
C27    C     0.83620   0.13870   0.79050   0.01267  Uiso   1.00
C28    C     0.72040   0.11540   0.75820   0.01267  Uiso   1.00
C29    C     0.74350   0.16100   0.82550   0.01267  Uiso   1.00
C30    C     0.69270   0.16930   0.84140   0.01267  Uiso   1.00
C31    C     0.62990   0.13980   0.79270   0.01267  Uiso   1.00
C32    C     0.61350   0.10330   0.72620   0.01267  Uiso   1.00
C33    C     0.65490   0.09010   0.70380   0.01267  Uiso   1.00
C34    C     0.62540   0.03990   0.62690   0.01267  Uiso   1.00
C35    C     0.61910   0.94870   0.53840   0.01267  Uiso   1.00
C36    C     0.67030   0.93920   0.53290   0.01267  Uiso   1.00
C37    C     0.73030   0.98640   0.53850   0.01267  Uiso   1.00
C38    C     0.76580   0.95200   0.52100   0.01267  Uiso   1.00
C39    C     0.73050   0.88410   0.51080   0.01267  Uiso   1.00
C40    C     0.84820   0.04570   0.70950   0.01267  Uiso   1.00
C41    C     0.85720   0.96220   0.74180   0.01267  Uiso   1.00
C42    C     0.83550   0.91800   0.67450   0.01267  Uiso   1.00
C43    C     0.82790   0.85130   0.65860   0.01267  Uiso   1.00
C44    C     0.84710   0.83720   0.70730   0.01267  Uiso   1.00
C45    C     0.87710   0.88730   0.77380   0.01267  Uiso   1.00
C46    C     0.88630   0.95110   0.79620   0.01267  Uiso   1.00
C47    C     0.91300   0.99850   0.87310   0.01267  Uiso   1.00
C48    C     0.91030   0.08070   0.96160   0.01267  Uiso   1.00
C49    C     0.90630   0.13740   0.96710   0.01267  Uiso   1.00
C50    C     0.94790   0.19180   0.96150   0.01267  Uiso   1.00
C51    C     0.93100   0.24480   0.97900   0.01267  Uiso   1.00
C52    C     0.87330   0.21970   0.98920   0.01267  Uiso   1.00
C53    C     0.29050   0.83620   0.63870   0.01267  Uiso   1.00
C54    C     0.25820   0.72040   0.61540   0.01267  Uiso   1.00
C55    C     0.32550   0.74350   0.66100   0.01267  Uiso   1.00
C56    C     0.34140   0.69270   0.66930   0.01267  Uiso   1.00
C57    C     0.29270   0.62990   0.63980   0.01267  Uiso   1.00
C58    C     0.22620   0.61350   0.60330   0.01267  Uiso   1.00
C59    C     0.20380   0.65490   0.59010   0.01267  Uiso   1.00
C60    C     0.12690   0.62540   0.53990   0.01267  Uiso   1.00
C61    C     0.03840   0.61910   0.44870   0.01267  Uiso   1.00
C62    C     0.03290   0.67030   0.43920   0.01267  Uiso   1.00
C63    C     0.03850   0.73030   0.48640   0.01267  Uiso   1.00
C64    C     0.02100   0.76580   0.45200   0.01267  Uiso   1.00
C65    C     0.01080   0.73050   0.38410   0.01267  Uiso   1.00
C66    C     0.20950   0.84820   0.54570   0.01267  Uiso   1.00
C67    C     0.24180   0.85720   0.46220   0.01267  Uiso   1.00
C68    C     0.17450   0.83550   0.41800   0.01267  Uiso   1.00
C69    C     0.15860   0.82790   0.35130   0.01267  Uiso   1.00
C70    C     0.20730   0.84710   0.33720   0.01267  Uiso   1.00
C71    C     0.27380   0.87710   0.38730   0.01267  Uiso   1.00
C72    C     0.29620   0.88630   0.45110   0.01267  Uiso   1.00
C73    C     0.37310   0.91300   0.49850   0.01267  Uiso   1.00
C74    C     0.46160   0.91030   0.58070   0.01267  Uiso   1.00
C75    C     0.46710   0.90630   0.63740   0.01267  Uiso   1.00
C76    C     0.46150   0.94790   0.69180   0.01267  Uiso   1.00
C77    C     0.47900   0.93100   0.74480   0.01267  Uiso   1.00
C78    C     0.48920   0.87330   0.71970   0.01267  Uiso   1.00
C79    C     0.69750   0.65180   0.86130   0.01267  Uiso   1.00
C80    C     0.60500   0.64280   0.88460   0.01267  Uiso   1.00
C81    C     0.58250   0.66450   0.83900   0.01267  Uiso   1.00
C82    C     0.52340   0.67210   0.83070   0.01267  Uiso   1.00
C83    C     0.49010   0.65290   0.86020   0.01267  Uiso   1.00
C84    C     0.51020   0.62290   0.89670   0.01267  Uiso   1.00
C85    C     0.56480   0.61370   0.90990   0.01267  Uiso   1.00
C86    C     0.58550   0.58700   0.96010   0.01267  Uiso   1.00
C87    C     0.67040   0.58970   0.05130   0.01267  Uiso   1.00
C88    C     0.73110   0.59370   0.06080   0.01267  Uiso   1.00
C89    C     0.74390   0.55210   0.01360   0.01267  Uiso   1.00
C90    C     0.81380   0.56900   0.04800   0.01267  Uiso   1.00
C91    C     0.84640   0.62670   0.11590   0.01267  Uiso   1.00
C92    C     0.80250   0.66380   0.95430   0.01267  Uiso   1.00
C93    C     0.89500   0.77960   0.03780   0.01267  Uiso   1.00
C94    C     0.91750   0.75650   0.08200   0.01267  Uiso   1.00
C95    C     0.97660   0.80730   0.14870   0.01267  Uiso   1.00
C96    C     0.00990   0.87010   0.16280   0.01267  Uiso   1.00
C97    C     0.98980   0.88650   0.11270   0.01267  Uiso   1.00
C98    C     0.93520   0.84510   0.04890   0.01267  Uiso   1.00
C99    C     0.91450   0.87460   0.00150   0.01267  Uiso   1.00
C100   C     0.82960   0.88090   0.91930   0.01267  Uiso   1.00
C101   C     0.76890   0.82970   0.86260   0.01267  Uiso   1.00
C102   C     0.75610   0.76970   0.80820   0.01267  Uiso   1.00
C103   C     0.68620   0.73420   0.75520   0.01267  Uiso   1.00
C104   C     0.65360   0.76950   0.78030   0.01267  Uiso   1.00
C105   C     0.45430   0.80250   0.16380   0.01267  Uiso   1.00
C106   C     0.53780   0.89500   0.27960   0.01267  Uiso   1.00
C107   C     0.58200   0.91750   0.25650   0.01267  Uiso   1.00
C108   C     0.64870   0.97660   0.30730   0.01267  Uiso   1.00
C109   C     0.66280   0.00990   0.37010   0.01267  Uiso   1.00
C110   C     0.61270   0.98980   0.38650   0.01267  Uiso   1.00
C111   C     0.54890   0.93520   0.34510   0.01267  Uiso   1.00
C112   C     0.50150   0.91450   0.37460   0.01267  Uiso   1.00
C113   C     0.41930   0.82960   0.38090   0.01267  Uiso   1.00
C114   C     0.36260   0.76890   0.32970   0.01267  Uiso   1.00
C115   C     0.30820   0.75610   0.26970   0.01267  Uiso   1.00
C116   C     0.25520   0.68620   0.23420   0.01267  Uiso   1.00
C117   C     0.28030   0.65360   0.26950   0.01267  Uiso   1.00
C118   C     0.36130   0.69750   0.15180   0.01267  Uiso   1.00
C119   C     0.38460   0.60500   0.14280   0.01267  Uiso   1.00
C120   C     0.33900   0.58250   0.16450   0.01267  Uiso   1.00
C121   C     0.33070   0.52340   0.17210   0.01267  Uiso   1.00
C122   C     0.36020   0.49010   0.15290   0.01267  Uiso   1.00
C123   C     0.39670   0.51020   0.12290   0.01267  Uiso   1.00
C124   C     0.40990   0.56480   0.11370   0.01267  Uiso   1.00
C125   C     0.46010   0.58550   0.08700   0.01267  Uiso   1.00
C126   C     0.55130   0.67040   0.08970   0.01267  Uiso   1.00
C127   C     0.56080   0.73110   0.09370   0.01267  Uiso   1.00
C128   C     0.51360   0.74390   0.05210   0.01267  Uiso   1.00
C129   C     0.54800   0.81380   0.06900   0.01267  Uiso   1.00
C130   C     0.61590   0.84640   0.12670   0.01267  Uiso   1.00
C131   C     0.04570   0.20950   0.34820   0.01267  Uiso   1.00
C132   C     0.96220   0.24180   0.35720   0.01267  Uiso   1.00
C133   C     0.91800   0.17450   0.33550   0.01267  Uiso   1.00
C134   C     0.85130   0.15860   0.32790   0.01267  Uiso   1.00
C135   C     0.83720   0.20730   0.34710   0.01267  Uiso   1.00
C136   C     0.88730   0.27380   0.37710   0.01267  Uiso   1.00
C137   C     0.95110   0.29620   0.38630   0.01267  Uiso   1.00
C138   C     0.99850   0.37310   0.41300   0.01267  Uiso   1.00
C139   C     0.08070   0.46160   0.41030   0.01267  Uiso   1.00
C140   C     0.13740   0.46710   0.40630   0.01267  Uiso   1.00
C141   C     0.19180   0.46150   0.44790   0.01267  Uiso   1.00
C142   C     0.24480   0.47900   0.43100   0.01267  Uiso   1.00
C143   C     0.21970   0.48920   0.37330   0.01267  Uiso   1.00
C144   C     0.13870   0.29050   0.33620   0.01267  Uiso   1.00
C145   C     0.11540   0.25820   0.22040   0.01267  Uiso   1.00
C146   C     0.16100   0.32550   0.24350   0.01267  Uiso   1.00
C147   C     0.16930   0.34140   0.19270   0.01267  Uiso   1.00
C148   C     0.13980   0.29270   0.12990   0.01267  Uiso   1.00
C149   C     0.10330   0.22620   0.11350   0.01267  Uiso   1.00
C150   C     0.09010   0.20380   0.15490   0.01267  Uiso   1.00
C151   C     0.03990   0.12690   0.12540   0.01267  Uiso   1.00
C152   C     0.94870   0.03840   0.11910   0.01267  Uiso   1.00
C153   C     0.93920   0.03290   0.17030   0.01267  Uiso   1.00
C154   C     0.98640   0.03850   0.23030   0.01267  Uiso   1.00
C155   C     0.95200   0.02100   0.26580   0.01267  Uiso   1.00
C156   C     0.88410   0.01080   0.23050   0.01267  Uiso   1.00
C157   C     0.95430   0.16380   0.80250   0.01267  Uiso   1.00
C158   C     0.03780   0.27960   0.89500   0.01267  Uiso   1.00
C159   C     0.08200   0.25650   0.91750   0.01267  Uiso   1.00
C160   C     0.14870   0.30730   0.97660   0.01267  Uiso   1.00
C161   C     0.16280   0.37010   0.00990   0.01267  Uiso   1.00
C162   C     0.11270   0.38650   0.98980   0.01267  Uiso   1.00
C163   C     0.04890   0.34510   0.93520   0.01267  Uiso   1.00
C164   C     0.00150   0.37460   0.91450   0.01267  Uiso   1.00
C165   C     0.91930   0.38090   0.82960   0.01267  Uiso   1.00
C166   C     0.86260   0.32970   0.76890   0.01267  Uiso   1.00
C167   C     0.80820   0.26970   0.75610   0.01267  Uiso   1.00
C168   C     0.75520   0.23420   0.68620   0.01267  Uiso   1.00
C169   C     0.78030   0.26950   0.65360   0.01267  Uiso   1.00
C170   C     0.86130   0.15180   0.69750   0.01267  Uiso   1.00
C171   C     0.88460   0.14280   0.60500   0.01267  Uiso   1.00
C172   C     0.83900   0.16450   0.58250   0.01267  Uiso   1.00
C173   C     0.83070   0.17210   0.52340   0.01267  Uiso   1.00
C174   C     0.86020   0.15290   0.49010   0.01267  Uiso   1.00
C175   C     0.89670   0.12290   0.51020   0.01267  Uiso   1.00
C176   C     0.90990   0.11370   0.56480   0.01267  Uiso   1.00
C177   C     0.96010   0.08700   0.58550   0.01267  Uiso   1.00
C178   C     0.05130   0.08970   0.67040   0.01267  Uiso   1.00
C179   C     0.06080   0.09370   0.73110   0.01267  Uiso   1.00
C180   C     0.01360   0.05210   0.74390   0.01267  Uiso   1.00
C181   C     0.04800   0.06900   0.81380   0.01267  Uiso   1.00
C182   C     0.11590   0.12670   0.84640   0.01267  Uiso   1.00
C183   C     0.54570   0.34820   0.20950   0.01267  Uiso   1.00
C184   C     0.46220   0.35720   0.24180   0.01267  Uiso   1.00
C185   C     0.41800   0.33550   0.17450   0.01267  Uiso   1.00
C186   C     0.35130   0.32790   0.15860   0.01267  Uiso   1.00
C187   C     0.33720   0.34710   0.20730   0.01267  Uiso   1.00
C188   C     0.38730   0.37710   0.27380   0.01267  Uiso   1.00
C189   C     0.45110   0.38630   0.29620   0.01267  Uiso   1.00
C190   C     0.49850   0.41300   0.37310   0.01267  Uiso   1.00
C191   C     0.58070   0.41030   0.46160   0.01267  Uiso   1.00
C192   C     0.63740   0.40630   0.46710   0.01267  Uiso   1.00
C193   C     0.69180   0.44790   0.46150   0.01267  Uiso   1.00
C194   C     0.74480   0.43100   0.47900   0.01267  Uiso   1.00
C195   C     0.71970   0.37330   0.48920   0.01267  Uiso   1.00
C196   C     0.63870   0.33620   0.29050   0.01267  Uiso   1.00
C197   C     0.61540   0.22040   0.25820   0.01267  Uiso   1.00
C198   C     0.66100   0.24350   0.32550   0.01267  Uiso   1.00
C199   C     0.66930   0.19270   0.34140   0.01267  Uiso   1.00
C200   C     0.63980   0.12990   0.29270   0.01267  Uiso   1.00
C201   C     0.60330   0.11350   0.22620   0.01267  Uiso   1.00
C202   C     0.59010   0.15490   0.20380   0.01267  Uiso   1.00
C203   C     0.53990   0.12540   0.12690   0.01267  Uiso   1.00
C204   C     0.44870   0.11910   0.03840   0.01267  Uiso   1.00
C205   C     0.43920   0.17030   0.03290   0.01267  Uiso   1.00
C206   C     0.48640   0.23030   0.03850   0.01267  Uiso   1.00
C207   C     0.45200   0.26580   0.02100   0.01267  Uiso   1.00
C208   C     0.38410   0.23050   0.01080   0.01267  Uiso   1.00
C209   C     0.15180   0.19750   0.36130   0.01267  Uiso   1.00
C210   C     0.14280   0.10500   0.38460   0.01267  Uiso   1.00
C211   C     0.16450   0.08250   0.33900   0.01267  Uiso   1.00
C212   C     0.17210   0.02340   0.33070   0.01267  Uiso   1.00
C213   C     0.15290   0.99010   0.36020   0.01267  Uiso   1.00
C214   C     0.12290   0.01020   0.39670   0.01267  Uiso   1.00
C215   C     0.11370   0.06480   0.40990   0.01267  Uiso   1.00
C216   C     0.08700   0.08550   0.46010   0.01267  Uiso   1.00
C217   C     0.08970   0.17040   0.55130   0.01267  Uiso   1.00
C218   C     0.09370   0.23110   0.56080   0.01267  Uiso   1.00
C219   C     0.05210   0.24390   0.51360   0.01267  Uiso   1.00
C220   C     0.06900   0.31380   0.54800   0.01267  Uiso   1.00
C221   C     0.12670   0.34640   0.61590   0.01267  Uiso   1.00
C222   C     0.16380   0.30250   0.45430   0.01267  Uiso   1.00
C223   C     0.27960   0.39500   0.53780   0.01267  Uiso   1.00
C224   C     0.25650   0.41750   0.58200   0.01267  Uiso   1.00
C225   C     0.30730   0.47660   0.64870   0.01267  Uiso   1.00
C226   C     0.37010   0.50990   0.66280   0.01267  Uiso   1.00
C227   C     0.38650   0.48980   0.61270   0.01267  Uiso   1.00
C228   C     0.34510   0.43520   0.54890   0.01267  Uiso   1.00
C229   C     0.37460   0.41450   0.50150   0.01267  Uiso   1.00
C230   C     0.38090   0.32960   0.41930   0.01267  Uiso   1.00
C231   C     0.32970   0.26890   0.36260   0.01267  Uiso   1.00
C232   C     0.26970   0.25610   0.30820   0.01267  Uiso   1.00
C233   C     0.23420   0.18620   0.25520   0.01267  Uiso   1.00
C234   C     0.26950   0.15360   0.28030   0.01267  Uiso   1.00
C235   C     0.33620   0.79050   0.13870   0.01267  Uiso   1.00
C236   C     0.22040   0.75820   0.11540   0.01267  Uiso   1.00
C237   C     0.24350   0.82550   0.16100   0.01267  Uiso   1.00
C238   C     0.19270   0.84140   0.16930   0.01267  Uiso   1.00
C239   C     0.12990   0.79270   0.13980   0.01267  Uiso   1.00
C240   C     0.11350   0.72620   0.10330   0.01267  Uiso   1.00
C241   C     0.15490   0.70380   0.09010   0.01267  Uiso   1.00
C242   C     0.12540   0.62690   0.03990   0.01267  Uiso   1.00
C243   C     0.11910   0.53840   0.94870   0.01267  Uiso   1.00
C244   C     0.17030   0.53290   0.93920   0.01267  Uiso   1.00
C245   C     0.23030   0.53850   0.98640   0.01267  Uiso   1.00
C246   C     0.26580   0.52100   0.95200   0.01267  Uiso   1.00
C247   C     0.23050   0.51080   0.88410   0.01267  Uiso   1.00
C248   C     0.34820   0.70950   0.04570   0.01267  Uiso   1.00
C249   C     0.35720   0.74180   0.96220   0.01267  Uiso   1.00
C250   C     0.33550   0.67450   0.91800   0.01267  Uiso   1.00
C251   C     0.32790   0.65860   0.85130   0.01267  Uiso   1.00
C252   C     0.34710   0.70730   0.83720   0.01267  Uiso   1.00
C253   C     0.37710   0.77380   0.88730   0.01267  Uiso   1.00
C254   C     0.38630   0.79620   0.95110   0.01267  Uiso   1.00
C255   C     0.41300   0.87310   0.99850   0.01267  Uiso   1.00
C256   C     0.41030   0.96160   0.08070   0.01267  Uiso   1.00
C257   C     0.40630   0.96710   0.13740   0.01267  Uiso   1.00
C258   C     0.44790   0.96150   0.19180   0.01267  Uiso   1.00
C259   C     0.43100   0.97900   0.24480   0.01267  Uiso   1.00
C260   C     0.37330   0.98920   0.21970   0.01267  Uiso   1.00
C261   C     0.79050   0.63870   0.83620   0.01267  Uiso   1.00
C262   C     0.75820   0.61540   0.72040   0.01267  Uiso   1.00
C263   C     0.82550   0.66100   0.74350   0.01267  Uiso   1.00
C264   C     0.84140   0.66930   0.69270   0.01267  Uiso   1.00
C265   C     0.79270   0.63980   0.62990   0.01267  Uiso   1.00
C266   C     0.72620   0.60330   0.61350   0.01267  Uiso   1.00
C267   C     0.70380   0.59010   0.65490   0.01267  Uiso   1.00
C268   C     0.62690   0.53990   0.62540   0.01267  Uiso   1.00
C269   C     0.53840   0.44870   0.61910   0.01267  Uiso   1.00
C270   C     0.53290   0.43920   0.67030   0.01267  Uiso   1.00
C271   C     0.53850   0.48640   0.73030   0.01267  Uiso   1.00
C272   C     0.52100   0.45200   0.76580   0.01267  Uiso   1.00
C273   C     0.51080   0.38410   0.73050   0.01267  Uiso   1.00
C274   C     0.70950   0.54570   0.84820   0.01267  Uiso   1.00
C275   C     0.74180   0.46220   0.85720   0.01267  Uiso   1.00
C276   C     0.67450   0.41800   0.83550   0.01267  Uiso   1.00
C277   C     0.65860   0.35130   0.82790   0.01267  Uiso   1.00
C278   C     0.70730   0.33720   0.84710   0.01267  Uiso   1.00
C279   C     0.77380   0.38730   0.87710   0.01267  Uiso   1.00
C280   C     0.79620   0.45110   0.88630   0.01267  Uiso   1.00
C281   C     0.87310   0.49850   0.91300   0.01267  Uiso   1.00
C282   C     0.96160   0.58070   0.91030   0.01267  Uiso   1.00
C283   C     0.96710   0.63740   0.90630   0.01267  Uiso   1.00
C284   C     0.96150   0.69180   0.94790   0.01267  Uiso   1.00
C285   C     0.97900   0.74480   0.93100   0.01267  Uiso   1.00
C286   C     0.98920   0.71970   0.87330   0.01267  Uiso   1.00
C287   C     0.19750   0.86130   0.65180   0.01267  Uiso   1.00
C288   C     0.10500   0.88460   0.64280   0.01267  Uiso   1.00
C289   C     0.08250   0.83900   0.66450   0.01267  Uiso   1.00
C290   C     0.02340   0.83070   0.67210   0.01267  Uiso   1.00
C291   C     0.99010   0.86020   0.65290   0.01267  Uiso   1.00
C292   C     0.01020   0.89670   0.62290   0.01267  Uiso   1.00
C293   C     0.06480   0.90990   0.61370   0.01267  Uiso   1.00
C294   C     0.08550   0.96010   0.58700   0.01267  Uiso   1.00
C295   C     0.17040   0.05130   0.58970   0.01267  Uiso   1.00
C296   C     0.23110   0.06080   0.59370   0.01267  Uiso   1.00
C297   C     0.24390   0.01360   0.55210   0.01267  Uiso   1.00
C298   C     0.31380   0.04800   0.56900   0.01267  Uiso   1.00
C299   C     0.34640   0.11590   0.62670   0.01267  Uiso   1.00
C300   C     0.30250   0.95430   0.66380   0.01267  Uiso   1.00
C301   C     0.39500   0.03780   0.77960   0.01267  Uiso   1.00
C302   C     0.41750   0.08200   0.75650   0.01267  Uiso   1.00
C303   C     0.47660   0.14870   0.80730   0.01267  Uiso   1.00
C304   C     0.50990   0.16280   0.87010   0.01267  Uiso   1.00
C305   C     0.48980   0.11270   0.88650   0.01267  Uiso   1.00
C306   C     0.43520   0.04890   0.84510   0.01267  Uiso   1.00
C307   C     0.41450   0.00150   0.87460   0.01267  Uiso   1.00
C308   C     0.32960   0.91930   0.88090   0.01267  Uiso   1.00
C309   C     0.26890   0.86260   0.82970   0.01267  Uiso   1.00
C310   C     0.25610   0.80820   0.76970   0.01267  Uiso   1.00
C311   C     0.18620   0.75520   0.73420   0.01267  Uiso   1.00
C312   C     0.15360   0.78030   0.76950   0.01267  Uiso   1.00
C313   C     0.62500   0.37500   0.25000   0.01267  Uiso   1.00
C314   C     0.87500   0.12500   0.75000   0.01267  Uiso   1.00
C315   C     0.25000   0.87500   0.62500   0.01267  Uiso   1.00
C316   C     0.75000   0.62500   0.87500   0.01267  Uiso   1.00
C317   C     0.37500   0.75000   0.12500   0.01267  Uiso   1.00
C318   C     0.12500   0.25000   0.37500   0.01267  Uiso   1.00
N1     N     0.61470   0.50170   0.15040   0.01267  Uiso   1.00
N2     N     0.34740   0.36170   0.96410   0.01267  Uiso   1.00
N3     N     0.85130   0.46430   0.34960   0.01267  Uiso   1.00
N4     N     0.89760   0.38330   0.53590   0.01267  Uiso   1.00
N5     N     0.64870   0.99830   0.61300   0.01267  Uiso   1.00
N6     N     0.60240   0.13830   0.48570   0.01267  Uiso   1.00
N7     N     0.88530   0.03570   0.88700   0.01267  Uiso   1.00
N8     N     0.15260   0.11670   0.01430   0.01267  Uiso   1.00
N9     N     0.11300   0.64870   0.49830   0.01267  Uiso   1.00
N10    N     0.98570   0.60240   0.63830   0.01267  Uiso   1.00
N11    N     0.38700   0.88530   0.53570   0.01267  Uiso   1.00
N12    N     0.51430   0.15260   0.61670   0.01267  Uiso   1.00
N13    N     0.65040   0.61470   0.00170   0.01267  Uiso   1.00
N14    N     0.46410   0.34740   0.86170   0.01267  Uiso   1.00
N15    N     0.84960   0.85130   0.96430   0.01267  Uiso   1.00
N16    N     0.03590   0.89760   0.88330   0.01267  Uiso   1.00
N17    N     0.46430   0.84960   0.35130   0.01267  Uiso   1.00
N18    N     0.38330   0.03590   0.39760   0.01267  Uiso   1.00
N19    N     0.50170   0.65040   0.11470   0.01267  Uiso   1.00
N20    N     0.36170   0.46410   0.84740   0.01267  Uiso   1.00
N21    N     0.03570   0.38700   0.38530   0.01267  Uiso   1.00
N22    N     0.11670   0.51430   0.65260   0.01267  Uiso   1.00
N23    N     0.99830   0.11300   0.14870   0.01267  Uiso   1.00
N24    N     0.13830   0.98570   0.10240   0.01267  Uiso   1.00
N25    N     0.96430   0.35130   0.84960   0.01267  Uiso   1.00
N26    N     0.88330   0.39760   0.03590   0.01267  Uiso   1.00
N27    N     0.00170   0.11470   0.65040   0.01267  Uiso   1.00
N28    N     0.86170   0.84740   0.46410   0.01267  Uiso   1.00
N29    N     0.53570   0.38530   0.38700   0.01267  Uiso   1.00
N30    N     0.61670   0.65260   0.51430   0.01267  Uiso   1.00
N31    N     0.49830   0.14870   0.11300   0.01267  Uiso   1.00
N32    N     0.63830   0.10240   0.98570   0.01267  Uiso   1.00
N33    N     0.11470   0.15040   0.50170   0.01267  Uiso   1.00
N34    N     0.84740   0.96410   0.36170   0.01267  Uiso   1.00
N35    N     0.35130   0.34960   0.46430   0.01267  Uiso   1.00
N36    N     0.39760   0.53590   0.38330   0.01267  Uiso   1.00
N37    N     0.14870   0.61300   0.99830   0.01267  Uiso   1.00
N38    N     0.10240   0.48570   0.13830   0.01267  Uiso   1.00
N39    N     0.38530   0.88700   0.03570   0.01267  Uiso   1.00
N40    N     0.65260   0.01430   0.11670   0.01267  Uiso   1.00
N41    N     0.61300   0.49830   0.64870   0.01267  Uiso   1.00
N42    N     0.48570   0.63830   0.60240   0.01267  Uiso   1.00
N43    N     0.88700   0.53570   0.88530   0.01267  Uiso   1.00
N44    N     0.01430   0.61670   0.15260   0.01267  Uiso   1.00
N45    N     0.15040   0.00170   0.61470   0.01267  Uiso   1.00
N46    N     0.96410   0.86170   0.34740   0.01267  Uiso   1.00
N47    N     0.34960   0.96430   0.85130   0.01267  Uiso   1.00
N48    N     0.53590   0.88330   0.89760   0.01267  Uiso   1.00
O1     O     0.54540   0.46260   0.04060   0.01267  Uiso   1.00
O2     O     0.64070   0.62400   0.29510   0.01267  Uiso   1.00
O3     O     0.63230   0.39580   0.16030   0.01267  Uiso   1.00
O4     O     0.40870   0.38670   0.00600   0.01267  Uiso   1.00
O5     O     0.33250   0.38290   0.92340   0.01267  Uiso   1.00
O6     O     0.30110   0.32180   0.96930   0.01267  Uiso   1.00
O7     O     0.92200   0.50480   0.45940   0.01267  Uiso   1.00
O8     O     0.82890   0.34560   0.20490   0.01267  Uiso   1.00
O9     O     0.73550   0.47200   0.33970   0.01267  Uiso   1.00
O10    O     0.88070   0.40270   0.49400   0.01267  Uiso   1.00
O11    O     0.95950   0.40910   0.57660   0.01267  Uiso   1.00
O12    O     0.85250   0.33180   0.53070   0.01267  Uiso   1.00
O13    O     0.57800   0.03740   0.58280   0.01267  Uiso   1.00
O14    O     0.67110   0.87600   0.51670   0.01267  Uiso   1.00
O15    O     0.76450   0.10420   0.73650   0.01267  Uiso   1.00
O16    O     0.61930   0.11330   0.52200   0.01267  Uiso   1.00
O17    O     0.54050   0.11710   0.44960   0.01267  Uiso   1.00
O18    O     0.64750   0.17820   0.47930   0.01267  Uiso   1.00
O19    O     0.95460   0.99520   0.91720   0.01267  Uiso   1.00
O20    O     0.85930   0.15440   0.98330   0.01267  Uiso   1.00
O21    O     0.86770   0.02800   0.76350   0.01267  Uiso   1.00
O22    O     0.09130   0.09730   0.97800   0.01267  Uiso   1.00
O23    O     0.16750   0.09090   0.05040   0.01267  Uiso   1.00
O24    O     0.19890   0.16820   0.02070   0.01267  Uiso   1.00
O25    O     0.08280   0.57800   0.53740   0.01267  Uiso   1.00
O26    O     0.01670   0.67110   0.37600   0.01267  Uiso   1.00
O27    O     0.23650   0.76450   0.60420   0.01267  Uiso   1.00
O28    O     0.02200   0.61930   0.61330   0.01267  Uiso   1.00
O29    O     0.94960   0.54050   0.61710   0.01267  Uiso   1.00
O30    O     0.97930   0.64750   0.67820   0.01267  Uiso   1.00
O31    O     0.41720   0.95460   0.49520   0.01267  Uiso   1.00
O32    O     0.48330   0.85930   0.65440   0.01267  Uiso   1.00
O33    O     0.26350   0.86770   0.52800   0.01267  Uiso   1.00
O34    O     0.47800   0.09130   0.59730   0.01267  Uiso   1.00
O35    O     0.55040   0.16750   0.59090   0.01267  Uiso   1.00
O36    O     0.52070   0.19890   0.66820   0.01267  Uiso   1.00
O37    O     0.54060   0.54540   0.96260   0.01267  Uiso   1.00
O38    O     0.79510   0.64070   0.12400   0.01267  Uiso   1.00
O39    O     0.66030   0.63230   0.89580   0.01267  Uiso   1.00
O40    O     0.50600   0.40870   0.88670   0.01267  Uiso   1.00
O41    O     0.42340   0.33250   0.88290   0.01267  Uiso   1.00
O42    O     0.46930   0.30110   0.82180   0.01267  Uiso   1.00
O43    O     0.95940   0.92200   0.00480   0.01267  Uiso   1.00
O44    O     0.70490   0.82890   0.84560   0.01267  Uiso   1.00
O45    O     0.83970   0.73550   0.97200   0.01267  Uiso   1.00
O46    O     0.99400   0.88070   0.90270   0.01267  Uiso   1.00
O47    O     0.07660   0.95950   0.90910   0.01267  Uiso   1.00
O48    O     0.03070   0.85250   0.83180   0.01267  Uiso   1.00
O49    O     0.50480   0.95940   0.42200   0.01267  Uiso   1.00
O50    O     0.34560   0.70490   0.32890   0.01267  Uiso   1.00
O51    O     0.47200   0.83970   0.23550   0.01267  Uiso   1.00
O52    O     0.40270   0.99400   0.38070   0.01267  Uiso   1.00
O53    O     0.40910   0.07660   0.45950   0.01267  Uiso   1.00
O54    O     0.33180   0.03070   0.35250   0.01267  Uiso   1.00
O55    O     0.46260   0.54060   0.04540   0.01267  Uiso   1.00
O56    O     0.62400   0.79510   0.14070   0.01267  Uiso   1.00
O57    O     0.39580   0.66030   0.13230   0.01267  Uiso   1.00
O58    O     0.38670   0.50600   0.90870   0.01267  Uiso   1.00
O59    O     0.38290   0.42340   0.83250   0.01267  Uiso   1.00
O60    O     0.32180   0.46930   0.80110   0.01267  Uiso   1.00
O61    O     0.99520   0.41720   0.45460   0.01267  Uiso   1.00
O62    O     0.15440   0.48330   0.35930   0.01267  Uiso   1.00
O63    O     0.02800   0.26350   0.36770   0.01267  Uiso   1.00
O64    O     0.09730   0.47800   0.59130   0.01267  Uiso   1.00
O65    O     0.09090   0.55040   0.66750   0.01267  Uiso   1.00
O66    O     0.16820   0.52070   0.69890   0.01267  Uiso   1.00
O67    O     0.03740   0.08280   0.07800   0.01267  Uiso   1.00
O68    O     0.87600   0.01670   0.17110   0.01267  Uiso   1.00
O69    O     0.10420   0.23650   0.26450   0.01267  Uiso   1.00
O70    O     0.11330   0.02200   0.11930   0.01267  Uiso   1.00
O71    O     0.11710   0.94960   0.04050   0.01267  Uiso   1.00
O72    O     0.17820   0.97930   0.14750   0.01267  Uiso   1.00
O73    O     0.00480   0.42200   0.95940   0.01267  Uiso   1.00
O74    O     0.84560   0.32890   0.70490   0.01267  Uiso   1.00
O75    O     0.97200   0.23550   0.83970   0.01267  Uiso   1.00
O76    O     0.90270   0.38070   0.99400   0.01267  Uiso   1.00
O77    O     0.90910   0.45950   0.07660   0.01267  Uiso   1.00
O78    O     0.83180   0.35250   0.03070   0.01267  Uiso   1.00
O79    O     0.96260   0.04540   0.54060   0.01267  Uiso   1.00
O80    O     0.12400   0.14070   0.79510   0.01267  Uiso   1.00
O81    O     0.89580   0.13230   0.66030   0.01267  Uiso   1.00
O82    O     0.88670   0.90870   0.50600   0.01267  Uiso   1.00
O83    O     0.88290   0.83250   0.42340   0.01267  Uiso   1.00
O84    O     0.82180   0.80110   0.46930   0.01267  Uiso   1.00
O85    O     0.49520   0.45460   0.41720   0.01267  Uiso   1.00
O86    O     0.65440   0.35930   0.48330   0.01267  Uiso   1.00
O87    O     0.52800   0.36770   0.26350   0.01267  Uiso   1.00
O88    O     0.59730   0.59130   0.47800   0.01267  Uiso   1.00
O89    O     0.59090   0.66750   0.55040   0.01267  Uiso   1.00
O90    O     0.66820   0.69890   0.52070   0.01267  Uiso   1.00
O91    O     0.53740   0.07800   0.08280   0.01267  Uiso   1.00
O92    O     0.37600   0.17110   0.01670   0.01267  Uiso   1.00
O93    O     0.60420   0.26450   0.23650   0.01267  Uiso   1.00
O94    O     0.61330   0.11930   0.02200   0.01267  Uiso   1.00
O95    O     0.61710   0.04050   0.94960   0.01267  Uiso   1.00
O96    O     0.67820   0.14750   0.97930   0.01267  Uiso   1.00
O97    O     0.04540   0.04060   0.46260   0.01267  Uiso   1.00
O98    O     0.14070   0.29510   0.62400   0.01267  Uiso   1.00
O99    O     0.13230   0.16030   0.39580   0.01267  Uiso   1.00
O100   O     0.90870   0.00600   0.38670   0.01267  Uiso   1.00
O101   O     0.83250   0.92340   0.38290   0.01267  Uiso   1.00
O102   O     0.80110   0.96930   0.32180   0.01267  Uiso   1.00
O103   O     0.42200   0.45940   0.50480   0.01267  Uiso   1.00
O104   O     0.32890   0.20490   0.34560   0.01267  Uiso   1.00
O105   O     0.23550   0.33970   0.47200   0.01267  Uiso   1.00
O106   O     0.38070   0.49400   0.40270   0.01267  Uiso   1.00
O107   O     0.45950   0.57660   0.40910   0.01267  Uiso   1.00
O108   O     0.35250   0.53070   0.33180   0.01267  Uiso   1.00
O109   O     0.07800   0.58280   0.03740   0.01267  Uiso   1.00
O110   O     0.17110   0.51670   0.87600   0.01267  Uiso   1.00
O111   O     0.26450   0.73650   0.10420   0.01267  Uiso   1.00
O112   O     0.11930   0.52200   0.11330   0.01267  Uiso   1.00
O113   O     0.04050   0.44960   0.11710   0.01267  Uiso   1.00
O114   O     0.14750   0.47930   0.17820   0.01267  Uiso   1.00
O115   O     0.45460   0.91720   0.99520   0.01267  Uiso   1.00
O116   O     0.35930   0.98330   0.15440   0.01267  Uiso   1.00
O117   O     0.36770   0.76350   0.02800   0.01267  Uiso   1.00
O118   O     0.59130   0.97800   0.09730   0.01267  Uiso   1.00
O119   O     0.66750   0.05040   0.09090   0.01267  Uiso   1.00
O120   O     0.69890   0.02070   0.16820   0.01267  Uiso   1.00
O121   O     0.58280   0.53740   0.57800   0.01267  Uiso   1.00
O122   O     0.51670   0.37600   0.67110   0.01267  Uiso   1.00
O123   O     0.73650   0.60420   0.76450   0.01267  Uiso   1.00
O124   O     0.52200   0.61330   0.61930   0.01267  Uiso   1.00
O125   O     0.44960   0.61710   0.54050   0.01267  Uiso   1.00
O126   O     0.47930   0.67820   0.64750   0.01267  Uiso   1.00
O127   O     0.91720   0.49520   0.95460   0.01267  Uiso   1.00
O128   O     0.98330   0.65440   0.85930   0.01267  Uiso   1.00
O129   O     0.76350   0.52800   0.86770   0.01267  Uiso   1.00
O130   O     0.97800   0.59730   0.09130   0.01267  Uiso   1.00
O131   O     0.05040   0.59090   0.16750   0.01267  Uiso   1.00
O132   O     0.02070   0.66820   0.19890   0.01267  Uiso   1.00
O133   O     0.04060   0.96260   0.54540   0.01267  Uiso   1.00
O134   O     0.29510   0.12400   0.64070   0.01267  Uiso   1.00
O135   O     0.16030   0.89580   0.63230   0.01267  Uiso   1.00
O136   O     0.00600   0.88670   0.40870   0.01267  Uiso   1.00
O137   O     0.92340   0.88290   0.33250   0.01267  Uiso   1.00
O138   O     0.96930   0.82180   0.30110   0.01267  Uiso   1.00
O139   O     0.45940   0.00480   0.92200   0.01267  Uiso   1.00
O140   O     0.20490   0.84560   0.82890   0.01267  Uiso   1.00
O141   O     0.33970   0.97200   0.73550   0.01267  Uiso   1.00
O142   O     0.49400   0.90270   0.88070   0.01267  Uiso   1.00
O143   O     0.57660   0.90910   0.95950   0.01267  Uiso   1.00
O144   O     0.53070   0.83180   0.85250   0.01267  Uiso   1.00
