data_image0
_cell_length_a       26.343
_cell_length_b       27.158
_cell_length_c       27.158
_cell_angle_alpha    90
_cell_angle_beta     90
_cell_angle_gamma    90

_symmetry_space_group_name_H-M    "P 1"
_symmetry_int_tables_number       1

loop_
  _symmetry_equiv_pos_as_xyz
  'x, y, z'

loop_
  _atom_site_label
  _atom_site_occupancy
  _atom_site_fract_x
  _atom_site_fract_y
  _atom_site_fract_z
  _atom_site_thermal_displace_type
  _atom_site_B_iso_or_equiv
  _atom_site_type_symbol
  Cd1      1.0000 0.63420  0.34021  0.18752  Biso   1.000  Cd
  Cd2      1.0000 0.69828  0.14219  0.32525  Biso   1.000  Cd
  Cd3      1.0000 0.83183  0.19919  0.12433  Biso   1.000  Cd
  Cd4      1.0000 0.59635  0.11147  0.09902  Biso   1.000  Cd
  Cu1      1.0000 0.61871  0.22366  0.14530  Biso   1.000  Cu
  Cu2      1.0000 0.75809  0.17162  0.22526  Biso   1.000  Cu
  Cu3      1.0000 0.66542  0.24166  0.25134  Biso   1.000  Cu
  Cu4      1.0000 0.64530  0.13232  0.21278  Biso   1.000  Cu
  Cu5      1.0000 0.73205  0.26345  0.15721  Biso   1.000  Cu
  Cu6      1.0000 0.71188  0.15427  0.11866  Biso   1.000  Cu
  C1       1.0000 0.66350  0.27700  0.90590  Biso   1.000  C
  H1       1.0000 0.64430  0.26430  0.88010  Biso   1.000  H
  C2       1.0000 0.71770  0.33180  0.93400  Biso   1.000  C
  H2       1.0000 0.73900  0.35850  0.92800  Biso   1.000  H
  C3       1.0000 0.71640  0.31420  0.98010  Biso   1.000  C
  H3       1.0000 0.73510  0.32930  0.00500  Biso   1.000  H
  C4       1.0000 0.68660  0.27280  0.99010  Biso   1.000  C
  C5       1.0000 0.75930  0.24640  0.30360  Biso   1.000  C
  H4       1.0000 0.78650  0.22850  0.31970  Biso   1.000  H
  H5       1.0000 0.73990  0.26320  0.32890  Biso   1.000  H
  C6       1.0000 0.54290  0.16810  0.19910  Biso   1.000  C
  H6       1.0000 0.53050  0.13590  0.20920  Biso   1.000  H
  H7       1.0000 0.51840  0.18170  0.17620  Biso   1.000  H
  C7       1.0000 0.54560  0.20150  0.24450  Biso   1.000  C
  C8       1.0000 0.58250  0.18240  0.28350  Biso   1.000  C
  H8       1.0000 0.58070  0.20420  0.31170  Biso   1.000  H
  H9       1.0000 0.57060  0.15030  0.29430  Biso   1.000  H
  C9       1.0000 0.68560  0.25060  0.04430  Biso   1.000  C
  C10      1.0000 0.65070  0.20600  0.04580  Biso   1.000  C
  H10      1.0000 0.61680  0.21620  0.03630  Biso   1.000  H
  H11      1.0000 0.66230  0.18220  0.02160  Biso   1.000  H
  C11      1.0000 0.66000  0.25350  0.95240  Biso   1.000  C
  H12      1.0000 0.63990  0.22570  0.95670  Biso   1.000  H
  C12      1.0000 0.74350  0.31960  0.24530  Biso   1.000  C
  H13      1.0000 0.72700  0.33880  0.27080  Biso   1.000  H
  H14      1.0000 0.76120  0.34230  0.22370  Biso   1.000  H
  C13      1.0000 0.78210  0.28430  0.26910  Biso   1.000  C
  C14      1.0000 0.81440  0.26030  0.22790  Biso   1.000  C
  H15      1.0000 0.83080  0.28620  0.20900  Biso   1.000  H
  H16      1.0000 0.84100  0.24070  0.24300  Biso   1.000  H
  C15      1.0000 0.69490  0.05480  0.15510  Biso   1.000  C
  H17      1.0000 0.70370  0.04320  0.12240  Biso   1.000  H
  H18      1.0000 0.67100  0.03160  0.16910  Biso   1.000  H
  C16      1.0000 0.74160  0.05510  0.18590  Biso   1.000  C
  C17      1.0000 0.72990  0.06880  0.23820  Biso   1.000  C
  H19      1.0000 0.70530  0.04560  0.25110  Biso   1.000  H
  H20      1.0000 0.76060  0.06560  0.25760  Biso   1.000  H
  C18      1.0000 0.78450  0.08690  0.16460  Biso   1.000  C
  H21      1.0000 0.81430  0.08390  0.18540  Biso   1.000  H
  H22      1.0000 0.79330  0.07490  0.13210  Biso   1.000  H
  C19      1.0000 0.55970  0.25320  0.22960  Biso   1.000  C
  H23      1.0000 0.53430  0.26530  0.20670  Biso   1.000  H
  H24      1.0000 0.55840  0.27400  0.25860  Biso   1.000  H
  C20      1.0000 0.74090  0.23450  0.05500  Biso   1.000  C
  H25      1.0000 0.75090  0.20940  0.03150  Biso   1.000  H
  H26      1.0000 0.76330  0.26250  0.05070  Biso   1.000  H
  C21      1.0000 0.49390  0.20320  0.27150  Biso   1.000  C
  C22      1.0000 0.81690  0.31870  0.11060  Biso   1.000  C
  C23      1.0000 0.76450  0.00340  0.18630  Biso   1.000  C
  C24      1.0000 0.62820  0.33330  0.30780  Biso   1.000  C
  C25      1.0000 0.81920  0.31760  0.30110  Biso   1.000  C
  C26      1.0000 0.80370  0.34710  0.33430  Biso   1.000  C
  H27      1.0000 0.76890  0.35250  0.33600  Biso   1.000  H
  C27      1.0000 0.89990  0.33710  0.33610  Biso   1.000  C
  H28      1.0000 0.93460  0.33040  0.33590  Biso   1.000  H
  C28      1.0000 0.86830  0.31290  0.30420  Biso   1.000  C
  H29      1.0000 0.88350  0.29090  0.28250  Biso   1.000  H
  C29      1.0000 0.83410  0.37220  0.36850  Biso   1.000  C
  H30      1.0000 0.81910  0.39130  0.39290  Biso   1.000  H
  C30      1.0000 0.62100  0.35950  0.35640  Biso   1.000  C
  H31      1.0000 0.61140  0.39310  0.35050  Biso   1.000  H
  H32      1.0000 0.65220  0.35880  0.37470  Biso   1.000  H
  H33      1.0000 0.59490  0.34340  0.37500  Biso   1.000  H
  C31      1.0000 0.46520  0.16150  0.27910  Biso   1.000  C
  H34      1.0000 0.47690  0.13200  0.26600  Biso   1.000  H
  C32      1.0000 0.47500  0.24300  0.29420  Biso   1.000  C
  H35      1.0000 0.49200  0.27290  0.29210  Biso   1.000  H
  C33      1.0000 0.84040  0.36710  0.08680  Biso   1.000  C
  H36      1.0000 0.87360  0.36000  0.07420  Biso   1.000  H
  H37      1.0000 0.84260  0.39240  0.11130  Biso   1.000  H
  H38      1.0000 0.81900  0.37800  0.06030  Biso   1.000  H
  C34      1.0000 0.43030  0.23970  0.32060  Biso   1.000  C
  H39      1.0000 0.41810  0.26860  0.33460  Biso   1.000  H
  C35      1.0000 0.41980  0.16080  0.30500  Biso   1.000  C
  H40      1.0000 0.40070  0.13210  0.30610  Biso   1.000  H
  C36      1.0000 0.76740  0.97570  0.14650  Biso   1.000  C
  H41      1.0000 0.75430  0.98710  0.11680  Biso   1.000  H
  C37      1.0000 0.78280  0.98160  0.22720  Biso   1.000  C
  H42      1.0000 0.77810  0.99730  0.25730  Biso   1.000  H
  C38      1.0000 0.80990  0.93410  0.22670  Biso   1.000  C
  H43      1.0000 0.82340  0.92130  0.25570  Biso   1.000  H
  C39      1.0000 0.79120  0.92710  0.14900  Biso   1.000  C
  H44      1.0000 0.78880  0.90710  0.12130  Biso   1.000  H
  C40      1.0000 0.82170  0.13470  0.31030  Biso   1.000  C
  C41      1.0000 0.87670  0.12970  0.33630  Biso   1.000  C
  H45      1.0000 0.87220  0.12240  0.37070  Biso   1.000  H
  H46      1.0000 0.89490  0.16020  0.33290  Biso   1.000  H
  H47      1.0000 0.89550  0.10370  0.32090  Biso   1.000  H
  C42      1.0000 0.65450  0.05800  0.36280  Biso   1.000  C
  C43      1.0000 0.63290  0.01410  0.38870  Biso   1.000  C
  H48      1.0000 0.63880  0.98510  0.36930  Biso   1.000  H
  H49      1.0000 0.59700  0.01850  0.39320  Biso   1.000  H
  H50      1.0000 0.64890  0.01040  0.42020  Biso   1.000  H
  C44      1.0000 0.70130  0.09320  0.02770  Biso   1.000  C
  C45      1.0000 0.66720  0.29240  0.07750  Biso   1.000  C
  H51      1.0000 0.68990  0.32030  0.07400  Biso   1.000  H
  H52      1.0000 0.63370  0.30270  0.06680  Biso   1.000  H
  C46      1.0000 0.72400  0.08310  0.97210  Biso   1.000  C
  H53      1.0000 0.75900  0.09270  0.97100  Biso   1.000  H
  H54      1.0000 0.70500  0.10210  0.94860  Biso   1.000  H
  H55      1.0000 0.72110  0.04880  0.96440  Biso   1.000  H
  N1       1.0000 0.69160  0.31490  0.89690  Biso   1.000  N
  N2       1.0000 0.88210  0.36890  0.36600  Biso   1.000  N
  N3       1.0000 0.40380  0.20010  0.32780  Biso   1.000  N
  N4       1.0000 0.81460  0.91030  0.18560  Biso   1.000  N
  O1       1.0000 0.66470  0.27880  0.12870  Biso   1.000  O
  O2       1.0000 0.70550  0.29300  0.21740  Biso   1.000  O
  O3       1.0000 0.60870  0.25840  0.20730  Biso   1.000  O
  O4       1.0000 0.72690  0.21200  0.27850  Biso   1.000  O
  O5       1.0000 0.64120  0.28800  0.31050  Biso   1.000  O
  O6       1.0000 0.64800  0.18240  0.09280  Biso   1.000  O
  O7       1.0000 0.78680  0.23040  0.19560  Biso   1.000  O
  O8       1.0000 0.59020  0.16200  0.17440  Biso   1.000  O
  O9       1.0000 0.77470  0.32300  0.12760  Biso   1.000  O
  O10      1.0000 0.77020  0.13960  0.16100  Biso   1.000  O
  O11      1.0000 0.63350  0.17780  0.26990  Biso   1.000  O
  O12      1.0000 0.74660  0.21580  0.10340  Biso   1.000  O
  O13      1.0000 0.66980  0.10320  0.15060  Biso   1.000  O
  O14      1.0000 0.82130  0.14640  0.26490  Biso   1.000  O
  O15      1.0000 0.62010  0.35700  0.26920  Biso   1.000  O
  O16      1.0000 0.73410  0.11270  0.05460  Biso   1.000  O
  O17      1.0000 0.71030  0.11800  0.24440  Biso   1.000  O
  O18      1.0000 0.84540  0.28220  0.10720  Biso   1.000  O
  O19      1.0000 0.78410  0.13200  0.33800  Biso   1.000  O
  O20      1.0000 0.63200  0.08460  0.34240  Biso   1.000  O
  O21      1.0000 0.69740  0.06520  0.36750  Biso   1.000  O
  O22      1.0000 0.64530  0.08090  0.03780  Biso   1.000  O
  Cd5      1.0000 0.86580  0.65979  0.68752  Biso   1.000  Cd
  Cd6      1.0000 0.80172  0.85781  0.82525  Biso   1.000  Cd
  Cd7      1.0000 0.66817  0.80081  0.62433  Biso   1.000  Cd
  Cd8      1.0000 0.90365  0.88853  0.59902  Biso   1.000  Cd
  Cu7      1.0000 0.88129  0.77634  0.64530  Biso   1.000  Cu
  Cu8      1.0000 0.74191  0.82838  0.72526  Biso   1.000  Cu
  Cu9      1.0000 0.83458  0.75834  0.75134  Biso   1.000  Cu
  Cu10     1.0000 0.85470  0.86768  0.71278  Biso   1.000  Cu
  Cu11     1.0000 0.76795  0.73655  0.65721  Biso   1.000  Cu
  Cu12     1.0000 0.78812  0.84573  0.61866  Biso   1.000  Cu
  C47      1.0000 0.83650  0.72300  0.40590  Biso   1.000  C
  H56      1.0000 0.85570  0.73570  0.38010  Biso   1.000  H
  C48      1.0000 0.78230  0.66820  0.43400  Biso   1.000  C
  H57      1.0000 0.76100  0.64150  0.42800  Biso   1.000  H
  C49      1.0000 0.78360  0.68580  0.48010  Biso   1.000  C
  H58      1.0000 0.76490  0.67070  0.50500  Biso   1.000  H
  C50      1.0000 0.81340  0.72720  0.49010  Biso   1.000  C
  C51      1.0000 0.74070  0.75360  0.80360  Biso   1.000  C
  H59      1.0000 0.71350  0.77150  0.81970  Biso   1.000  H
  H60      1.0000 0.76010  0.73680  0.82890  Biso   1.000  H
  C52      1.0000 0.95710  0.83190  0.69910  Biso   1.000  C
  H61      1.0000 0.96950  0.86410  0.70920  Biso   1.000  H
  H62      1.0000 0.98160  0.81830  0.67620  Biso   1.000  H
  C53      1.0000 0.95440  0.79850  0.74450  Biso   1.000  C
  C54      1.0000 0.91750  0.81760  0.78350  Biso   1.000  C
  H63      1.0000 0.91930  0.79580  0.81170  Biso   1.000  H
  H64      1.0000 0.92940  0.84970  0.79430  Biso   1.000  H
  C55      1.0000 0.81440  0.74940  0.54430  Biso   1.000  C
  C56      1.0000 0.84930  0.79400  0.54580  Biso   1.000  C
  H65      1.0000 0.88320  0.78380  0.53630  Biso   1.000  H
  H66      1.0000 0.83770  0.81780  0.52160  Biso   1.000  H
  C57      1.0000 0.84000  0.74650  0.45240  Biso   1.000  C
  H67      1.0000 0.86010  0.77430  0.45670  Biso   1.000  H
  C58      1.0000 0.75650  0.68040  0.74530  Biso   1.000  C
  H68      1.0000 0.77300  0.66120  0.77080  Biso   1.000  H
  H69      1.0000 0.73880  0.65770  0.72370  Biso   1.000  H
  C59      1.0000 0.71790  0.71570  0.76910  Biso   1.000  C
  C60      1.0000 0.68560  0.73970  0.72790  Biso   1.000  C
  H70      1.0000 0.66920  0.71380  0.70900  Biso   1.000  H
  H71      1.0000 0.65900  0.75930  0.74300  Biso   1.000  H
  C61      1.0000 0.80510  0.94520  0.65510  Biso   1.000  C
  H72      1.0000 0.79630  0.95680  0.62240  Biso   1.000  H
  H73      1.0000 0.82900  0.96840  0.66910  Biso   1.000  H
  C62      1.0000 0.75840  0.94490  0.68590  Biso   1.000  C
  C63      1.0000 0.77010  0.93120  0.73820  Biso   1.000  C
  H74      1.0000 0.79470  0.95440  0.75110  Biso   1.000  H
  H75      1.0000 0.73940  0.93440  0.75760  Biso   1.000  H
  C64      1.0000 0.71550  0.91310  0.66460  Biso   1.000  C
  H76      1.0000 0.68570  0.91610  0.68540  Biso   1.000  H
  H77      1.0000 0.70670  0.92510  0.63210  Biso   1.000  H
  C65      1.0000 0.94030  0.74680  0.72960  Biso   1.000  C
  H78      1.0000 0.96570  0.73470  0.70670  Biso   1.000  H
  H79      1.0000 0.94160  0.72600  0.75860  Biso   1.000  H
  C66      1.0000 0.75910  0.76550  0.55500  Biso   1.000  C
  H80      1.0000 0.74910  0.79060  0.53150  Biso   1.000  H
  H81      1.0000 0.73670  0.73750  0.55070  Biso   1.000  H
  C67      1.0000 0.00610  0.79680  0.77150  Biso   1.000  C
  C68      1.0000 0.68310  0.68130  0.61060  Biso   1.000  C
  C69      1.0000 0.73550  0.99660  0.68630  Biso   1.000  C
  C70      1.0000 0.87180  0.66670  0.80780  Biso   1.000  C
  C71      1.0000 0.68080  0.68240  0.80110  Biso   1.000  C
  C72      1.0000 0.69630  0.65290  0.83430  Biso   1.000  C
  H82      1.0000 0.73110  0.64750  0.83600  Biso   1.000  H
  C73      1.0000 0.60010  0.66290  0.83610  Biso   1.000  C
  H83      1.0000 0.56540  0.66960  0.83590  Biso   1.000  H
  C74      1.0000 0.63170  0.68710  0.80420  Biso   1.000  C
  H84      1.0000 0.61650  0.70910  0.78250  Biso   1.000  H
  C75      1.0000 0.66590  0.62780  0.86850  Biso   1.000  C
  H85      1.0000 0.68090  0.60870  0.89290  Biso   1.000  H
  C76      1.0000 0.87900  0.64050  0.85640  Biso   1.000  C
  H86      1.0000 0.88860  0.60690  0.85050  Biso   1.000  H
  H87      1.0000 0.84780  0.64120  0.87470  Biso   1.000  H
  H88      1.0000 0.90510  0.65660  0.87500  Biso   1.000  H
  C77      1.0000 0.03480  0.83850  0.77910  Biso   1.000  C
  H89      1.0000 0.02310  0.86800  0.76600  Biso   1.000  H
  C78      1.0000 0.02500  0.75700  0.79420  Biso   1.000  C
  H90      1.0000 0.00800  0.72710  0.79210  Biso   1.000  H
  C79      1.0000 0.65960  0.63290  0.58680  Biso   1.000  C
  H91      1.0000 0.62640  0.64000  0.57420  Biso   1.000  H
  H92      1.0000 0.65740  0.60760  0.61130  Biso   1.000  H
  H93      1.0000 0.68100  0.62200  0.56030  Biso   1.000  H
  C80      1.0000 0.06970  0.76030  0.82060  Biso   1.000  C
  H94      1.0000 0.08190  0.73140  0.83460  Biso   1.000  H
  C81      1.0000 0.08020  0.83920  0.80500  Biso   1.000  C
  H95      1.0000 0.09930  0.86790  0.80610  Biso   1.000  H
  C82      1.0000 0.73260  0.02430  0.64650  Biso   1.000  C
  H96      1.0000 0.74570  0.01290  0.61680  Biso   1.000  H
  C83      1.0000 0.71720  0.01840  0.72720  Biso   1.000  C
  H97      1.0000 0.72190  0.00270  0.75730  Biso   1.000  H
  C84      1.0000 0.69010  0.06590  0.72670  Biso   1.000  C
  H98      1.0000 0.67660  0.07870  0.75570  Biso   1.000  H
  C85      1.0000 0.70880  0.07290  0.64900  Biso   1.000  C
  H99      1.0000 0.71120  0.09290  0.62130  Biso   1.000  H
  C86      1.0000 0.67830  0.86530  0.81030  Biso   1.000  C
  C87      1.0000 0.62330  0.87030  0.83630  Biso   1.000  C
  H100     1.0000 0.62780  0.87760  0.87070  Biso   1.000  H
  H101     1.0000 0.60510  0.83980  0.83290  Biso   1.000  H
  H102     1.0000 0.60450  0.89630  0.82090  Biso   1.000  H
  C88      1.0000 0.84550  0.94200  0.86280  Biso   1.000  C
  C89      1.0000 0.86710  0.98590  0.88870  Biso   1.000  C
  H103     1.0000 0.86120  0.01490  0.86930  Biso   1.000  H
  H104     1.0000 0.90300  0.98150  0.89320  Biso   1.000  H
  H105     1.0000 0.85110  0.98960  0.92020  Biso   1.000  H
  C90      1.0000 0.79870  0.90680  0.52770  Biso   1.000  C
  C91      1.0000 0.83280  0.70760  0.57750  Biso   1.000  C
  H106     1.0000 0.81010  0.67970  0.57400  Biso   1.000  H
  H107     1.0000 0.86630  0.69730  0.56680  Biso   1.000  H
  C92      1.0000 0.77600  0.91690  0.47210  Biso   1.000  C
  H108     1.0000 0.74100  0.90730  0.47100  Biso   1.000  H
  H109     1.0000 0.79500  0.89790  0.44860  Biso   1.000  H
  H110     1.0000 0.77890  0.95120  0.46440  Biso   1.000  H
  N5       1.0000 0.80840  0.68510  0.39690  Biso   1.000  N
  N6       1.0000 0.61790  0.63110  0.86600  Biso   1.000  N
  N7       1.0000 0.09620  0.79990  0.82780  Biso   1.000  N
  N8       1.0000 0.68540  0.08970  0.68560  Biso   1.000  N
  O23      1.0000 0.83530  0.72120  0.62870  Biso   1.000  O
  O24      1.0000 0.79450  0.70700  0.71740  Biso   1.000  O
  O25      1.0000 0.89130  0.74160  0.70730  Biso   1.000  O
  O26      1.0000 0.77310  0.78800  0.77850  Biso   1.000  O
  O27      1.0000 0.85880  0.71200  0.81050  Biso   1.000  O
  O28      1.0000 0.85200  0.81760  0.59280  Biso   1.000  O
  O29      1.0000 0.71320  0.76960  0.69560  Biso   1.000  O
  O30      1.0000 0.90980  0.83800  0.67440  Biso   1.000  O
  O31      1.0000 0.72530  0.67700  0.62760  Biso   1.000  O
  O32      1.0000 0.72980  0.86040  0.66100  Biso   1.000  O
  O33      1.0000 0.86650  0.82220  0.76990  Biso   1.000  O
  O34      1.0000 0.75340  0.78420  0.60340  Biso   1.000  O
  O35      1.0000 0.83020  0.89680  0.65060  Biso   1.000  O
  O36      1.0000 0.67870  0.85360  0.76490  Biso   1.000  O
  O37      1.0000 0.87990  0.64300  0.76920  Biso   1.000  O
  O38      1.0000 0.76590  0.88730  0.55460  Biso   1.000  O
  O39      1.0000 0.78970  0.88200  0.74440  Biso   1.000  O
  O40      1.0000 0.65460  0.71780  0.60720  Biso   1.000  O
  O41      1.0000 0.71590  0.86800  0.83800  Biso   1.000  O
  O42      1.0000 0.86800  0.91540  0.84240  Biso   1.000  O
  O43      1.0000 0.80260  0.93480  0.86750  Biso   1.000  O
  O44      1.0000 0.85470  0.91910  0.53780  Biso   1.000  O
  Cd9      1.0000 0.36580  0.84021  0.31248  Biso   1.000  Cd
  Cd10     1.0000 0.30172  0.64219  0.17475  Biso   1.000  Cd
  Cd11     1.0000 0.16817  0.69919  0.37567  Biso   1.000  Cd
  Cd12     1.0000 0.40365  0.61147  0.40098  Biso   1.000  Cd
  Cu13     1.0000 0.38129  0.72366  0.35470  Biso   1.000  Cu
  Cu14     1.0000 0.24191  0.67162  0.27474  Biso   1.000  Cu
  Cu15     1.0000 0.33458  0.74166  0.24866  Biso   1.000  Cu
  Cu16     1.0000 0.35470  0.63232  0.28722  Biso   1.000  Cu
  Cu17     1.0000 0.26795  0.76345  0.34279  Biso   1.000  Cu
  Cu18     1.0000 0.28812  0.65427  0.38134  Biso   1.000  Cu
  C93      1.0000 0.33650  0.77700  0.59410  Biso   1.000  C
  H111     1.0000 0.35570  0.76430  0.61990  Biso   1.000  H
  C94      1.0000 0.28230  0.83180  0.56600  Biso   1.000  C
  H112     1.0000 0.26100  0.85850  0.57200  Biso   1.000  H
  C95      1.0000 0.28360  0.81420  0.51990  Biso   1.000  C
  H113     1.0000 0.26490  0.82930  0.49500  Biso   1.000  H
  C96      1.0000 0.31340  0.77280  0.50990  Biso   1.000  C
  C97      1.0000 0.24070  0.74640  0.19640  Biso   1.000  C
  H114     1.0000 0.21350  0.72850  0.18030  Biso   1.000  H
  H115     1.0000 0.26010  0.76320  0.17110  Biso   1.000  H
  C98      1.0000 0.45710  0.66810  0.30090  Biso   1.000  C
  H116     1.0000 0.46950  0.63590  0.29080  Biso   1.000  H
  H117     1.0000 0.48160  0.68170  0.32380  Biso   1.000  H
  C99      1.0000 0.45440  0.70150  0.25550  Biso   1.000  C
  C100     1.0000 0.41750  0.68240  0.21650  Biso   1.000  C
  H118     1.0000 0.41930  0.70420  0.18830  Biso   1.000  H
  H119     1.0000 0.42940  0.65030  0.20570  Biso   1.000  H
  C101     1.0000 0.31440  0.75060  0.45570  Biso   1.000  C
  C102     1.0000 0.34930  0.70600  0.45420  Biso   1.000  C
  H120     1.0000 0.38320  0.71620  0.46370  Biso   1.000  H
  H121     1.0000 0.33770  0.68220  0.47840  Biso   1.000  H
  C103     1.0000 0.34000  0.75350  0.54760  Biso   1.000  C
  H122     1.0000 0.36010  0.72570  0.54330  Biso   1.000  H
  C104     1.0000 0.25650  0.81960  0.25470  Biso   1.000  C
  H123     1.0000 0.27300  0.83880  0.22920  Biso   1.000  H
  H124     1.0000 0.23880  0.84230  0.27630  Biso   1.000  H
  C105     1.0000 0.21790  0.78430  0.23090  Biso   1.000  C
  C106     1.0000 0.18560  0.76030  0.27210  Biso   1.000  C
  H125     1.0000 0.16920  0.78620  0.29100  Biso   1.000  H
  H126     1.0000 0.15900  0.74070  0.25700  Biso   1.000  H
  C107     1.0000 0.30510  0.55480  0.34490  Biso   1.000  C
  H127     1.0000 0.29630  0.54320  0.37760  Biso   1.000  H
  H128     1.0000 0.32900  0.53160  0.33090  Biso   1.000  H
  C108     1.0000 0.25840  0.55510  0.31410  Biso   1.000  C
  C109     1.0000 0.27010  0.56880  0.26180  Biso   1.000  C
  H129     1.0000 0.29470  0.54560  0.24890  Biso   1.000  H
  H130     1.0000 0.23940  0.56560  0.24240  Biso   1.000  H
  C110     1.0000 0.21550  0.58690  0.33540  Biso   1.000  C
  H131     1.0000 0.18570  0.58390  0.31460  Biso   1.000  H
  H132     1.0000 0.20670  0.57490  0.36790  Biso   1.000  H
  C111     1.0000 0.44030  0.75320  0.27040  Biso   1.000  C
  H133     1.0000 0.46570  0.76530  0.29330  Biso   1.000  H
  H134     1.0000 0.44160  0.77400  0.24140  Biso   1.000  H
  C112     1.0000 0.25910  0.73450  0.44500  Biso   1.000  C
  H135     1.0000 0.24910  0.70940  0.46850  Biso   1.000  H
  H136     1.0000 0.23670  0.76250  0.44930  Biso   1.000  H
  C113     1.0000 0.50610  0.70320  0.22850  Biso   1.000  C
  C114     1.0000 0.18310  0.81870  0.38940  Biso   1.000  C
  C115     1.0000 0.23550  0.50340  0.31370  Biso   1.000  C
  C116     1.0000 0.37180  0.83330  0.19220  Biso   1.000  C
  C117     1.0000 0.18080  0.81760  0.19890  Biso   1.000  C
  C118     1.0000 0.19630  0.84710  0.16570  Biso   1.000  C
  H137     1.0000 0.23110  0.85250  0.16400  Biso   1.000  H
  C119     1.0000 0.10010  0.83710  0.16390  Biso   1.000  C
  H138     1.0000 0.06540  0.83040  0.16410  Biso   1.000  H
  C120     1.0000 0.13170  0.81290  0.19580  Biso   1.000  C
  H139     1.0000 0.11650  0.79090  0.21750  Biso   1.000  H
  C121     1.0000 0.16590  0.87220  0.13150  Biso   1.000  C
  H140     1.0000 0.18090  0.89130  0.10710  Biso   1.000  H
  C122     1.0000 0.37900  0.85950  0.14360  Biso   1.000  C
  H141     1.0000 0.38860  0.89310  0.14950  Biso   1.000  H
  H142     1.0000 0.34780  0.85880  0.12530  Biso   1.000  H
  H143     1.0000 0.40510  0.84340  0.12500  Biso   1.000  H
  C123     1.0000 0.53480  0.66150  0.22090  Biso   1.000  C
  H144     1.0000 0.52310  0.63200  0.23400  Biso   1.000  H
  C124     1.0000 0.52500  0.74300  0.20580  Biso   1.000  C
  H145     1.0000 0.50800  0.77290  0.20790  Biso   1.000  H
  C125     1.0000 0.15960  0.86710  0.41320  Biso   1.000  C
  H146     1.0000 0.12640  0.86000  0.42580  Biso   1.000  H
  H147     1.0000 0.15740  0.89240  0.38870  Biso   1.000  H
  H148     1.0000 0.18100  0.87800  0.43970  Biso   1.000  H
  C126     1.0000 0.56970  0.73970  0.17940  Biso   1.000  C
  H149     1.0000 0.58190  0.76860  0.16540  Biso   1.000  H
  C127     1.0000 0.58020  0.66080  0.19500  Biso   1.000  C
  H150     1.0000 0.59930  0.63210  0.19390  Biso   1.000  H
  C128     1.0000 0.23260  0.47570  0.35350  Biso   1.000  C
  H151     1.0000 0.24570  0.48710  0.38320  Biso   1.000  H
  C129     1.0000 0.21720  0.48160  0.27280  Biso   1.000  C
  H152     1.0000 0.22190  0.49730  0.24270  Biso   1.000  H
  C130     1.0000 0.19010  0.43410  0.27330  Biso   1.000  C
  H153     1.0000 0.17660  0.42130  0.24430  Biso   1.000  H
  C131     1.0000 0.20880  0.42710  0.35100  Biso   1.000  C
  H154     1.0000 0.21120  0.40710  0.37870  Biso   1.000  H
  C132     1.0000 0.17830  0.63470  0.18970  Biso   1.000  C
  C133     1.0000 0.12330  0.62970  0.16370  Biso   1.000  C
  H155     1.0000 0.12780  0.62240  0.12930  Biso   1.000  H
  H156     1.0000 0.10510  0.66020  0.16710  Biso   1.000  H
  H157     1.0000 0.10450  0.60370  0.17910  Biso   1.000  H
  C134     1.0000 0.34550  0.55800  0.13720  Biso   1.000  C
  C135     1.0000 0.36710  0.51410  0.11130  Biso   1.000  C
  H158     1.0000 0.36120  0.48510  0.13070  Biso   1.000  H
  H159     1.0000 0.40300  0.51850  0.10680  Biso   1.000  H
  H160     1.0000 0.35110  0.51040  0.07980  Biso   1.000  H
  C136     1.0000 0.29870  0.59320  0.47230  Biso   1.000  C
  C137     1.0000 0.33280  0.79240  0.42250  Biso   1.000  C
  H161     1.0000 0.31010  0.82030  0.42600  Biso   1.000  H
  H162     1.0000 0.36630  0.80270  0.43320  Biso   1.000  H
  C138     1.0000 0.27600  0.58310  0.52790  Biso   1.000  C
  H163     1.0000 0.24100  0.59270  0.52900  Biso   1.000  H
  H164     1.0000 0.29500  0.60210  0.55140  Biso   1.000  H
  H165     1.0000 0.27890  0.54880  0.53560  Biso   1.000  H
  N9       1.0000 0.30840  0.81490  0.60310  Biso   1.000  N
  N10      1.0000 0.11790  0.86890  0.13400  Biso   1.000  N
  N11      1.0000 0.59620  0.70010  0.17220  Biso   1.000  N
  N12      1.0000 0.18540  0.41030  0.31440  Biso   1.000  N
  O45      1.0000 0.33530  0.77880  0.37130  Biso   1.000  O
  O46      1.0000 0.29450  0.79300  0.28260  Biso   1.000  O
  O47      1.0000 0.39130  0.75840  0.29270  Biso   1.000  O
  O48      1.0000 0.27310  0.71200  0.22150  Biso   1.000  O
  O49      1.0000 0.35880  0.78800  0.18950  Biso   1.000  O
  O50      1.0000 0.35200  0.68240  0.40720  Biso   1.000  O
  O51      1.0000 0.21320  0.73040  0.30440  Biso   1.000  O
  O52      1.0000 0.40980  0.66200  0.32560  Biso   1.000  O
  O53      1.0000 0.22530  0.82300  0.37240  Biso   1.000  O
  O54      1.0000 0.22980  0.63960  0.33900  Biso   1.000  O
  O55      1.0000 0.36650  0.67780  0.23010  Biso   1.000  O
  O56      1.0000 0.25340  0.71580  0.39660  Biso   1.000  O
  O57      1.0000 0.33020  0.60320  0.34940  Biso   1.000  O
  O58      1.0000 0.17870  0.64640  0.23510  Biso   1.000  O
  O59      1.0000 0.37990  0.85700  0.23080  Biso   1.000  O
  O60      1.0000 0.26590  0.61270  0.44540  Biso   1.000  O
  O61      1.0000 0.28970  0.61800  0.25560  Biso   1.000  O
  O62      1.0000 0.15460  0.78220  0.39280  Biso   1.000  O
  O63      1.0000 0.21590  0.63200  0.16200  Biso   1.000  O
  O64      1.0000 0.36800  0.58460  0.15760  Biso   1.000  O
  O65      1.0000 0.30260  0.56520  0.13250  Biso   1.000  O
  O66      1.0000 0.35470  0.58090  0.46220  Biso   1.000  O
  Cd13     1.0000 0.13420  0.15979  0.81248  Biso   1.000  Cd
  Cd14     1.0000 0.19828  0.35781  0.67475  Biso   1.000  Cd
  Cd15     1.0000 0.33183  0.30081  0.87567  Biso   1.000  Cd
  Cd16     1.0000 0.09635  0.38853  0.90098  Biso   1.000  Cd
  Cu19     1.0000 0.11871  0.27634  0.85470  Biso   1.000  Cu
  Cu20     1.0000 0.25809  0.32838  0.77474  Biso   1.000  Cu
  Cu21     1.0000 0.16542  0.25834  0.74866  Biso   1.000  Cu
  Cu22     1.0000 0.14530  0.36768  0.78722  Biso   1.000  Cu
  Cu23     1.0000 0.23205  0.23655  0.84279  Biso   1.000  Cu
  Cu24     1.0000 0.21188  0.34573  0.88134  Biso   1.000  Cu
  C139     1.0000 0.16350  0.22300  0.09410  Biso   1.000  C
  H166     1.0000 0.14430  0.23570  0.11990  Biso   1.000  H
  C140     1.0000 0.21770  0.16820  0.06600  Biso   1.000  C
  H167     1.0000 0.23900  0.14150  0.07200  Biso   1.000  H
  C141     1.0000 0.21640  0.18580  0.01990  Biso   1.000  C
  H168     1.0000 0.23510  0.17070  0.99500  Biso   1.000  H
  C142     1.0000 0.18660  0.22720  0.00990  Biso   1.000  C
  C143     1.0000 0.25930  0.25360  0.69640  Biso   1.000  C
  H169     1.0000 0.28650  0.27150  0.68030  Biso   1.000  H
  H170     1.0000 0.23990  0.23680  0.67110  Biso   1.000  H
  C144     1.0000 0.04290  0.33190  0.80090  Biso   1.000  C
  H171     1.0000 0.03050  0.36410  0.79080  Biso   1.000  H
  H172     1.0000 0.01840  0.31830  0.82380  Biso   1.000  H
  C145     1.0000 0.04560  0.29850  0.75550  Biso   1.000  C
  C146     1.0000 0.08250  0.31760  0.71650  Biso   1.000  C
  H173     1.0000 0.08070  0.29580  0.68830  Biso   1.000  H
  H174     1.0000 0.07060  0.34970  0.70570  Biso   1.000  H
  C147     1.0000 0.18560  0.24940  0.95570  Biso   1.000  C
  C148     1.0000 0.15070  0.29400  0.95420  Biso   1.000  C
  H175     1.0000 0.11680  0.28380  0.96370  Biso   1.000  H
  H176     1.0000 0.16230  0.31780  0.97840  Biso   1.000  H
  C149     1.0000 0.16000  0.24650  0.04760  Biso   1.000  C
  H177     1.0000 0.13990  0.27430  0.04330  Biso   1.000  H
  C150     1.0000 0.24350  0.18040  0.75470  Biso   1.000  C
  H178     1.0000 0.22700  0.16120  0.72920  Biso   1.000  H
  H179     1.0000 0.26120  0.15770  0.77630  Biso   1.000  H
  C151     1.0000 0.28210  0.21570  0.73090  Biso   1.000  C
  C152     1.0000 0.31440  0.23970  0.77210  Biso   1.000  C
  H180     1.0000 0.33080  0.21380  0.79100  Biso   1.000  H
  H181     1.0000 0.34100  0.25930  0.75700  Biso   1.000  H
  C153     1.0000 0.19490  0.44520  0.84490  Biso   1.000  C
  H182     1.0000 0.20370  0.45680  0.87760  Biso   1.000  H
  H183     1.0000 0.17100  0.46840  0.83090  Biso   1.000  H
  C154     1.0000 0.24160  0.44490  0.81410  Biso   1.000  C
  C155     1.0000 0.22990  0.43120  0.76180  Biso   1.000  C
  H184     1.0000 0.20530  0.45440  0.74890  Biso   1.000  H
  H185     1.0000 0.26060  0.43440  0.74240  Biso   1.000  H
  C156     1.0000 0.28450  0.41310  0.83540  Biso   1.000  C
  H186     1.0000 0.31430  0.41610  0.81460  Biso   1.000  H
  H187     1.0000 0.29330  0.42510  0.86790  Biso   1.000  H
  C157     1.0000 0.05970  0.24680  0.77040  Biso   1.000  C
  H188     1.0000 0.03430  0.23470  0.79330  Biso   1.000  H
  H189     1.0000 0.05840  0.22600  0.74140  Biso   1.000  H
  C158     1.0000 0.24090  0.26550  0.94500  Biso   1.000  C
  H190     1.0000 0.25090  0.29060  0.96850  Biso   1.000  H
  H191     1.0000 0.26330  0.23750  0.94930  Biso   1.000  H
  C159     1.0000 0.99390  0.29680  0.72850  Biso   1.000  C
  C160     1.0000 0.31690  0.18130  0.88940  Biso   1.000  C
  C161     1.0000 0.26450  0.49660  0.81370  Biso   1.000  C
  C162     1.0000 0.12820  0.16670  0.69220  Biso   1.000  C
  C163     1.0000 0.31920  0.18240  0.69890  Biso   1.000  C
  C164     1.0000 0.30370  0.15290  0.66570  Biso   1.000  C
  H192     1.0000 0.26890  0.14750  0.66400  Biso   1.000  H
  C165     1.0000 0.39990  0.16290  0.66390  Biso   1.000  C
  H193     1.0000 0.43460  0.16960  0.66410  Biso   1.000  H
  C166     1.0000 0.36830  0.18710  0.69580  Biso   1.000  C
  H194     1.0000 0.38350  0.20910  0.71750  Biso   1.000  H
  C167     1.0000 0.33410  0.12780  0.63150  Biso   1.000  C
  H195     1.0000 0.31910  0.10870  0.60710  Biso   1.000  H
  C168     1.0000 0.12100  0.14050  0.64360  Biso   1.000  C
  H196     1.0000 0.11140  0.10690  0.64950  Biso   1.000  H
  H197     1.0000 0.15220  0.14120  0.62530  Biso   1.000  H
  H198     1.0000 0.09490  0.15660  0.62500  Biso   1.000  H
  C169     1.0000 0.96520  0.33850  0.72090  Biso   1.000  C
  H199     1.0000 0.97690  0.36800  0.73400  Biso   1.000  H
  C170     1.0000 0.97500  0.25700  0.70580  Biso   1.000  C
  H200     1.0000 0.99200  0.22710  0.70790  Biso   1.000  H
  C171     1.0000 0.34040  0.13290  0.91320  Biso   1.000  C
  H201     1.0000 0.37360  0.14000  0.92580  Biso   1.000  H
  H202     1.0000 0.34260  0.10760  0.88870  Biso   1.000  H
  H203     1.0000 0.31900  0.12200  0.93970  Biso   1.000  H
  C172     1.0000 0.93030  0.26030  0.67940  Biso   1.000  C
  H204     1.0000 0.91810  0.23140  0.66540  Biso   1.000  H
  C173     1.0000 0.91980  0.33920  0.69500  Biso   1.000  C
  H205     1.0000 0.90070  0.36790  0.69390  Biso   1.000  H
  C174     1.0000 0.26740  0.52430  0.85350  Biso   1.000  C
  H206     1.0000 0.25430  0.51290  0.88320  Biso   1.000  H
  C175     1.0000 0.28280  0.51840  0.77280  Biso   1.000  C
  H207     1.0000 0.27810  0.50270  0.74270  Biso   1.000  H
  C176     1.0000 0.30990  0.56590  0.77330  Biso   1.000  C
  H208     1.0000 0.32340  0.57870  0.74430  Biso   1.000  H
  C177     1.0000 0.29120  0.57290  0.85100  Biso   1.000  C
  H209     1.0000 0.28880  0.59290  0.87870  Biso   1.000  H
  C178     1.0000 0.32170  0.36530  0.68970  Biso   1.000  C
  C179     1.0000 0.37670  0.37030  0.66370  Biso   1.000  C
  H210     1.0000 0.37220  0.37760  0.62930  Biso   1.000  H
  H211     1.0000 0.39490  0.33980  0.66710  Biso   1.000  H
  H212     1.0000 0.39550  0.39630  0.67910  Biso   1.000  H
  C180     1.0000 0.15450  0.44200  0.63720  Biso   1.000  C
  C181     1.0000 0.13290  0.48590  0.61130  Biso   1.000  C
  H213     1.0000 0.13880  0.51490  0.63070  Biso   1.000  H
  H214     1.0000 0.09700  0.48150  0.60680  Biso   1.000  H
  H215     1.0000 0.14890  0.48960  0.57980  Biso   1.000  H
  C182     1.0000 0.20130  0.40680  0.97230  Biso   1.000  C
  C183     1.0000 0.16720  0.20760  0.92250  Biso   1.000  C
  H216     1.0000 0.18990  0.17970  0.92600  Biso   1.000  H
  H217     1.0000 0.13370  0.19730  0.93320  Biso   1.000  H
  C184     1.0000 0.22400  0.41690  0.02790  Biso   1.000  C
  H218     1.0000 0.25900  0.40730  0.02900  Biso   1.000  H
  H219     1.0000 0.20500  0.39790  0.05140  Biso   1.000  H
  H220     1.0000 0.22110  0.45120  0.03560  Biso   1.000  H
  N13      1.0000 0.19160  0.18510  0.10310  Biso   1.000  N
  N14      1.0000 0.38210  0.13110  0.63400  Biso   1.000  N
  N15      1.0000 0.90380  0.29990  0.67220  Biso   1.000  N
  N16      1.0000 0.31460  0.58970  0.81440  Biso   1.000  N
  O67      1.0000 0.16470  0.22120  0.87130  Biso   1.000  O
  O68      1.0000 0.20550  0.20700  0.78260  Biso   1.000  O
  O69      1.0000 0.10870  0.24160  0.79270  Biso   1.000  O
  O70      1.0000 0.22690  0.28800  0.72150  Biso   1.000  O
  O71      1.0000 0.14120  0.21200  0.68950  Biso   1.000  O
  O72      1.0000 0.14800  0.31760  0.90720  Biso   1.000  O
  O73      1.0000 0.28680  0.26960  0.80440  Biso   1.000  O
  O74      1.0000 0.09020  0.33800  0.82560  Biso   1.000  O
  O75      1.0000 0.27470  0.17700  0.87240  Biso   1.000  O
  O76      1.0000 0.27020  0.36040  0.83900  Biso   1.000  O
  O77      1.0000 0.13350  0.32220  0.73010  Biso   1.000  O
  O78      1.0000 0.24660  0.28420  0.89660  Biso   1.000  O
  O79      1.0000 0.16980  0.39680  0.84940  Biso   1.000  O
  O80      1.0000 0.32130  0.35360  0.73510  Biso   1.000  O
  O81      1.0000 0.12010  0.14300  0.73080  Biso   1.000  O
  O82      1.0000 0.23410  0.38730  0.94540  Biso   1.000  O
  O83      1.0000 0.21030  0.38200  0.75560  Biso   1.000  O
  O84      1.0000 0.34540  0.21780  0.89280  Biso   1.000  O
  O85      1.0000 0.28410  0.36800  0.66200  Biso   1.000  O
  O86      1.0000 0.13200  0.41540  0.65760  Biso   1.000  O
  O87      1.0000 0.19740  0.43480  0.63250  Biso   1.000  O
  O88      1.0000 0.14530  0.41910  0.96220  Biso   1.000  O
  Cd17     1.0000 0.36580  0.65979  0.81248  Biso   1.000  Cd
  Cd18     1.0000 0.30172  0.85781  0.67475  Biso   1.000  Cd
  Cd19     1.0000 0.16817  0.80081  0.87567  Biso   1.000  Cd
  Cd20     1.0000 0.40365  0.88853  0.90098  Biso   1.000  Cd
  Cu25     1.0000 0.38129  0.77634  0.85470  Biso   1.000  Cu
  Cu26     1.0000 0.24191  0.82838  0.77474  Biso   1.000  Cu
  Cu27     1.0000 0.33458  0.75834  0.74866  Biso   1.000  Cu
  Cu28     1.0000 0.35470  0.86768  0.78722  Biso   1.000  Cu
  Cu29     1.0000 0.26795  0.73655  0.84279  Biso   1.000  Cu
  Cu30     1.0000 0.28812  0.84573  0.88134  Biso   1.000  Cu
  C185     1.0000 0.33650  0.72300  0.09410  Biso   1.000  C
  H221     1.0000 0.35570  0.73570  0.11990  Biso   1.000  H
  C186     1.0000 0.28230  0.66820  0.06600  Biso   1.000  C
  H222     1.0000 0.26100  0.64150  0.07200  Biso   1.000  H
  C187     1.0000 0.28360  0.68580  0.01990  Biso   1.000  C
  H223     1.0000 0.26490  0.67070  0.99500  Biso   1.000  H
  C188     1.0000 0.31340  0.72720  0.00990  Biso   1.000  C
  C189     1.0000 0.24070  0.75360  0.69640  Biso   1.000  C
  H224     1.0000 0.21350  0.77150  0.68030  Biso   1.000  H
  H225     1.0000 0.26010  0.73680  0.67110  Biso   1.000  H
  C190     1.0000 0.45710  0.83190  0.80090  Biso   1.000  C
  H226     1.0000 0.46950  0.86410  0.79080  Biso   1.000  H
  H227     1.0000 0.48160  0.81830  0.82380  Biso   1.000  H
  C191     1.0000 0.45440  0.79850  0.75550  Biso   1.000  C
  C192     1.0000 0.41750  0.81760  0.71650  Biso   1.000  C
  H228     1.0000 0.41930  0.79580  0.68830  Biso   1.000  H
  H229     1.0000 0.42940  0.84970  0.70570  Biso   1.000  H
  C193     1.0000 0.31440  0.74940  0.95570  Biso   1.000  C
  C194     1.0000 0.34930  0.79400  0.95420  Biso   1.000  C
  H230     1.0000 0.38320  0.78380  0.96370  Biso   1.000  H
  H231     1.0000 0.33770  0.81780  0.97840  Biso   1.000  H
  C195     1.0000 0.34000  0.74650  0.04760  Biso   1.000  C
  H232     1.0000 0.36010  0.77430  0.04330  Biso   1.000  H
  C196     1.0000 0.25650  0.68040  0.75470  Biso   1.000  C
  H233     1.0000 0.27300  0.66120  0.72920  Biso   1.000  H
  H234     1.0000 0.23880  0.65770  0.77630  Biso   1.000  H
  C197     1.0000 0.21790  0.71570  0.73090  Biso   1.000  C
  C198     1.0000 0.18560  0.73970  0.77210  Biso   1.000  C
  H235     1.0000 0.16920  0.71380  0.79100  Biso   1.000  H
  H236     1.0000 0.15900  0.75930  0.75700  Biso   1.000  H
  C199     1.0000 0.30510  0.94520  0.84490  Biso   1.000  C
  H237     1.0000 0.29630  0.95680  0.87760  Biso   1.000  H
  H238     1.0000 0.32900  0.96840  0.83090  Biso   1.000  H
  C200     1.0000 0.25840  0.94490  0.81410  Biso   1.000  C
  C201     1.0000 0.27010  0.93120  0.76180  Biso   1.000  C
  H239     1.0000 0.29470  0.95440  0.74890  Biso   1.000  H
  H240     1.0000 0.23940  0.93440  0.74240  Biso   1.000  H
  C202     1.0000 0.21550  0.91310  0.83540  Biso   1.000  C
  H241     1.0000 0.18570  0.91610  0.81460  Biso   1.000  H
  H242     1.0000 0.20670  0.92510  0.86790  Biso   1.000  H
  C203     1.0000 0.44030  0.74680  0.77040  Biso   1.000  C
  H243     1.0000 0.46570  0.73470  0.79330  Biso   1.000  H
  H244     1.0000 0.44160  0.72600  0.74140  Biso   1.000  H
  C204     1.0000 0.25910  0.76550  0.94500  Biso   1.000  C
  H245     1.0000 0.24910  0.79060  0.96850  Biso   1.000  H
  H246     1.0000 0.23670  0.73750  0.94930  Biso   1.000  H
  C205     1.0000 0.50610  0.79680  0.72850  Biso   1.000  C
  C206     1.0000 0.18310  0.68130  0.88940  Biso   1.000  C
  C207     1.0000 0.23550  0.99660  0.81370  Biso   1.000  C
  C208     1.0000 0.37180  0.66670  0.69220  Biso   1.000  C
  C209     1.0000 0.18080  0.68240  0.69890  Biso   1.000  C
  C210     1.0000 0.19630  0.65290  0.66570  Biso   1.000  C
  H247     1.0000 0.23110  0.64750  0.66400  Biso   1.000  H
  C211     1.0000 0.10010  0.66290  0.66390  Biso   1.000  C
  H248     1.0000 0.06540  0.66960  0.66410  Biso   1.000  H
  C212     1.0000 0.13170  0.68710  0.69580  Biso   1.000  C
  H249     1.0000 0.11650  0.70910  0.71750  Biso   1.000  H
  C213     1.0000 0.16590  0.62780  0.63150  Biso   1.000  C
  H250     1.0000 0.18090  0.60870  0.60710  Biso   1.000  H
  C214     1.0000 0.37900  0.64050  0.64360  Biso   1.000  C
  H251     1.0000 0.38860  0.60690  0.64950  Biso   1.000  H
  H252     1.0000 0.34780  0.64120  0.62530  Biso   1.000  H
  H253     1.0000 0.40510  0.65660  0.62500  Biso   1.000  H
  C215     1.0000 0.53480  0.83850  0.72090  Biso   1.000  C
  H254     1.0000 0.52310  0.86800  0.73400  Biso   1.000  H
  C216     1.0000 0.52500  0.75700  0.70580  Biso   1.000  C
  H255     1.0000 0.50800  0.72710  0.70790  Biso   1.000  H
  C217     1.0000 0.15960  0.63290  0.91320  Biso   1.000  C
  H256     1.0000 0.12640  0.64000  0.92580  Biso   1.000  H
  H257     1.0000 0.15740  0.60760  0.88870  Biso   1.000  H
  H258     1.0000 0.18100  0.62200  0.93970  Biso   1.000  H
  C218     1.0000 0.56970  0.76030  0.67940  Biso   1.000  C
  H259     1.0000 0.58190  0.73140  0.66540  Biso   1.000  H
  C219     1.0000 0.58020  0.83920  0.69500  Biso   1.000  C
  H260     1.0000 0.59930  0.86790  0.69390  Biso   1.000  H
  C220     1.0000 0.23260  0.02430  0.85350  Biso   1.000  C
  H261     1.0000 0.24570  0.01290  0.88320  Biso   1.000  H
  C221     1.0000 0.21720  0.01840  0.77280  Biso   1.000  C
  H262     1.0000 0.22190  0.00270  0.74270  Biso   1.000  H
  C222     1.0000 0.19010  0.06590  0.77330  Biso   1.000  C
  H263     1.0000 0.17660  0.07870  0.74430  Biso   1.000  H
  C223     1.0000 0.20880  0.07290  0.85100  Biso   1.000  C
  H264     1.0000 0.21120  0.09290  0.87870  Biso   1.000  H
  C224     1.0000 0.17830  0.86530  0.68970  Biso   1.000  C
  C225     1.0000 0.12330  0.87030  0.66370  Biso   1.000  C
  H265     1.0000 0.12780  0.87760  0.62930  Biso   1.000  H
  H266     1.0000 0.10510  0.83980  0.66710  Biso   1.000  H
  H267     1.0000 0.10450  0.89630  0.67910  Biso   1.000  H
  C226     1.0000 0.34550  0.94200  0.63720  Biso   1.000  C
  C227     1.0000 0.36710  0.98590  0.61130  Biso   1.000  C
  H268     1.0000 0.36120  0.01490  0.63070  Biso   1.000  H
  H269     1.0000 0.40300  0.98150  0.60680  Biso   1.000  H
  H270     1.0000 0.35110  0.98960  0.57980  Biso   1.000  H
  C228     1.0000 0.29870  0.90680  0.97230  Biso   1.000  C
  C229     1.0000 0.33280  0.70760  0.92250  Biso   1.000  C
  H271     1.0000 0.31010  0.67970  0.92600  Biso   1.000  H
  H272     1.0000 0.36630  0.69730  0.93320  Biso   1.000  H
  C230     1.0000 0.27600  0.91690  0.02790  Biso   1.000  C
  H273     1.0000 0.24100  0.90730  0.02900  Biso   1.000  H
  H274     1.0000 0.29500  0.89790  0.05140  Biso   1.000  H
  H275     1.0000 0.27890  0.95120  0.03560  Biso   1.000  H
  N17      1.0000 0.30840  0.68510  0.10310  Biso   1.000  N
  N18      1.0000 0.11790  0.63110  0.63400  Biso   1.000  N
  N19      1.0000 0.59620  0.79990  0.67220  Biso   1.000  N
  N20      1.0000 0.18540  0.08970  0.81440  Biso   1.000  N
  O89      1.0000 0.33530  0.72120  0.87130  Biso   1.000  O
  O90      1.0000 0.29450  0.70700  0.78260  Biso   1.000  O
  O91      1.0000 0.39130  0.74160  0.79270  Biso   1.000  O
  O92      1.0000 0.27310  0.78800  0.72150  Biso   1.000  O
  O93      1.0000 0.35880  0.71200  0.68950  Biso   1.000  O
  O94      1.0000 0.35200  0.81760  0.90720  Biso   1.000  O
  O95      1.0000 0.21320  0.76960  0.80440  Biso   1.000  O
  O96      1.0000 0.40980  0.83800  0.82560  Biso   1.000  O
  O97      1.0000 0.22530  0.67700  0.87240  Biso   1.000  O
  O98      1.0000 0.22980  0.86040  0.83900  Biso   1.000  O
  O99      1.0000 0.36650  0.82220  0.73010  Biso   1.000  O
  O100     1.0000 0.25340  0.78420  0.89660  Biso   1.000  O
  O101     1.0000 0.33020  0.89680  0.84940  Biso   1.000  O
  O102     1.0000 0.17870  0.85360  0.73510  Biso   1.000  O
  O103     1.0000 0.37990  0.64300  0.73080  Biso   1.000  O
  O104     1.0000 0.26590  0.88730  0.94540  Biso   1.000  O
  O105     1.0000 0.28970  0.88200  0.75560  Biso   1.000  O
  O106     1.0000 0.15460  0.71780  0.89280  Biso   1.000  O
  O107     1.0000 0.21590  0.86800  0.66200  Biso   1.000  O
  O108     1.0000 0.36800  0.91540  0.65760  Biso   1.000  O
  O109     1.0000 0.30260  0.93480  0.63250  Biso   1.000  O
  O110     1.0000 0.35470  0.91910  0.96220  Biso   1.000  O
  Cd21     1.0000 0.13420  0.34021  0.31248  Biso   1.000  Cd
  Cd22     1.0000 0.19828  0.14219  0.17475  Biso   1.000  Cd
  Cd23     1.0000 0.33183  0.19919  0.37567  Biso   1.000  Cd
  Cd24     1.0000 0.09635  0.11147  0.40098  Biso   1.000  Cd
  Cu31     1.0000 0.11871  0.22366  0.35470  Biso   1.000  Cu
  Cu32     1.0000 0.25809  0.17162  0.27474  Biso   1.000  Cu
  Cu33     1.0000 0.16542  0.24166  0.24866  Biso   1.000  Cu
  Cu34     1.0000 0.14530  0.13232  0.28722  Biso   1.000  Cu
  Cu35     1.0000 0.23205  0.26345  0.34279  Biso   1.000  Cu
  Cu36     1.0000 0.21188  0.15427  0.38134  Biso   1.000  Cu
  C231     1.0000 0.16350  0.27700  0.59410  Biso   1.000  C
  H276     1.0000 0.14430  0.26430  0.61990  Biso   1.000  H
  C232     1.0000 0.21770  0.33180  0.56600  Biso   1.000  C
  H277     1.0000 0.23900  0.35850  0.57200  Biso   1.000  H
  C233     1.0000 0.21640  0.31420  0.51990  Biso   1.000  C
  H278     1.0000 0.23510  0.32930  0.49500  Biso   1.000  H
  C234     1.0000 0.18660  0.27280  0.50990  Biso   1.000  C
  C235     1.0000 0.25930  0.24640  0.19640  Biso   1.000  C
  H279     1.0000 0.28650  0.22850  0.18030  Biso   1.000  H
  H280     1.0000 0.23990  0.26320  0.17110  Biso   1.000  H
  C236     1.0000 0.04290  0.16810  0.30090  Biso   1.000  C
  H281     1.0000 0.03050  0.13590  0.29080  Biso   1.000  H
  H282     1.0000 0.01840  0.18170  0.32380  Biso   1.000  H
  C237     1.0000 0.04560  0.20150  0.25550  Biso   1.000  C
  C238     1.0000 0.08250  0.18240  0.21650  Biso   1.000  C
  H283     1.0000 0.08070  0.20420  0.18830  Biso   1.000  H
  H284     1.0000 0.07060  0.15030  0.20570  Biso   1.000  H
  C239     1.0000 0.18560  0.25060  0.45570  Biso   1.000  C
  C240     1.0000 0.15070  0.20600  0.45420  Biso   1.000  C
  H285     1.0000 0.11680  0.21620  0.46370  Biso   1.000  H
  H286     1.0000 0.16230  0.18220  0.47840  Biso   1.000  H
  C241     1.0000 0.16000  0.25350  0.54760  Biso   1.000  C
  H287     1.0000 0.13990  0.22570  0.54330  Biso   1.000  H
  C242     1.0000 0.24350  0.31960  0.25470  Biso   1.000  C
  H288     1.0000 0.22700  0.33880  0.22920  Biso   1.000  H
  H289     1.0000 0.26120  0.34230  0.27630  Biso   1.000  H
  C243     1.0000 0.28210  0.28430  0.23090  Biso   1.000  C
  C244     1.0000 0.31440  0.26030  0.27210  Biso   1.000  C
  H290     1.0000 0.33080  0.28620  0.29100  Biso   1.000  H
  H291     1.0000 0.34100  0.24070  0.25700  Biso   1.000  H
  C245     1.0000 0.19490  0.05480  0.34490  Biso   1.000  C
  H292     1.0000 0.20370  0.04320  0.37760  Biso   1.000  H
  H293     1.0000 0.17100  0.03160  0.33090  Biso   1.000  H
  C246     1.0000 0.24160  0.05510  0.31410  Biso   1.000  C
  C247     1.0000 0.22990  0.06880  0.26180  Biso   1.000  C
  H294     1.0000 0.20530  0.04560  0.24890  Biso   1.000  H
  H295     1.0000 0.26060  0.06560  0.24240  Biso   1.000  H
  C248     1.0000 0.28450  0.08690  0.33540  Biso   1.000  C
  H296     1.0000 0.31430  0.08390  0.31460  Biso   1.000  H
  H297     1.0000 0.29330  0.07490  0.36790  Biso   1.000  H
  C249     1.0000 0.05970  0.25320  0.27040  Biso   1.000  C
  H298     1.0000 0.03430  0.26530  0.29330  Biso   1.000  H
  H299     1.0000 0.05840  0.27400  0.24140  Biso   1.000  H
  C250     1.0000 0.24090  0.23450  0.44500  Biso   1.000  C
  H300     1.0000 0.25090  0.20940  0.46850  Biso   1.000  H
  H301     1.0000 0.26330  0.26250  0.44930  Biso   1.000  H
  C251     1.0000 0.99390  0.20320  0.22850  Biso   1.000  C
  C252     1.0000 0.31690  0.31870  0.38940  Biso   1.000  C
  C253     1.0000 0.26450  0.00340  0.31370  Biso   1.000  C
  C254     1.0000 0.12820  0.33330  0.19220  Biso   1.000  C
  C255     1.0000 0.31920  0.31760  0.19890  Biso   1.000  C
  C256     1.0000 0.30370  0.34710  0.16570  Biso   1.000  C
  H302     1.0000 0.26890  0.35250  0.16400  Biso   1.000  H
  C257     1.0000 0.39990  0.33710  0.16390  Biso   1.000  C
  H303     1.0000 0.43460  0.33040  0.16410  Biso   1.000  H
  C258     1.0000 0.36830  0.31290  0.19580  Biso   1.000  C
  H304     1.0000 0.38350  0.29090  0.21750  Biso   1.000  H
  C259     1.0000 0.33410  0.37220  0.13150  Biso   1.000  C
  H305     1.0000 0.31910  0.39130  0.10710  Biso   1.000  H
  C260     1.0000 0.12100  0.35950  0.14360  Biso   1.000  C
  H306     1.0000 0.11140  0.39310  0.14950  Biso   1.000  H
  H307     1.0000 0.15220  0.35880  0.12530  Biso   1.000  H
  H308     1.0000 0.09490  0.34340  0.12500  Biso   1.000  H
  C261     1.0000 0.96520  0.16150  0.22090  Biso   1.000  C
  H309     1.0000 0.97690  0.13200  0.23400  Biso   1.000  H
  C262     1.0000 0.97500  0.24300  0.20580  Biso   1.000  C
  H310     1.0000 0.99200  0.27290  0.20790  Biso   1.000  H
  C263     1.0000 0.34040  0.36710  0.41320  Biso   1.000  C
  H311     1.0000 0.37360  0.36000  0.42580  Biso   1.000  H
  H312     1.0000 0.34260  0.39240  0.38870  Biso   1.000  H
  H313     1.0000 0.31900  0.37800  0.43970  Biso   1.000  H
  C264     1.0000 0.93030  0.23970  0.17940  Biso   1.000  C
  H314     1.0000 0.91810  0.26860  0.16540  Biso   1.000  H
  C265     1.0000 0.91980  0.16080  0.19500  Biso   1.000  C
  H315     1.0000 0.90070  0.13210  0.19390  Biso   1.000  H
  C266     1.0000 0.26740  0.97570  0.35350  Biso   1.000  C
  H316     1.0000 0.25430  0.98710  0.38320  Biso   1.000  H
  C267     1.0000 0.28280  0.98160  0.27280  Biso   1.000  C
  H317     1.0000 0.27810  0.99730  0.24270  Biso   1.000  H
  C268     1.0000 0.30990  0.93410  0.27330  Biso   1.000  C
  H318     1.0000 0.32340  0.92130  0.24430  Biso   1.000  H
  C269     1.0000 0.29120  0.92710  0.35100  Biso   1.000  C
  H319     1.0000 0.28880  0.90710  0.37870  Biso   1.000  H
  C270     1.0000 0.32170  0.13470  0.18970  Biso   1.000  C
  C271     1.0000 0.37670  0.12970  0.16370  Biso   1.000  C
  H320     1.0000 0.37220  0.12240  0.12930  Biso   1.000  H
  H321     1.0000 0.39490  0.16020  0.16710  Biso   1.000  H
  H322     1.0000 0.39550  0.10370  0.17910  Biso   1.000  H
  C272     1.0000 0.15450  0.05800  0.13720  Biso   1.000  C
  C273     1.0000 0.13290  0.01410  0.11130  Biso   1.000  C
  H323     1.0000 0.13880  0.98510  0.13070  Biso   1.000  H
  H324     1.0000 0.09700  0.01850  0.10680  Biso   1.000  H
  H325     1.0000 0.14890  0.01040  0.07980  Biso   1.000  H
  C274     1.0000 0.20130  0.09320  0.47230  Biso   1.000  C
  C275     1.0000 0.16720  0.29240  0.42250  Biso   1.000  C
  H326     1.0000 0.18990  0.32030  0.42600  Biso   1.000  H
  H327     1.0000 0.13370  0.30270  0.43320  Biso   1.000  H
  C276     1.0000 0.22400  0.08310  0.52790  Biso   1.000  C
  H328     1.0000 0.25900  0.09270  0.52900  Biso   1.000  H
  H329     1.0000 0.20500  0.10210  0.55140  Biso   1.000  H
  H330     1.0000 0.22110  0.04880  0.53560  Biso   1.000  H
  N21      1.0000 0.19160  0.31490  0.60310  Biso   1.000  N
  N22      1.0000 0.38210  0.36890  0.13400  Biso   1.000  N
  N23      1.0000 0.90380  0.20010  0.17220  Biso   1.000  N
  N24      1.0000 0.31460  0.91030  0.31440  Biso   1.000  N
  O111     1.0000 0.16470  0.27880  0.37130  Biso   1.000  O
  O112     1.0000 0.20550  0.29300  0.28260  Biso   1.000  O
  O113     1.0000 0.10870  0.25840  0.29270  Biso   1.000  O
  O114     1.0000 0.22690  0.21200  0.22150  Biso   1.000  O
  O115     1.0000 0.14120  0.28800  0.18950  Biso   1.000  O
  O116     1.0000 0.14800  0.18240  0.40720  Biso   1.000  O
  O117     1.0000 0.28680  0.23040  0.30440  Biso   1.000  O
  O118     1.0000 0.09020  0.16200  0.32560  Biso   1.000  O
  O119     1.0000 0.27470  0.32300  0.37240  Biso   1.000  O
  O120     1.0000 0.27020  0.13960  0.33900  Biso   1.000  O
  O121     1.0000 0.13350  0.17780  0.23010  Biso   1.000  O
  O122     1.0000 0.24660  0.21580  0.39660  Biso   1.000  O
  O123     1.0000 0.16980  0.10320  0.34940  Biso   1.000  O
  O124     1.0000 0.32130  0.14640  0.23510  Biso   1.000  O
  O125     1.0000 0.12010  0.35700  0.23080  Biso   1.000  O
  O126     1.0000 0.23410  0.11270  0.44540  Biso   1.000  O
  O127     1.0000 0.21030  0.11800  0.25560  Biso   1.000  O
  O128     1.0000 0.34540  0.28220  0.39280  Biso   1.000  O
  O129     1.0000 0.28410  0.13200  0.16200  Biso   1.000  O
  O130     1.0000 0.13200  0.08460  0.15760  Biso   1.000  O
  O131     1.0000 0.19740  0.06520  0.13250  Biso   1.000  O
  O132     1.0000 0.14530  0.08090  0.46220  Biso   1.000  O
  Cd25     1.0000 0.63420  0.15979  0.68752  Biso   1.000  Cd
  Cd26     1.0000 0.69828  0.35781  0.82525  Biso   1.000  Cd
  Cd27     1.0000 0.83183  0.30081  0.62433  Biso   1.000  Cd
  Cd28     1.0000 0.59635  0.38853  0.59902  Biso   1.000  Cd
  Cu37     1.0000 0.61871  0.27634  0.64530  Biso   1.000  Cu
  Cu38     1.0000 0.75809  0.32838  0.72526  Biso   1.000  Cu
  Cu39     1.0000 0.66542  0.25834  0.75134  Biso   1.000  Cu
  Cu40     1.0000 0.64530  0.36768  0.71278  Biso   1.000  Cu
  Cu41     1.0000 0.73205  0.23655  0.65721  Biso   1.000  Cu
  Cu42     1.0000 0.71188  0.34573  0.61866  Biso   1.000  Cu
  C277     1.0000 0.66350  0.22300  0.40590  Biso   1.000  C
  H331     1.0000 0.64430  0.23570  0.38010  Biso   1.000  H
  C278     1.0000 0.71770  0.16820  0.43400  Biso   1.000  C
  H332     1.0000 0.73900  0.14150  0.42800  Biso   1.000  H
  C279     1.0000 0.71640  0.18580  0.48010  Biso   1.000  C
  H333     1.0000 0.73510  0.17070  0.50500  Biso   1.000  H
  C280     1.0000 0.68660  0.22720  0.49010  Biso   1.000  C
  C281     1.0000 0.75930  0.25360  0.80360  Biso   1.000  C
  H334     1.0000 0.78650  0.27150  0.81970  Biso   1.000  H
  H335     1.0000 0.73990  0.23680  0.82890  Biso   1.000  H
  C282     1.0000 0.54290  0.33190  0.69910  Biso   1.000  C
  H336     1.0000 0.53050  0.36410  0.70920  Biso   1.000  H
  H337     1.0000 0.51840  0.31830  0.67620  Biso   1.000  H
  C283     1.0000 0.54560  0.29850  0.74450  Biso   1.000  C
  C284     1.0000 0.58250  0.31760  0.78350  Biso   1.000  C
  H338     1.0000 0.58070  0.29580  0.81170  Biso   1.000  H
  H339     1.0000 0.57060  0.34970  0.79430  Biso   1.000  H
  C285     1.0000 0.68560  0.24940  0.54430  Biso   1.000  C
  C286     1.0000 0.65070  0.29400  0.54580  Biso   1.000  C
  H340     1.0000 0.61680  0.28380  0.53630  Biso   1.000  H
  H341     1.0000 0.66230  0.31780  0.52160  Biso   1.000  H
  C287     1.0000 0.66000  0.24650  0.45240  Biso   1.000  C
  H342     1.0000 0.63990  0.27430  0.45670  Biso   1.000  H
  C288     1.0000 0.74350  0.18040  0.74530  Biso   1.000  C
  H343     1.0000 0.72700  0.16120  0.77080  Biso   1.000  H
  H344     1.0000 0.76120  0.15770  0.72370  Biso   1.000  H
  C289     1.0000 0.78210  0.21570  0.76910  Biso   1.000  C
  C290     1.0000 0.81440  0.23970  0.72790  Biso   1.000  C
  H345     1.0000 0.83080  0.21380  0.70900  Biso   1.000  H
  H346     1.0000 0.84100  0.25930  0.74300  Biso   1.000  H
  C291     1.0000 0.69490  0.44520  0.65510  Biso   1.000  C
  H347     1.0000 0.70370  0.45680  0.62240  Biso   1.000  H
  H348     1.0000 0.67100  0.46840  0.66910  Biso   1.000  H
  C292     1.0000 0.74160  0.44490  0.68590  Biso   1.000  C
  C293     1.0000 0.72990  0.43120  0.73820  Biso   1.000  C
  H349     1.0000 0.70530  0.45440  0.75110  Biso   1.000  H
  H350     1.0000 0.76060  0.43440  0.75760  Biso   1.000  H
  C294     1.0000 0.78450  0.41310  0.66460  Biso   1.000  C
  H351     1.0000 0.81430  0.41610  0.68540  Biso   1.000  H
  H352     1.0000 0.79330  0.42510  0.63210  Biso   1.000  H
  C295     1.0000 0.55970  0.24680  0.72960  Biso   1.000  C
  H353     1.0000 0.53430  0.23470  0.70670  Biso   1.000  H
  H354     1.0000 0.55840  0.22600  0.75860  Biso   1.000  H
  C296     1.0000 0.74090  0.26550  0.55500  Biso   1.000  C
  H355     1.0000 0.75090  0.29060  0.53150  Biso   1.000  H
  H356     1.0000 0.76330  0.23750  0.55070  Biso   1.000  H
  C297     1.0000 0.49390  0.29680  0.77150  Biso   1.000  C
  C298     1.0000 0.81690  0.18130  0.61060  Biso   1.000  C
  C299     1.0000 0.76450  0.49660  0.68630  Biso   1.000  C
  C300     1.0000 0.62820  0.16670  0.80780  Biso   1.000  C
  C301     1.0000 0.81920  0.18240  0.80110  Biso   1.000  C
  C302     1.0000 0.80370  0.15290  0.83430  Biso   1.000  C
  H357     1.0000 0.76890  0.14750  0.83600  Biso   1.000  H
  C303     1.0000 0.89990  0.16290  0.83610  Biso   1.000  C
  H358     1.0000 0.93460  0.16960  0.83590  Biso   1.000  H
  C304     1.0000 0.86830  0.18710  0.80420  Biso   1.000  C
  H359     1.0000 0.88350  0.20910  0.78250  Biso   1.000  H
  C305     1.0000 0.83410  0.12780  0.86850  Biso   1.000  C
  H360     1.0000 0.81910  0.10870  0.89290  Biso   1.000  H
  C306     1.0000 0.62100  0.14050  0.85640  Biso   1.000  C
  H361     1.0000 0.61140  0.10690  0.85050  Biso   1.000  H
  H362     1.0000 0.65220  0.14120  0.87470  Biso   1.000  H
  H363     1.0000 0.59490  0.15660  0.87500  Biso   1.000  H
  C307     1.0000 0.46520  0.33850  0.77910  Biso   1.000  C
  H364     1.0000 0.47690  0.36800  0.76600  Biso   1.000  H
  C308     1.0000 0.47500  0.25700  0.79420  Biso   1.000  C
  H365     1.0000 0.49200  0.22710  0.79210  Biso   1.000  H
  C309     1.0000 0.84040  0.13290  0.58680  Biso   1.000  C
  H366     1.0000 0.87360  0.14000  0.57420  Biso   1.000  H
  H367     1.0000 0.84260  0.10760  0.61130  Biso   1.000  H
  H368     1.0000 0.81900  0.12200  0.56030  Biso   1.000  H
  C310     1.0000 0.43030  0.26030  0.82060  Biso   1.000  C
  H369     1.0000 0.41810  0.23140  0.83460  Biso   1.000  H
  C311     1.0000 0.41980  0.33920  0.80500  Biso   1.000  C
  H370     1.0000 0.40070  0.36790  0.80610  Biso   1.000  H
  C312     1.0000 0.76740  0.52430  0.64650  Biso   1.000  C
  H371     1.0000 0.75430  0.51290  0.61680  Biso   1.000  H
  C313     1.0000 0.78280  0.51840  0.72720  Biso   1.000  C
  H372     1.0000 0.77810  0.50270  0.75730  Biso   1.000  H
  C314     1.0000 0.80990  0.56590  0.72670  Biso   1.000  C
  H373     1.0000 0.82340  0.57870  0.75570  Biso   1.000  H
  C315     1.0000 0.79120  0.57290  0.64900  Biso   1.000  C
  H374     1.0000 0.78880  0.59290  0.62130  Biso   1.000  H
  C316     1.0000 0.82170  0.36530  0.81030  Biso   1.000  C
  C317     1.0000 0.87670  0.37030  0.83630  Biso   1.000  C
  H375     1.0000 0.87220  0.37760  0.87070  Biso   1.000  H
  H376     1.0000 0.89490  0.33980  0.83290  Biso   1.000  H
  H377     1.0000 0.89550  0.39630  0.82090  Biso   1.000  H
  C318     1.0000 0.65450  0.44200  0.86280  Biso   1.000  C
  C319     1.0000 0.63290  0.48590  0.88870  Biso   1.000  C
  H378     1.0000 0.63880  0.51490  0.86930  Biso   1.000  H
  H379     1.0000 0.59700  0.48150  0.89320  Biso   1.000  H
  H380     1.0000 0.64890  0.48960  0.92020  Biso   1.000  H
  C320     1.0000 0.70130  0.40680  0.52770  Biso   1.000  C
  C321     1.0000 0.66720  0.20760  0.57750  Biso   1.000  C
  H381     1.0000 0.68990  0.17970  0.57400  Biso   1.000  H
  H382     1.0000 0.63370  0.19730  0.56680  Biso   1.000  H
  C322     1.0000 0.72400  0.41690  0.47210  Biso   1.000  C
  H383     1.0000 0.75900  0.40730  0.47100  Biso   1.000  H
  H384     1.0000 0.70500  0.39790  0.44860  Biso   1.000  H
  H385     1.0000 0.72110  0.45120  0.46440  Biso   1.000  H
  N25      1.0000 0.69160  0.18510  0.39690  Biso   1.000  N
  N26      1.0000 0.88210  0.13110  0.86600  Biso   1.000  N
  N27      1.0000 0.40380  0.29990  0.82780  Biso   1.000  N
  N28      1.0000 0.81460  0.58970  0.68560  Biso   1.000  N
  O133     1.0000 0.66470  0.22120  0.62870  Biso   1.000  O
  O134     1.0000 0.70550  0.20700  0.71740  Biso   1.000  O
  O135     1.0000 0.60870  0.24160  0.70730  Biso   1.000  O
  O136     1.0000 0.72690  0.28800  0.77850  Biso   1.000  O
  O137     1.0000 0.64120  0.21200  0.81050  Biso   1.000  O
  O138     1.0000 0.64800  0.31760  0.59280  Biso   1.000  O
  O139     1.0000 0.78680  0.26960  0.69560  Biso   1.000  O
  O140     1.0000 0.59020  0.33800  0.67440  Biso   1.000  O
  O141     1.0000 0.77470  0.17700  0.62760  Biso   1.000  O
  O142     1.0000 0.77020  0.36040  0.66100  Biso   1.000  O
  O143     1.0000 0.63350  0.32220  0.76990  Biso   1.000  O
  O144     1.0000 0.74660  0.28420  0.60340  Biso   1.000  O
  O145     1.0000 0.66980  0.39680  0.65060  Biso   1.000  O
  O146     1.0000 0.82130  0.35360  0.76490  Biso   1.000  O
  O147     1.0000 0.62010  0.14300  0.76920  Biso   1.000  O
  O148     1.0000 0.73410  0.38730  0.55460  Biso   1.000  O
  O149     1.0000 0.71030  0.38200  0.74440  Biso   1.000  O
  O150     1.0000 0.84540  0.21780  0.60720  Biso   1.000  O
  O151     1.0000 0.78410  0.36800  0.83800  Biso   1.000  O
  O152     1.0000 0.63200  0.41540  0.84240  Biso   1.000  O
  O153     1.0000 0.69740  0.43480  0.86750  Biso   1.000  O
  O154     1.0000 0.64530  0.41910  0.53780  Biso   1.000  O
  Cd29     1.0000 0.86580  0.84021  0.18752  Biso   1.000  Cd
  Cd30     1.0000 0.80172  0.64219  0.32525  Biso   1.000  Cd
  Cd31     1.0000 0.66817  0.69919  0.12433  Biso   1.000  Cd
  Cd32     1.0000 0.90365  0.61147  0.09902  Biso   1.000  Cd
  Cu43     1.0000 0.88129  0.72366  0.14530  Biso   1.000  Cu
  Cu44     1.0000 0.74191  0.67162  0.22526  Biso   1.000  Cu
  Cu45     1.0000 0.83458  0.74166  0.25134  Biso   1.000  Cu
  Cu46     1.0000 0.85470  0.63232  0.21278  Biso   1.000  Cu
  Cu47     1.0000 0.76795  0.76345  0.15721  Biso   1.000  Cu
  Cu48     1.0000 0.78812  0.65427  0.11866  Biso   1.000  Cu
  C323     1.0000 0.83650  0.77700  0.90590  Biso   1.000  C
  H386     1.0000 0.85570  0.76430  0.88010  Biso   1.000  H
  C324     1.0000 0.78230  0.83180  0.93400  Biso   1.000  C
  H387     1.0000 0.76100  0.85850  0.92800  Biso   1.000  H
  C325     1.0000 0.78360  0.81420  0.98010  Biso   1.000  C
  H388     1.0000 0.76490  0.82930  0.00500  Biso   1.000  H
  C326     1.0000 0.81340  0.77280  0.99010  Biso   1.000  C
  C327     1.0000 0.74070  0.74640  0.30360  Biso   1.000  C
  H389     1.0000 0.71350  0.72850  0.31970  Biso   1.000  H
  H390     1.0000 0.76010  0.76320  0.32890  Biso   1.000  H
  C328     1.0000 0.95710  0.66810  0.19910  Biso   1.000  C
  H391     1.0000 0.96950  0.63590  0.20920  Biso   1.000  H
  H392     1.0000 0.98160  0.68170  0.17620  Biso   1.000  H
  C329     1.0000 0.95440  0.70150  0.24450  Biso   1.000  C
  C330     1.0000 0.91750  0.68240  0.28350  Biso   1.000  C
  H393     1.0000 0.91930  0.70420  0.31170  Biso   1.000  H
  H394     1.0000 0.92940  0.65030  0.29430  Biso   1.000  H
  C331     1.0000 0.81440  0.75060  0.04430  Biso   1.000  C
  C332     1.0000 0.84930  0.70600  0.04580  Biso   1.000  C
  H395     1.0000 0.88320  0.71620  0.03630  Biso   1.000  H
  H396     1.0000 0.83770  0.68220  0.02160  Biso   1.000  H
  C333     1.0000 0.84000  0.75350  0.95240  Biso   1.000  C
  H397     1.0000 0.86010  0.72570  0.95670  Biso   1.000  H
  C334     1.0000 0.75650  0.81960  0.24530  Biso   1.000  C
  H398     1.0000 0.77300  0.83880  0.27080  Biso   1.000  H
  H399     1.0000 0.73880  0.84230  0.22370  Biso   1.000  H
  C335     1.0000 0.71790  0.78430  0.26910  Biso   1.000  C
  C336     1.0000 0.68560  0.76030  0.22790  Biso   1.000  C
  H400     1.0000 0.66920  0.78620  0.20900  Biso   1.000  H
  H401     1.0000 0.65900  0.74070  0.24300  Biso   1.000  H
  C337     1.0000 0.80510  0.55480  0.15510  Biso   1.000  C
  H402     1.0000 0.79630  0.54320  0.12240  Biso   1.000  H
  H403     1.0000 0.82900  0.53160  0.16910  Biso   1.000  H
  C338     1.0000 0.75840  0.55510  0.18590  Biso   1.000  C
  C339     1.0000 0.77010  0.56880  0.23820  Biso   1.000  C
  H404     1.0000 0.79470  0.54560  0.25110  Biso   1.000  H
  H405     1.0000 0.73940  0.56560  0.25760  Biso   1.000  H
  C340     1.0000 0.71550  0.58690  0.16460  Biso   1.000  C
  H406     1.0000 0.68570  0.58390  0.18540  Biso   1.000  H
  H407     1.0000 0.70670  0.57490  0.13210  Biso   1.000  H
  C341     1.0000 0.94030  0.75320  0.22960  Biso   1.000  C
  H408     1.0000 0.96570  0.76530  0.20670  Biso   1.000  H
  H409     1.0000 0.94160  0.77400  0.25860  Biso   1.000  H
  C342     1.0000 0.75910  0.73450  0.05500  Biso   1.000  C
  H410     1.0000 0.74910  0.70940  0.03150  Biso   1.000  H
  H411     1.0000 0.73670  0.76250  0.05070  Biso   1.000  H
  C343     1.0000 0.00610  0.70320  0.27150  Biso   1.000  C
  C344     1.0000 0.68310  0.81870  0.11060  Biso   1.000  C
  C345     1.0000 0.73550  0.50340  0.18630  Biso   1.000  C
  C346     1.0000 0.87180  0.83330  0.30780  Biso   1.000  C
  C347     1.0000 0.68080  0.81760  0.30110  Biso   1.000  C
  C348     1.0000 0.69630  0.84710  0.33430  Biso   1.000  C
  H412     1.0000 0.73110  0.85250  0.33600  Biso   1.000  H
  C349     1.0000 0.60010  0.83710  0.33610  Biso   1.000  C
  H413     1.0000 0.56540  0.83040  0.33590  Biso   1.000  H
  C350     1.0000 0.63170  0.81290  0.30420  Biso   1.000  C
  H414     1.0000 0.61650  0.79090  0.28250  Biso   1.000  H
  C351     1.0000 0.66590  0.87220  0.36850  Biso   1.000  C
  H415     1.0000 0.68090  0.89130  0.39290  Biso   1.000  H
  C352     1.0000 0.87900  0.85950  0.35640  Biso   1.000  C
  H416     1.0000 0.88860  0.89310  0.35050  Biso   1.000  H
  H417     1.0000 0.84780  0.85880  0.37470  Biso   1.000  H
  H418     1.0000 0.90510  0.84340  0.37500  Biso   1.000  H
  C353     1.0000 0.03480  0.66150  0.27910  Biso   1.000  C
  H419     1.0000 0.02310  0.63200  0.26600  Biso   1.000  H
  C354     1.0000 0.02500  0.74300  0.29420  Biso   1.000  C
  H420     1.0000 0.00800  0.77290  0.29210  Biso   1.000  H
  C355     1.0000 0.65960  0.86710  0.08680  Biso   1.000  C
  H421     1.0000 0.62640  0.86000  0.07420  Biso   1.000  H
  H422     1.0000 0.65740  0.89240  0.11130  Biso   1.000  H
  H423     1.0000 0.68100  0.87800  0.06030  Biso   1.000  H
  C356     1.0000 0.06970  0.73970  0.32060  Biso   1.000  C
  H424     1.0000 0.08190  0.76860  0.33460  Biso   1.000  H
  C357     1.0000 0.08020  0.66080  0.30500  Biso   1.000  C
  H425     1.0000 0.09930  0.63210  0.30610  Biso   1.000  H
  C358     1.0000 0.73260  0.47570  0.14650  Biso   1.000  C
  H426     1.0000 0.74570  0.48710  0.11680  Biso   1.000  H
  C359     1.0000 0.71720  0.48160  0.22720  Biso   1.000  C
  H427     1.0000 0.72190  0.49730  0.25730  Biso   1.000  H
  C360     1.0000 0.69010  0.43410  0.22670  Biso   1.000  C
  H428     1.0000 0.67660  0.42130  0.25570  Biso   1.000  H
  C361     1.0000 0.70880  0.42710  0.14900  Biso   1.000  C
  H429     1.0000 0.71120  0.40710  0.12130  Biso   1.000  H
  C362     1.0000 0.67830  0.63470  0.31030  Biso   1.000  C
  C363     1.0000 0.62330  0.62970  0.33630  Biso   1.000  C
  H430     1.0000 0.62780  0.62240  0.37070  Biso   1.000  H
  H431     1.0000 0.60510  0.66020  0.33290  Biso   1.000  H
  H432     1.0000 0.60450  0.60370  0.32090  Biso   1.000  H
  C364     1.0000 0.84550  0.55800  0.36280  Biso   1.000  C
  C365     1.0000 0.86710  0.51410  0.38870  Biso   1.000  C
  H433     1.0000 0.86120  0.48510  0.36930  Biso   1.000  H
  H434     1.0000 0.90300  0.51850  0.39320  Biso   1.000  H
  H435     1.0000 0.85110  0.51040  0.42020  Biso   1.000  H
  C366     1.0000 0.79870  0.59320  0.02770  Biso   1.000  C
  C367     1.0000 0.83280  0.79240  0.07750  Biso   1.000  C
  H436     1.0000 0.81010  0.82030  0.07400  Biso   1.000  H
  H437     1.0000 0.86630  0.80270  0.06680  Biso   1.000  H
  C368     1.0000 0.77600  0.58310  0.97210  Biso   1.000  C
  H438     1.0000 0.74100  0.59270  0.97100  Biso   1.000  H
  H439     1.0000 0.79500  0.60210  0.94860  Biso   1.000  H
  H440     1.0000 0.77890  0.54880  0.96440  Biso   1.000  H
  N29      1.0000 0.80840  0.81490  0.89690  Biso   1.000  N
  N30      1.0000 0.61790  0.86890  0.36600  Biso   1.000  N
  N31      1.0000 0.09620  0.70010  0.32780  Biso   1.000  N
  N32      1.0000 0.68540  0.41030  0.18560  Biso   1.000  N
  O155     1.0000 0.83530  0.77880  0.12870  Biso   1.000  O
  O156     1.0000 0.79450  0.79300  0.21740  Biso   1.000  O
  O157     1.0000 0.89130  0.75840  0.20730  Biso   1.000  O
  O158     1.0000 0.77310  0.71200  0.27850  Biso   1.000  O
  O159     1.0000 0.85880  0.78800  0.31050  Biso   1.000  O
  O160     1.0000 0.85200  0.68240  0.09280  Biso   1.000  O
  O161     1.0000 0.71320  0.73040  0.19560  Biso   1.000  O
  O162     1.0000 0.90980  0.66200  0.17440  Biso   1.000  O
  O163     1.0000 0.72530  0.82300  0.12760  Biso   1.000  O
  O164     1.0000 0.72980  0.63960  0.16100  Biso   1.000  O
  O165     1.0000 0.86650  0.67780  0.26990  Biso   1.000  O
  O166     1.0000 0.75340  0.71580  0.10340  Biso   1.000  O
  O167     1.0000 0.83020  0.60320  0.15060  Biso   1.000  O
  O168     1.0000 0.67870  0.64640  0.26490  Biso   1.000  O
  O169     1.0000 0.87990  0.85700  0.26920  Biso   1.000  O
  O170     1.0000 0.76590  0.61270  0.05460  Biso   1.000  O
  O171     1.0000 0.78970  0.61800  0.24440  Biso   1.000  O
  O172     1.0000 0.65460  0.78220  0.10720  Biso   1.000  O
  O173     1.0000 0.71590  0.63200  0.33800  Biso   1.000  O
  O174     1.0000 0.86800  0.58460  0.34240  Biso   1.000  O
  O175     1.0000 0.80260  0.56520  0.36750  Biso   1.000  O
  O176     1.0000 0.85470  0.58090  0.03780  Biso   1.000  O
