data_HEFDED_clean
_audit_creation_date              2014-07-02
_audit_creation_method            'Materials Studio'
_symmetry_space_group_name_H-M    'P1'
_symmetry_Int_Tables_number       1
_symmetry_cell_setting            triclinic
loop_
_symmetry_equiv_pos_as_xyz
  x,y,z
_cell_length_a                    25.6965
_cell_length_b                    25.6965
_cell_length_c                    25.6965
_cell_angle_alpha                 77.2739
_cell_angle_beta                  77.2739
_cell_angle_gamma                 77.2739
loop_
_atom_site_label
_atom_site_type_symbol
_atom_site_fract_x
_atom_site_fract_y
_atom_site_fract_z
_atom_site_U_iso_or_equiv
_atom_site_adp_type
_atom_site_occupancy
Mn1    Mn    0.05969   0.48379   0.29188   0.01267  Uiso   1.00
Mn2    Mn    0.20727   0.76957   0.98851   0.01267  Uiso   1.00
Mn3    Mn    0.17358   0.50263   0.99151   0.01267  Uiso   1.00
Mn4    Mn    0.25532   0.51383   0.69130   0.01267  Uiso   1.00
Mn5    Mn    0.29188   0.05969   0.48379   0.01267  Uiso   1.00
Mn6    Mn    0.98851   0.20727   0.76957   0.01267  Uiso   1.00
Mn7    Mn    0.99151   0.17358   0.50263   0.01267  Uiso   1.00
Mn8    Mn    0.69130   0.25532   0.51383   0.01267  Uiso   1.00
Mn9    Mn    0.48379   0.29188   0.05969   0.01267  Uiso   1.00
Mn10   Mn    0.76957   0.98851   0.20727   0.01267  Uiso   1.00
Mn11   Mn    0.50263   0.99151   0.17358   0.01267  Uiso   1.00
Mn12   Mn    0.51383   0.69130   0.25532   0.01267  Uiso   1.00
Mn13   Mn    0.94031   0.51621   0.70812   0.01267  Uiso   1.00
Mn14   Mn    0.79273   0.23043   0.01149   0.01267  Uiso   1.00
Mn15   Mn    0.82642   0.49737   0.00849   0.01267  Uiso   1.00
Mn16   Mn    0.74468   0.48617   0.30870   0.01267  Uiso   1.00
Mn17   Mn    0.70812   0.94031   0.51621   0.01267  Uiso   1.00
Mn18   Mn    0.01149   0.79273   0.23043   0.01267  Uiso   1.00
Mn19   Mn    0.00849   0.82642   0.49737   0.01267  Uiso   1.00
Mn20   Mn    0.30870   0.74468   0.48617   0.01267  Uiso   1.00
Mn21   Mn    0.51621   0.70812   0.94031   0.01267  Uiso   1.00
Mn22   Mn    0.23043   0.01149   0.79273   0.01267  Uiso   1.00
Mn23   Mn    0.49737   0.00849   0.82642   0.01267  Uiso   1.00
Mn24   Mn    0.48617   0.30870   0.74468   0.01267  Uiso   1.00
Mo1    Mo    0.07987   0.64059   0.11727   0.01267  Uiso   1.00
Mo2    Mo    0.35756   0.45161   0.85351   0.01267  Uiso   1.00
Mo3    Mo    0.11727   0.07987   0.64059   0.01267  Uiso   1.00
Mo4    Mo    0.85351   0.35756   0.45161   0.01267  Uiso   1.00
Mo5    Mo    0.64059   0.11727   0.07987   0.01267  Uiso   1.00
Mo6    Mo    0.45161   0.85351   0.35756   0.01267  Uiso   1.00
Mo7    Mo    0.92013   0.35941   0.88273   0.01267  Uiso   1.00
Mo8    Mo    0.64244   0.54839   0.14649   0.01267  Uiso   1.00
Mo9    Mo    0.88273   0.92013   0.35941   0.01267  Uiso   1.00
Mo10   Mo    0.14649   0.64244   0.54839   0.01267  Uiso   1.00
Mo11   Mo    0.35941   0.88273   0.92013   0.01267  Uiso   1.00
Mo12   Mo    0.54839   0.14649   0.64244   0.01267  Uiso   1.00
H1     H     0.04730   0.40220   0.37560   0.01267  Uiso   1.00
H2     H     0.13680   0.41560   0.16590   0.01267  Uiso   1.00
H3     H     0.11220   0.38420   0.22220   0.01267  Uiso   1.00
H4     H     0.05520   0.47480   0.16100   0.01267  Uiso   1.00
H5     H     0.04480   0.41510   0.17110   0.01267  Uiso   1.00
H6     H     0.94570   0.47250   0.21670   0.01267  Uiso   1.00
H7     H     0.97350   0.52150   0.21520   0.01267  Uiso   1.00
H8     H     0.90530   0.52360   0.28130   0.01267  Uiso   1.00
H9     H     0.92090   0.46150   0.30380   0.01267  Uiso   1.00
H10    H     0.88380   0.52140   0.42230   0.01267  Uiso   1.00
H11    H     0.88020   0.57800   0.38340   0.01267  Uiso   1.00
H12    H     0.87060   0.52760   0.36420   0.01267  Uiso   1.00
H13    H     0.94490   0.56500   0.45560   0.01267  Uiso   1.00
H14    H     0.01810   0.57800   0.49120   0.01267  Uiso   1.00
H15    H     0.10760   0.54950   0.44970   0.01267  Uiso   1.00
H16    H     0.20370   0.54130   0.35280   0.01267  Uiso   1.00
H17    H     0.18640   0.50800   0.41060   0.01267  Uiso   1.00
H18    H     0.21790   0.47790   0.36300   0.01267  Uiso   1.00
H19    H     0.21800   0.44880   0.29810   0.01267  Uiso   1.00
H20    H     0.20190   0.49830   0.25270   0.01267  Uiso   1.00
H21    H     0.16990   0.39800   0.27430   0.01267  Uiso   1.00
H22    H     0.20640   0.42210   0.22120   0.01267  Uiso   1.00
H23    H     0.34370   0.66370   0.99410   0.01267  Uiso   1.00
H24    H     0.35450   0.72320   0.98470   0.01267  Uiso   1.00
H25    H     0.32340   0.70170   0.07570   0.01267  Uiso   1.00
H26    H     0.27590   0.67740   0.06650   0.01267  Uiso   1.00
H27    H     0.21150   0.73750   0.12120   0.01267  Uiso   1.00
H28    H     0.24870   0.77620   0.12660   0.01267  Uiso   1.00
H29    H     0.19730   0.85010   0.07320   0.01267  Uiso   1.00
H30    H     0.15970   0.82670   0.12640   0.01267  Uiso   1.00
H31    H     0.08430   0.86330   0.06860   0.01267  Uiso   1.00
H32    H     0.12990   0.87970   0.01950   0.01267  Uiso   1.00
H33    H     0.06080   0.86270   0.98350   0.01267  Uiso   1.00
H34    H     0.06120   0.80600   0.02210   0.01267  Uiso   1.00
H35    H     0.06560   0.84640   0.86720   0.01267  Uiso   1.00
H36    H     0.05730   0.78590   0.88290   0.01267  Uiso   1.00
H37    H     0.03400   0.82500   0.92470   0.01267  Uiso   1.00
H38    H     0.13460   0.77330   0.81550   0.01267  Uiso   1.00
H39    H     0.21710   0.73090   0.76790   0.01267  Uiso   1.00
H40    H     0.29180   0.70820   0.80590   0.01267  Uiso   1.00
H41    H     0.38280   0.71170   0.88750   0.01267  Uiso   1.00
H42    H     0.36610   0.65500   0.89430   0.01267  Uiso   1.00
H43    H     0.35810   0.69890   0.84220   0.01267  Uiso   1.00
H44    H     0.30650   0.51140   0.04470   0.01267  Uiso   1.00
H45    H     0.24630   0.53260   0.07080   0.01267  Uiso   1.00
H46    H     0.28800   0.55280   0.95940   0.01267  Uiso   1.00
H47    H     0.27600   0.59600   0.99750   0.01267  Uiso   1.00
H48    H     0.21360   0.64720   0.93190   0.01267  Uiso   1.00
H49    H     0.22610   0.59630   0.90370   0.01267  Uiso   1.00
H50    H     0.13970   0.64000   0.89000   0.01267  Uiso   1.00
H51    H     0.12120   0.64660   0.95110   0.01267  Uiso   1.00
H52    H     0.05690   0.63750   0.88170   0.01267  Uiso   1.00
H53    H     0.03080   0.59130   0.87240   0.01267  Uiso   1.00
H54    H     0.00910   0.61650   0.92500   0.01267  Uiso   1.00
H55    H     0.99790   0.51180   0.91760   0.01267  Uiso   1.00
H56    H     0.99740   0.42120   0.94240   0.01267  Uiso   1.00
H57    H     0.05890   0.36240   0.99040   0.01267  Uiso   1.00
H58    H     0.14420   0.31130   0.06180   0.01267  Uiso   1.00
H59    H     0.12490   0.31770   0.00660   0.01267  Uiso   1.00
H60    H     0.18700   0.30870   0.00810   0.01267  Uiso   1.00
H61    H     0.25310   0.36950   0.03120   0.01267  Uiso   1.00
H62    H     0.21340   0.36000   0.08700   0.01267  Uiso   1.00
H63    H     0.21780   0.44020   0.10410   0.01267  Uiso   1.00
H64    H     0.27780   0.41080   0.08700   0.01267  Uiso   1.00
H65    H     0.32130   0.43030   0.53230   0.01267  Uiso   1.00
H66    H     0.32300   0.37250   0.56860   0.01267  Uiso   1.00
H67    H     0.26940   0.40370   0.54840   0.01267  Uiso   1.00
H68    H     0.24570   0.33630   0.63230   0.01267  Uiso   1.00
H69    H     0.19380   0.30150   0.71060   0.01267  Uiso   1.00
H70    H     0.16580   0.34630   0.78170   0.01267  Uiso   1.00
H71    H     0.12440   0.41510   0.84250   0.01267  Uiso   1.00
H72    H     0.18200   0.39150   0.85740   0.01267  Uiso   1.00
H73    H     0.15290   0.44990   0.86680   0.01267  Uiso   1.00
H74    H     0.13970   0.54090   0.81840   0.01267  Uiso   1.00
H75    H     0.19750   0.52760   0.83390   0.01267  Uiso   1.00
H76    H     0.18620   0.61560   0.79410   0.01267  Uiso   1.00
H77    H     0.16390   0.60390   0.74650   0.01267  Uiso   1.00
H78    H     0.23290   0.65170   0.68190   0.01267  Uiso   1.00
H79    H     0.26990   0.65560   0.72170   0.01267  Uiso   1.00
H80    H     0.34060   0.59500   0.68070   0.01267  Uiso   1.00
H81    H     0.32320   0.64540   0.63690   0.01267  Uiso   1.00
H82    H     0.36190   0.57560   0.56900   0.01267  Uiso   1.00
H83    H     0.37160   0.53020   0.61970   0.01267  Uiso   1.00
H84    H     0.35800   0.48760   0.55470   0.01267  Uiso   1.00
H85    H     0.30480   0.52980   0.54560   0.01267  Uiso   1.00
H86    H     0.37560   0.04730   0.40220   0.01267  Uiso   1.00
H87    H     0.16590   0.13680   0.41560   0.01267  Uiso   1.00
H88    H     0.22220   0.11220   0.38420   0.01267  Uiso   1.00
H89    H     0.16100   0.05520   0.47480   0.01267  Uiso   1.00
H90    H     0.17110   0.04480   0.41510   0.01267  Uiso   1.00
H91    H     0.21670   0.94570   0.47250   0.01267  Uiso   1.00
H92    H     0.21520   0.97350   0.52150   0.01267  Uiso   1.00
H93    H     0.28130   0.90530   0.52360   0.01267  Uiso   1.00
H94    H     0.30380   0.92090   0.46150   0.01267  Uiso   1.00
H95    H     0.42230   0.88380   0.52140   0.01267  Uiso   1.00
H96    H     0.38340   0.88020   0.57800   0.01267  Uiso   1.00
H97    H     0.36420   0.87060   0.52760   0.01267  Uiso   1.00
H98    H     0.45560   0.94490   0.56500   0.01267  Uiso   1.00
H99    H     0.49120   0.01810   0.57800   0.01267  Uiso   1.00
H100   H     0.44970   0.10760   0.54950   0.01267  Uiso   1.00
H101   H     0.35280   0.20370   0.54130   0.01267  Uiso   1.00
H102   H     0.41060   0.18640   0.50800   0.01267  Uiso   1.00
H103   H     0.36300   0.21790   0.47790   0.01267  Uiso   1.00
H104   H     0.29810   0.21800   0.44880   0.01267  Uiso   1.00
H105   H     0.25270   0.20190   0.49830   0.01267  Uiso   1.00
H106   H     0.27430   0.16990   0.39800   0.01267  Uiso   1.00
H107   H     0.22120   0.20640   0.42210   0.01267  Uiso   1.00
H108   H     0.99410   0.34370   0.66370   0.01267  Uiso   1.00
H109   H     0.98470   0.35450   0.72320   0.01267  Uiso   1.00
H110   H     0.07570   0.32340   0.70170   0.01267  Uiso   1.00
H111   H     0.06650   0.27590   0.67740   0.01267  Uiso   1.00
H112   H     0.12120   0.21150   0.73750   0.01267  Uiso   1.00
H113   H     0.12660   0.24870   0.77620   0.01267  Uiso   1.00
H114   H     0.07320   0.19730   0.85010   0.01267  Uiso   1.00
H115   H     0.12640   0.15970   0.82670   0.01267  Uiso   1.00
H116   H     0.06860   0.08430   0.86330   0.01267  Uiso   1.00
H117   H     0.01950   0.12990   0.87970   0.01267  Uiso   1.00
H118   H     0.98350   0.06080   0.86270   0.01267  Uiso   1.00
H119   H     0.02210   0.06120   0.80600   0.01267  Uiso   1.00
H120   H     0.86720   0.06560   0.84640   0.01267  Uiso   1.00
H121   H     0.88290   0.05730   0.78590   0.01267  Uiso   1.00
H122   H     0.92470   0.03400   0.82500   0.01267  Uiso   1.00
H123   H     0.81550   0.13460   0.77330   0.01267  Uiso   1.00
H124   H     0.76790   0.21710   0.73090   0.01267  Uiso   1.00
H125   H     0.80590   0.29180   0.70820   0.01267  Uiso   1.00
H126   H     0.88750   0.38280   0.71170   0.01267  Uiso   1.00
H127   H     0.89430   0.36610   0.65500   0.01267  Uiso   1.00
H128   H     0.84220   0.35810   0.69890   0.01267  Uiso   1.00
H129   H     0.04470   0.30650   0.51140   0.01267  Uiso   1.00
H130   H     0.07080   0.24630   0.53260   0.01267  Uiso   1.00
H131   H     0.95940   0.28800   0.55280   0.01267  Uiso   1.00
H132   H     0.99750   0.27600   0.59600   0.01267  Uiso   1.00
H133   H     0.93190   0.21360   0.64720   0.01267  Uiso   1.00
H134   H     0.90370   0.22610   0.59630   0.01267  Uiso   1.00
H135   H     0.89000   0.13970   0.64000   0.01267  Uiso   1.00
H136   H     0.95110   0.12120   0.64660   0.01267  Uiso   1.00
H137   H     0.88170   0.05690   0.63750   0.01267  Uiso   1.00
H138   H     0.87240   0.03080   0.59130   0.01267  Uiso   1.00
H139   H     0.92500   0.00910   0.61650   0.01267  Uiso   1.00
H140   H     0.91760   0.99790   0.51180   0.01267  Uiso   1.00
H141   H     0.94240   0.99740   0.42120   0.01267  Uiso   1.00
H142   H     0.99040   0.05890   0.36240   0.01267  Uiso   1.00
H143   H     0.06180   0.14420   0.31130   0.01267  Uiso   1.00
H144   H     0.00660   0.12490   0.31770   0.01267  Uiso   1.00
H145   H     0.00810   0.18700   0.30870   0.01267  Uiso   1.00
H146   H     0.03120   0.25310   0.36950   0.01267  Uiso   1.00
H147   H     0.08700   0.21340   0.36000   0.01267  Uiso   1.00
H148   H     0.10410   0.21780   0.44020   0.01267  Uiso   1.00
H149   H     0.08700   0.27780   0.41080   0.01267  Uiso   1.00
H150   H     0.53230   0.32130   0.43030   0.01267  Uiso   1.00
H151   H     0.56860   0.32300   0.37250   0.01267  Uiso   1.00
H152   H     0.54840   0.26940   0.40370   0.01267  Uiso   1.00
H153   H     0.63230   0.24570   0.33630   0.01267  Uiso   1.00
H154   H     0.71060   0.19380   0.30150   0.01267  Uiso   1.00
H155   H     0.78170   0.16580   0.34630   0.01267  Uiso   1.00
H156   H     0.84250   0.12440   0.41510   0.01267  Uiso   1.00
H157   H     0.85740   0.18200   0.39150   0.01267  Uiso   1.00
H158   H     0.86680   0.15290   0.44990   0.01267  Uiso   1.00
H159   H     0.81840   0.13970   0.54090   0.01267  Uiso   1.00
H160   H     0.83390   0.19750   0.52760   0.01267  Uiso   1.00
H161   H     0.79410   0.18620   0.61560   0.01267  Uiso   1.00
H162   H     0.74650   0.16390   0.60390   0.01267  Uiso   1.00
H163   H     0.68190   0.23290   0.65170   0.01267  Uiso   1.00
H164   H     0.72170   0.26990   0.65560   0.01267  Uiso   1.00
H165   H     0.68070   0.34060   0.59500   0.01267  Uiso   1.00
H166   H     0.63690   0.32320   0.64540   0.01267  Uiso   1.00
H167   H     0.56900   0.36190   0.57560   0.01267  Uiso   1.00
H168   H     0.61970   0.37160   0.53020   0.01267  Uiso   1.00
H169   H     0.55470   0.35800   0.48760   0.01267  Uiso   1.00
H170   H     0.54560   0.30480   0.52980   0.01267  Uiso   1.00
H171   H     0.40220   0.37560   0.04730   0.01267  Uiso   1.00
H172   H     0.41560   0.16590   0.13680   0.01267  Uiso   1.00
H173   H     0.38420   0.22220   0.11220   0.01267  Uiso   1.00
H174   H     0.47480   0.16100   0.05520   0.01267  Uiso   1.00
H175   H     0.41510   0.17110   0.04480   0.01267  Uiso   1.00
H176   H     0.47250   0.21670   0.94570   0.01267  Uiso   1.00
H177   H     0.52150   0.21520   0.97350   0.01267  Uiso   1.00
H178   H     0.52360   0.28130   0.90530   0.01267  Uiso   1.00
H179   H     0.46150   0.30380   0.92090   0.01267  Uiso   1.00
H180   H     0.52140   0.42230   0.88380   0.01267  Uiso   1.00
H181   H     0.57800   0.38340   0.88020   0.01267  Uiso   1.00
H182   H     0.52760   0.36420   0.87060   0.01267  Uiso   1.00
H183   H     0.56500   0.45560   0.94490   0.01267  Uiso   1.00
H184   H     0.57800   0.49120   0.01810   0.01267  Uiso   1.00
H185   H     0.54950   0.44970   0.10760   0.01267  Uiso   1.00
H186   H     0.54130   0.35280   0.20370   0.01267  Uiso   1.00
H187   H     0.50800   0.41060   0.18640   0.01267  Uiso   1.00
H188   H     0.47790   0.36300   0.21790   0.01267  Uiso   1.00
H189   H     0.44880   0.29810   0.21800   0.01267  Uiso   1.00
H190   H     0.49830   0.25270   0.20190   0.01267  Uiso   1.00
H191   H     0.39800   0.27430   0.16990   0.01267  Uiso   1.00
H192   H     0.42210   0.22120   0.20640   0.01267  Uiso   1.00
H193   H     0.66370   0.99410   0.34370   0.01267  Uiso   1.00
H194   H     0.72320   0.98470   0.35450   0.01267  Uiso   1.00
H195   H     0.70170   0.07570   0.32340   0.01267  Uiso   1.00
H196   H     0.67740   0.06650   0.27590   0.01267  Uiso   1.00
H197   H     0.73750   0.12120   0.21150   0.01267  Uiso   1.00
H198   H     0.77620   0.12660   0.24870   0.01267  Uiso   1.00
H199   H     0.85010   0.07320   0.19730   0.01267  Uiso   1.00
H200   H     0.82670   0.12640   0.15970   0.01267  Uiso   1.00
H201   H     0.86330   0.06860   0.08430   0.01267  Uiso   1.00
H202   H     0.87970   0.01950   0.12990   0.01267  Uiso   1.00
H203   H     0.86270   0.98350   0.06080   0.01267  Uiso   1.00
H204   H     0.80600   0.02210   0.06120   0.01267  Uiso   1.00
H205   H     0.84640   0.86720   0.06560   0.01267  Uiso   1.00
H206   H     0.78590   0.88290   0.05730   0.01267  Uiso   1.00
H207   H     0.82500   0.92470   0.03400   0.01267  Uiso   1.00
H208   H     0.77330   0.81550   0.13460   0.01267  Uiso   1.00
H209   H     0.73090   0.76790   0.21710   0.01267  Uiso   1.00
H210   H     0.70820   0.80590   0.29180   0.01267  Uiso   1.00
H211   H     0.71170   0.88750   0.38280   0.01267  Uiso   1.00
H212   H     0.65500   0.89430   0.36610   0.01267  Uiso   1.00
H213   H     0.69890   0.84220   0.35810   0.01267  Uiso   1.00
H214   H     0.51140   0.04470   0.30650   0.01267  Uiso   1.00
H215   H     0.53260   0.07080   0.24630   0.01267  Uiso   1.00
H216   H     0.55280   0.95940   0.28800   0.01267  Uiso   1.00
H217   H     0.59600   0.99750   0.27600   0.01267  Uiso   1.00
H218   H     0.64720   0.93190   0.21360   0.01267  Uiso   1.00
H219   H     0.59630   0.90370   0.22610   0.01267  Uiso   1.00
H220   H     0.64000   0.89000   0.13970   0.01267  Uiso   1.00
H221   H     0.64660   0.95110   0.12120   0.01267  Uiso   1.00
H222   H     0.63750   0.88170   0.05690   0.01267  Uiso   1.00
H223   H     0.59130   0.87240   0.03080   0.01267  Uiso   1.00
H224   H     0.61650   0.92500   0.00910   0.01267  Uiso   1.00
H225   H     0.51180   0.91760   0.99790   0.01267  Uiso   1.00
H226   H     0.42120   0.94240   0.99740   0.01267  Uiso   1.00
H227   H     0.36240   0.99040   0.05890   0.01267  Uiso   1.00
H228   H     0.31130   0.06180   0.14420   0.01267  Uiso   1.00
H229   H     0.31770   0.00660   0.12490   0.01267  Uiso   1.00
H230   H     0.30870   0.00810   0.18700   0.01267  Uiso   1.00
H231   H     0.36950   0.03120   0.25310   0.01267  Uiso   1.00
H232   H     0.36000   0.08700   0.21340   0.01267  Uiso   1.00
H233   H     0.44020   0.10410   0.21780   0.01267  Uiso   1.00
H234   H     0.41080   0.08700   0.27780   0.01267  Uiso   1.00
H235   H     0.43030   0.53230   0.32130   0.01267  Uiso   1.00
H236   H     0.37250   0.56860   0.32300   0.01267  Uiso   1.00
H237   H     0.40370   0.54840   0.26940   0.01267  Uiso   1.00
H238   H     0.33630   0.63230   0.24570   0.01267  Uiso   1.00
H239   H     0.30150   0.71060   0.19380   0.01267  Uiso   1.00
H240   H     0.34630   0.78170   0.16580   0.01267  Uiso   1.00
H241   H     0.41510   0.84250   0.12440   0.01267  Uiso   1.00
H242   H     0.39150   0.85740   0.18200   0.01267  Uiso   1.00
H243   H     0.44990   0.86680   0.15290   0.01267  Uiso   1.00
H244   H     0.54090   0.81840   0.13970   0.01267  Uiso   1.00
H245   H     0.52760   0.83390   0.19750   0.01267  Uiso   1.00
H246   H     0.61560   0.79410   0.18620   0.01267  Uiso   1.00
H247   H     0.60390   0.74650   0.16390   0.01267  Uiso   1.00
H248   H     0.65170   0.68190   0.23290   0.01267  Uiso   1.00
H249   H     0.65560   0.72170   0.26990   0.01267  Uiso   1.00
H250   H     0.59500   0.68070   0.34060   0.01267  Uiso   1.00
H251   H     0.64540   0.63690   0.32320   0.01267  Uiso   1.00
H252   H     0.57560   0.56900   0.36190   0.01267  Uiso   1.00
H253   H     0.53020   0.61970   0.37160   0.01267  Uiso   1.00
H254   H     0.48760   0.55470   0.35800   0.01267  Uiso   1.00
H255   H     0.52980   0.54560   0.30480   0.01267  Uiso   1.00
H256   H     0.95270   0.59780   0.62440   0.01267  Uiso   1.00
H257   H     0.86320   0.58440   0.83410   0.01267  Uiso   1.00
H258   H     0.88780   0.61580   0.77780   0.01267  Uiso   1.00
H259   H     0.94480   0.52520   0.83900   0.01267  Uiso   1.00
H260   H     0.95520   0.58490   0.82890   0.01267  Uiso   1.00
H261   H     0.05430   0.52750   0.78330   0.01267  Uiso   1.00
H262   H     0.02650   0.47850   0.78480   0.01267  Uiso   1.00
H263   H     0.09470   0.47640   0.71870   0.01267  Uiso   1.00
H264   H     0.07910   0.53850   0.69620   0.01267  Uiso   1.00
H265   H     0.11620   0.47860   0.57770   0.01267  Uiso   1.00
H266   H     0.11980   0.42200   0.61660   0.01267  Uiso   1.00
H267   H     0.12940   0.47240   0.63580   0.01267  Uiso   1.00
H268   H     0.05510   0.43500   0.54440   0.01267  Uiso   1.00
H269   H     0.98190   0.42200   0.50880   0.01267  Uiso   1.00
H270   H     0.89240   0.45050   0.55030   0.01267  Uiso   1.00
H271   H     0.79630   0.45870   0.64720   0.01267  Uiso   1.00
H272   H     0.81360   0.49200   0.58940   0.01267  Uiso   1.00
H273   H     0.78210   0.52210   0.63700   0.01267  Uiso   1.00
H274   H     0.78200   0.55120   0.70190   0.01267  Uiso   1.00
H275   H     0.79810   0.50170   0.74730   0.01267  Uiso   1.00
H276   H     0.83010   0.60200   0.72570   0.01267  Uiso   1.00
H277   H     0.79360   0.57790   0.77880   0.01267  Uiso   1.00
H278   H     0.65630   0.33630   0.00590   0.01267  Uiso   1.00
H279   H     0.64550   0.27680   0.01530   0.01267  Uiso   1.00
H280   H     0.67660   0.29830   0.92430   0.01267  Uiso   1.00
H281   H     0.72410   0.32260   0.93350   0.01267  Uiso   1.00
H282   H     0.78850   0.26250   0.87880   0.01267  Uiso   1.00
H283   H     0.75130   0.22380   0.87340   0.01267  Uiso   1.00
H284   H     0.80270   0.14990   0.92680   0.01267  Uiso   1.00
H285   H     0.84030   0.17330   0.87360   0.01267  Uiso   1.00
H286   H     0.91570   0.13670   0.93140   0.01267  Uiso   1.00
H287   H     0.87010   0.12030   0.98050   0.01267  Uiso   1.00
H288   H     0.93920   0.13730   0.01650   0.01267  Uiso   1.00
H289   H     0.93880   0.19400   0.97790   0.01267  Uiso   1.00
H290   H     0.93440   0.15360   0.13280   0.01267  Uiso   1.00
H291   H     0.94270   0.21410   0.11710   0.01267  Uiso   1.00
H292   H     0.96600   0.17500   0.07530   0.01267  Uiso   1.00
H293   H     0.86540   0.22670   0.18450   0.01267  Uiso   1.00
H294   H     0.78290   0.26910   0.23210   0.01267  Uiso   1.00
H295   H     0.70820   0.29180   0.19410   0.01267  Uiso   1.00
H296   H     0.61720   0.28830   0.11250   0.01267  Uiso   1.00
H297   H     0.63390   0.34500   0.10570   0.01267  Uiso   1.00
H298   H     0.64190   0.30110   0.15780   0.01267  Uiso   1.00
H299   H     0.69350   0.48860   0.95530   0.01267  Uiso   1.00
H300   H     0.75370   0.46740   0.92920   0.01267  Uiso   1.00
H301   H     0.71200   0.44720   0.04060   0.01267  Uiso   1.00
H302   H     0.72400   0.40400   0.00250   0.01267  Uiso   1.00
H303   H     0.78640   0.35280   0.06810   0.01267  Uiso   1.00
H304   H     0.77390   0.40370   0.09630   0.01267  Uiso   1.00
H305   H     0.86030   0.36000   0.11000   0.01267  Uiso   1.00
H306   H     0.87880   0.35340   0.04890   0.01267  Uiso   1.00
H307   H     0.94310   0.36250   0.11830   0.01267  Uiso   1.00
H308   H     0.96920   0.40870   0.12760   0.01267  Uiso   1.00
H309   H     0.99090   0.38350   0.07500   0.01267  Uiso   1.00
H310   H     0.00210   0.48820   0.08240   0.01267  Uiso   1.00
H311   H     0.00260   0.57880   0.05760   0.01267  Uiso   1.00
H312   H     0.94110   0.63760   0.00960   0.01267  Uiso   1.00
H313   H     0.85580   0.68870   0.93820   0.01267  Uiso   1.00
H314   H     0.87510   0.68230   0.99340   0.01267  Uiso   1.00
H315   H     0.81300   0.69130   0.99190   0.01267  Uiso   1.00
H316   H     0.74690   0.63050   0.96880   0.01267  Uiso   1.00
H317   H     0.78660   0.64000   0.91300   0.01267  Uiso   1.00
H318   H     0.78220   0.55980   0.89590   0.01267  Uiso   1.00
H319   H     0.72220   0.58920   0.91300   0.01267  Uiso   1.00
H320   H     0.67870   0.56970   0.46770   0.01267  Uiso   1.00
H321   H     0.67700   0.62750   0.43140   0.01267  Uiso   1.00
H322   H     0.73060   0.59630   0.45160   0.01267  Uiso   1.00
H323   H     0.75430   0.66370   0.36770   0.01267  Uiso   1.00
H324   H     0.80620   0.69850   0.28940   0.01267  Uiso   1.00
H325   H     0.83420   0.65370   0.21830   0.01267  Uiso   1.00
H326   H     0.87560   0.58490   0.15750   0.01267  Uiso   1.00
H327   H     0.81800   0.60850   0.14260   0.01267  Uiso   1.00
H328   H     0.84710   0.55010   0.13320   0.01267  Uiso   1.00
H329   H     0.86030   0.45910   0.18160   0.01267  Uiso   1.00
H330   H     0.80250   0.47240   0.16610   0.01267  Uiso   1.00
H331   H     0.81380   0.38440   0.20590   0.01267  Uiso   1.00
H332   H     0.83610   0.39610   0.25350   0.01267  Uiso   1.00
H333   H     0.76710   0.34830   0.31810   0.01267  Uiso   1.00
H334   H     0.73010   0.34440   0.27830   0.01267  Uiso   1.00
H335   H     0.65940   0.40500   0.31930   0.01267  Uiso   1.00
H336   H     0.67680   0.35460   0.36310   0.01267  Uiso   1.00
H337   H     0.63810   0.42440   0.43100   0.01267  Uiso   1.00
H338   H     0.62840   0.46980   0.38030   0.01267  Uiso   1.00
H339   H     0.64200   0.51240   0.44530   0.01267  Uiso   1.00
H340   H     0.69520   0.47020   0.45440   0.01267  Uiso   1.00
H341   H     0.62440   0.95270   0.59780   0.01267  Uiso   1.00
H342   H     0.83410   0.86320   0.58440   0.01267  Uiso   1.00
H343   H     0.77780   0.88780   0.61580   0.01267  Uiso   1.00
H344   H     0.83900   0.94480   0.52520   0.01267  Uiso   1.00
H345   H     0.82890   0.95520   0.58490   0.01267  Uiso   1.00
H346   H     0.78330   0.05430   0.52750   0.01267  Uiso   1.00
H347   H     0.78480   0.02650   0.47850   0.01267  Uiso   1.00
H348   H     0.71870   0.09470   0.47640   0.01267  Uiso   1.00
H349   H     0.69620   0.07910   0.53850   0.01267  Uiso   1.00
H350   H     0.57770   0.11620   0.47860   0.01267  Uiso   1.00
H351   H     0.61660   0.11980   0.42200   0.01267  Uiso   1.00
H352   H     0.63580   0.12940   0.47240   0.01267  Uiso   1.00
H353   H     0.54440   0.05510   0.43500   0.01267  Uiso   1.00
H354   H     0.50880   0.98190   0.42200   0.01267  Uiso   1.00
H355   H     0.55030   0.89240   0.45050   0.01267  Uiso   1.00
H356   H     0.64720   0.79630   0.45870   0.01267  Uiso   1.00
H357   H     0.58940   0.81360   0.49200   0.01267  Uiso   1.00
H358   H     0.63700   0.78210   0.52210   0.01267  Uiso   1.00
H359   H     0.70190   0.78200   0.55120   0.01267  Uiso   1.00
H360   H     0.74730   0.79810   0.50170   0.01267  Uiso   1.00
H361   H     0.72570   0.83010   0.60200   0.01267  Uiso   1.00
H362   H     0.77880   0.79360   0.57790   0.01267  Uiso   1.00
H363   H     0.00590   0.65630   0.33630   0.01267  Uiso   1.00
H364   H     0.01530   0.64550   0.27680   0.01267  Uiso   1.00
H365   H     0.92430   0.67660   0.29830   0.01267  Uiso   1.00
H366   H     0.93350   0.72410   0.32260   0.01267  Uiso   1.00
H367   H     0.87880   0.78850   0.26250   0.01267  Uiso   1.00
H368   H     0.87340   0.75130   0.22380   0.01267  Uiso   1.00
H369   H     0.92680   0.80270   0.14990   0.01267  Uiso   1.00
H370   H     0.87360   0.84030   0.17330   0.01267  Uiso   1.00
H371   H     0.93140   0.91570   0.13670   0.01267  Uiso   1.00
H372   H     0.98050   0.87010   0.12030   0.01267  Uiso   1.00
H373   H     0.01650   0.93920   0.13730   0.01267  Uiso   1.00
H374   H     0.97790   0.93880   0.19400   0.01267  Uiso   1.00
H375   H     0.13280   0.93440   0.15360   0.01267  Uiso   1.00
H376   H     0.11710   0.94270   0.21410   0.01267  Uiso   1.00
H377   H     0.07530   0.96600   0.17500   0.01267  Uiso   1.00
H378   H     0.18450   0.86540   0.22670   0.01267  Uiso   1.00
H379   H     0.23210   0.78290   0.26910   0.01267  Uiso   1.00
H380   H     0.19410   0.70820   0.29180   0.01267  Uiso   1.00
H381   H     0.11250   0.61720   0.28830   0.01267  Uiso   1.00
H382   H     0.10570   0.63390   0.34500   0.01267  Uiso   1.00
H383   H     0.15780   0.64190   0.30110   0.01267  Uiso   1.00
H384   H     0.95530   0.69350   0.48860   0.01267  Uiso   1.00
H385   H     0.92920   0.75370   0.46740   0.01267  Uiso   1.00
H386   H     0.04060   0.71200   0.44720   0.01267  Uiso   1.00
H387   H     0.00250   0.72400   0.40400   0.01267  Uiso   1.00
H388   H     0.06810   0.78640   0.35280   0.01267  Uiso   1.00
H389   H     0.09630   0.77390   0.40370   0.01267  Uiso   1.00
H390   H     0.11000   0.86030   0.36000   0.01267  Uiso   1.00
H391   H     0.04890   0.87880   0.35340   0.01267  Uiso   1.00
H392   H     0.11830   0.94310   0.36250   0.01267  Uiso   1.00
H393   H     0.12760   0.96920   0.40870   0.01267  Uiso   1.00
H394   H     0.07500   0.99090   0.38350   0.01267  Uiso   1.00
H395   H     0.08240   0.00210   0.48820   0.01267  Uiso   1.00
H396   H     0.05760   0.00260   0.57880   0.01267  Uiso   1.00
H397   H     0.00960   0.94110   0.63760   0.01267  Uiso   1.00
H398   H     0.93820   0.85580   0.68870   0.01267  Uiso   1.00
H399   H     0.99340   0.87510   0.68230   0.01267  Uiso   1.00
H400   H     0.99190   0.81300   0.69130   0.01267  Uiso   1.00
H401   H     0.96880   0.74690   0.63050   0.01267  Uiso   1.00
H402   H     0.91300   0.78660   0.64000   0.01267  Uiso   1.00
H403   H     0.89590   0.78220   0.55980   0.01267  Uiso   1.00
H404   H     0.91300   0.72220   0.58920   0.01267  Uiso   1.00
H405   H     0.46770   0.67870   0.56970   0.01267  Uiso   1.00
H406   H     0.43140   0.67700   0.62750   0.01267  Uiso   1.00
H407   H     0.45160   0.73060   0.59630   0.01267  Uiso   1.00
H408   H     0.36770   0.75430   0.66370   0.01267  Uiso   1.00
H409   H     0.28940   0.80620   0.69850   0.01267  Uiso   1.00
H410   H     0.21830   0.83420   0.65370   0.01267  Uiso   1.00
H411   H     0.15750   0.87560   0.58490   0.01267  Uiso   1.00
H412   H     0.14260   0.81800   0.60850   0.01267  Uiso   1.00
H413   H     0.13320   0.84710   0.55010   0.01267  Uiso   1.00
H414   H     0.18160   0.86030   0.45910   0.01267  Uiso   1.00
H415   H     0.16610   0.80250   0.47240   0.01267  Uiso   1.00
H416   H     0.20590   0.81380   0.38440   0.01267  Uiso   1.00
H417   H     0.25350   0.83610   0.39610   0.01267  Uiso   1.00
H418   H     0.31810   0.76710   0.34830   0.01267  Uiso   1.00
H419   H     0.27830   0.73010   0.34440   0.01267  Uiso   1.00
H420   H     0.31930   0.65940   0.40500   0.01267  Uiso   1.00
H421   H     0.36310   0.67680   0.35460   0.01267  Uiso   1.00
H422   H     0.43100   0.63810   0.42440   0.01267  Uiso   1.00
H423   H     0.38030   0.62840   0.46980   0.01267  Uiso   1.00
H424   H     0.44530   0.64200   0.51240   0.01267  Uiso   1.00
H425   H     0.45440   0.69520   0.47020   0.01267  Uiso   1.00
H426   H     0.59780   0.62440   0.95270   0.01267  Uiso   1.00
H427   H     0.58440   0.83410   0.86320   0.01267  Uiso   1.00
H428   H     0.61580   0.77780   0.88780   0.01267  Uiso   1.00
H429   H     0.52520   0.83900   0.94480   0.01267  Uiso   1.00
H430   H     0.58490   0.82890   0.95520   0.01267  Uiso   1.00
H431   H     0.52750   0.78330   0.05430   0.01267  Uiso   1.00
H432   H     0.47850   0.78480   0.02650   0.01267  Uiso   1.00
H433   H     0.47640   0.71870   0.09470   0.01267  Uiso   1.00
H434   H     0.53850   0.69620   0.07910   0.01267  Uiso   1.00
H435   H     0.47860   0.57770   0.11620   0.01267  Uiso   1.00
H436   H     0.42200   0.61660   0.11980   0.01267  Uiso   1.00
H437   H     0.47240   0.63580   0.12940   0.01267  Uiso   1.00
H438   H     0.43500   0.54440   0.05510   0.01267  Uiso   1.00
H439   H     0.42200   0.50880   0.98190   0.01267  Uiso   1.00
H440   H     0.45050   0.55030   0.89240   0.01267  Uiso   1.00
H441   H     0.45870   0.64720   0.79630   0.01267  Uiso   1.00
H442   H     0.49200   0.58940   0.81360   0.01267  Uiso   1.00
H443   H     0.52210   0.63700   0.78210   0.01267  Uiso   1.00
H444   H     0.55120   0.70190   0.78200   0.01267  Uiso   1.00
H445   H     0.50170   0.74730   0.79810   0.01267  Uiso   1.00
H446   H     0.60200   0.72570   0.83010   0.01267  Uiso   1.00
H447   H     0.57790   0.77880   0.79360   0.01267  Uiso   1.00
H448   H     0.33630   0.00590   0.65630   0.01267  Uiso   1.00
H449   H     0.27680   0.01530   0.64550   0.01267  Uiso   1.00
H450   H     0.29830   0.92430   0.67660   0.01267  Uiso   1.00
H451   H     0.32260   0.93350   0.72410   0.01267  Uiso   1.00
H452   H     0.26250   0.87880   0.78850   0.01267  Uiso   1.00
H453   H     0.22380   0.87340   0.75130   0.01267  Uiso   1.00
H454   H     0.14990   0.92680   0.80270   0.01267  Uiso   1.00
H455   H     0.17330   0.87360   0.84030   0.01267  Uiso   1.00
H456   H     0.13670   0.93140   0.91570   0.01267  Uiso   1.00
H457   H     0.12030   0.98050   0.87010   0.01267  Uiso   1.00
H458   H     0.13730   0.01650   0.93920   0.01267  Uiso   1.00
H459   H     0.19400   0.97790   0.93880   0.01267  Uiso   1.00
H460   H     0.15360   0.13280   0.93440   0.01267  Uiso   1.00
H461   H     0.21410   0.11710   0.94270   0.01267  Uiso   1.00
H462   H     0.17500   0.07530   0.96600   0.01267  Uiso   1.00
H463   H     0.22670   0.18450   0.86540   0.01267  Uiso   1.00
H464   H     0.26910   0.23210   0.78290   0.01267  Uiso   1.00
H465   H     0.29180   0.19410   0.70820   0.01267  Uiso   1.00
H466   H     0.28830   0.11250   0.61720   0.01267  Uiso   1.00
H467   H     0.34500   0.10570   0.63390   0.01267  Uiso   1.00
H468   H     0.30110   0.15780   0.64190   0.01267  Uiso   1.00
H469   H     0.48860   0.95530   0.69350   0.01267  Uiso   1.00
H470   H     0.46740   0.92920   0.75370   0.01267  Uiso   1.00
H471   H     0.44720   0.04060   0.71200   0.01267  Uiso   1.00
H472   H     0.40400   0.00250   0.72400   0.01267  Uiso   1.00
H473   H     0.35280   0.06810   0.78640   0.01267  Uiso   1.00
H474   H     0.40370   0.09630   0.77390   0.01267  Uiso   1.00
H475   H     0.36000   0.11000   0.86030   0.01267  Uiso   1.00
H476   H     0.35340   0.04890   0.87880   0.01267  Uiso   1.00
H477   H     0.36250   0.11830   0.94310   0.01267  Uiso   1.00
H478   H     0.40870   0.12760   0.96920   0.01267  Uiso   1.00
H479   H     0.38350   0.07500   0.99090   0.01267  Uiso   1.00
H480   H     0.48820   0.08240   0.00210   0.01267  Uiso   1.00
H481   H     0.57880   0.05760   0.00260   0.01267  Uiso   1.00
H482   H     0.63760   0.00960   0.94110   0.01267  Uiso   1.00
H483   H     0.68870   0.93820   0.85580   0.01267  Uiso   1.00
H484   H     0.68230   0.99340   0.87510   0.01267  Uiso   1.00
H485   H     0.69130   0.99190   0.81300   0.01267  Uiso   1.00
H486   H     0.63050   0.96880   0.74690   0.01267  Uiso   1.00
H487   H     0.64000   0.91300   0.78660   0.01267  Uiso   1.00
H488   H     0.55980   0.89590   0.78220   0.01267  Uiso   1.00
H489   H     0.58920   0.91300   0.72220   0.01267  Uiso   1.00
H490   H     0.56970   0.46770   0.67870   0.01267  Uiso   1.00
H491   H     0.62750   0.43140   0.67700   0.01267  Uiso   1.00
H492   H     0.59630   0.45160   0.73060   0.01267  Uiso   1.00
H493   H     0.66370   0.36770   0.75430   0.01267  Uiso   1.00
H494   H     0.69850   0.28940   0.80620   0.01267  Uiso   1.00
H495   H     0.65370   0.21830   0.83420   0.01267  Uiso   1.00
H496   H     0.58490   0.15750   0.87560   0.01267  Uiso   1.00
H497   H     0.60850   0.14260   0.81800   0.01267  Uiso   1.00
H498   H     0.55010   0.13320   0.84710   0.01267  Uiso   1.00
H499   H     0.45910   0.18160   0.86030   0.01267  Uiso   1.00
H500   H     0.47240   0.16610   0.80250   0.01267  Uiso   1.00
H501   H     0.38440   0.20590   0.81380   0.01267  Uiso   1.00
H502   H     0.39610   0.25350   0.83610   0.01267  Uiso   1.00
H503   H     0.34830   0.31810   0.76710   0.01267  Uiso   1.00
H504   H     0.34440   0.27830   0.73010   0.01267  Uiso   1.00
H505   H     0.40500   0.31930   0.65940   0.01267  Uiso   1.00
H506   H     0.35460   0.36310   0.67680   0.01267  Uiso   1.00
H507   H     0.42440   0.43100   0.63810   0.01267  Uiso   1.00
H508   H     0.46980   0.38030   0.62840   0.01267  Uiso   1.00
H509   H     0.51240   0.44530   0.64200   0.01267  Uiso   1.00
H510   H     0.47020   0.45440   0.69520   0.01267  Uiso   1.00
C1     C     0.14168   0.67448   0.05688   0.01267  Uiso   1.00
C2     C     0.10458   0.56598   0.08668   0.01267  Uiso   1.00
C3     C     0.15060   0.62680   0.15330   0.01267  Uiso   1.00
C4     C     0.06565   0.59095   0.19445   0.01267  Uiso   1.00
C5     C     0.99310   0.64110   0.14140   0.01267  Uiso   1.00
C6     C     0.05955   0.71735   0.14255   0.01267  Uiso   1.00
C7     C     0.04471   0.67691   0.04501   0.01267  Uiso   1.00
C8     C     0.27484   0.47324   0.89264   0.01267  Uiso   1.00
C9     C     0.33960   0.53970   0.84170   0.01267  Uiso   1.00
C10    C     0.33740   0.46640   0.77320   0.01267  Uiso   1.00
C11    C     0.43460   0.47950   0.81980   0.01267  Uiso   1.00
C12    C     0.41748   0.38298   0.83108   0.01267  Uiso   1.00
C13    C     0.32090   0.38500   0.86900   0.01267  Uiso   1.00
C14    C     0.37600   0.43710   0.93190   0.01267  Uiso   1.00
C15    C     0.11180   0.41980   0.19960   0.01267  Uiso   1.00
C16    C     0.05580   0.44110   0.18690   0.01267  Uiso   1.00
C17    C     0.96650   0.48640   0.23600   0.01267  Uiso   1.00
C18    C     0.93550   0.49390   0.28620   0.01267  Uiso   1.00
C19    C     0.94900   0.52650   0.36340   0.01267  Uiso   1.00
C20    C     0.89090   0.53940   0.38520   0.01267  Uiso   1.00
C21    C     0.99030   0.53390   0.39120   0.01267  Uiso   1.00
C22    C     0.98040   0.55530   0.43820   0.01267  Uiso   1.00
C23    C     0.02520   0.56240   0.46040   0.01267  Uiso   1.00
C24    C     0.07800   0.54610   0.43620   0.01267  Uiso   1.00
C25    C     0.08340   0.52470   0.39010   0.01267  Uiso   1.00
C26    C     0.13770   0.50660   0.35750   0.01267  Uiso   1.00
C27    C     0.19140   0.50860   0.37230   0.01267  Uiso   1.00
C28    C     0.18930   0.46770   0.27820   0.01267  Uiso   1.00
C29    C     0.17560   0.43130   0.24910   0.01267  Uiso   1.00
C30    C     0.32640   0.70100   0.99540   0.01267  Uiso   1.00
C31    C     0.29710   0.70600   0.05240   0.01267  Uiso   1.00
C32    C     0.22730   0.76920   0.10310   0.01267  Uiso   1.00
C33    C     0.18180   0.81850   0.09240   0.01267  Uiso   1.00
C34    C     0.11110   0.85040   0.03910   0.01267  Uiso   1.00
C35    C     0.08380   0.83180   0.00130   0.01267  Uiso   1.00
C36    C     0.11630   0.79970   0.91780   0.01267  Uiso   1.00
C37    C     0.06340   0.81580   0.89610   0.01267  Uiso   1.00
C38    C     0.16448   0.77248   0.88238   0.01267  Uiso   1.00
C39    C     0.16560   0.76320   0.83090   0.01267  Uiso   1.00
C40    C     0.21540   0.73770   0.80240   0.01267  Uiso   1.00
C41    C     0.25900   0.72390   0.82480   0.01267  Uiso   1.00
C42    C     0.25600   0.73300   0.87780   0.01267  Uiso   1.00
C43    C     0.30120   0.71510   0.90810   0.01267  Uiso   1.00
C44    C     0.35710   0.69310   0.88050   0.01267  Uiso   1.00
C45    C     0.26930   0.52070   0.03870   0.01267  Uiso   1.00
C46    C     0.26480   0.56450   0.99160   0.01267  Uiso   1.00
C47    C     0.20310   0.61280   0.93330   0.01267  Uiso   1.00
C48    C     0.14320   0.62270   0.92690   0.01267  Uiso   1.00
C49    C     0.08120   0.56400   0.92790   0.01267  Uiso   1.00
C50    C     0.04080   0.60620   0.89910   0.01267  Uiso   1.00
C51    C     0.07050   0.50770   0.94540   0.01267  Uiso   1.00
C52    C     0.02490   0.48830   0.93450   0.01267  Uiso   1.00
C53    C     0.02470   0.43480   0.95070   0.01267  Uiso   1.00
C54    C     0.06180   0.39880   0.97840   0.01267  Uiso   1.00
C55    C     0.10320   0.41950   0.98710   0.01267  Uiso   1.00
C56    C     0.14810   0.38890   0.01450   0.01267  Uiso   1.00
C57    C     0.15140   0.32540   0.02370   0.01267  Uiso   1.00
C58    C     0.22430   0.38740   0.05620   0.01267  Uiso   1.00
C59    C     0.24400   0.42700   0.07430   0.01267  Uiso   1.00
C60    C     0.28380   0.43260   0.61010   0.01267  Uiso   1.00
C61    C     0.30090   0.40760   0.56040   0.01267  Uiso   1.00
C62    C     0.25014   0.40434   0.65804   0.01267  Uiso   1.00
C63    C     0.23480   0.35490   0.66120   0.01267  Uiso   1.00
C64    C     0.20400   0.33480   0.70760   0.01267  Uiso   1.00
C65    C     0.18700   0.36130   0.75000   0.01267  Uiso   1.00
C66    C     0.20212   0.41132   0.74552   0.01267  Uiso   1.00
C67    C     0.18450   0.44720   0.78690   0.01267  Uiso   1.00
C68    C     0.15860   0.42390   0.84360   0.01267  Uiso   1.00
C69    C     0.17811   0.53761   0.80371   0.01267  Uiso   1.00
C70    C     0.19000   0.58980   0.77050   0.01267  Uiso   1.00
C71    C     0.26180   0.63170   0.70120   0.01267  Uiso   1.00
C72    C     0.31150   0.61390   0.66150   0.01267  Uiso   1.00
C73    C     0.34500   0.54960   0.59750   0.01267  Uiso   1.00
C74    C     0.32670   0.51020   0.57240   0.01267  Uiso   1.00
C75    C     0.05688   0.14168   0.67448   0.01267  Uiso   1.00
C76    C     0.08668   0.10458   0.56598   0.01267  Uiso   1.00
C77    C     0.15330   0.15060   0.62680   0.01267  Uiso   1.00
C78    C     0.19445   0.06565   0.59095   0.01267  Uiso   1.00
C79    C     0.14140   0.99310   0.64110   0.01267  Uiso   1.00
C80    C     0.14255   0.05955   0.71735   0.01267  Uiso   1.00
C81    C     0.04501   0.04471   0.67691   0.01267  Uiso   1.00
C82    C     0.89264   0.27484   0.47324   0.01267  Uiso   1.00
C83    C     0.84170   0.33960   0.53970   0.01267  Uiso   1.00
C84    C     0.77320   0.33740   0.46640   0.01267  Uiso   1.00
C85    C     0.81980   0.43460   0.47950   0.01267  Uiso   1.00
C86    C     0.83108   0.41748   0.38298   0.01267  Uiso   1.00
C87    C     0.86900   0.32090   0.38500   0.01267  Uiso   1.00
C88    C     0.93190   0.37600   0.43710   0.01267  Uiso   1.00
C89    C     0.19960   0.11180   0.41980   0.01267  Uiso   1.00
C90    C     0.18690   0.05580   0.44110   0.01267  Uiso   1.00
C91    C     0.23600   0.96650   0.48640   0.01267  Uiso   1.00
C92    C     0.28620   0.93550   0.49390   0.01267  Uiso   1.00
C93    C     0.36340   0.94900   0.52650   0.01267  Uiso   1.00
C94    C     0.38520   0.89090   0.53940   0.01267  Uiso   1.00
C95    C     0.39120   0.99030   0.53390   0.01267  Uiso   1.00
C96    C     0.43820   0.98040   0.55530   0.01267  Uiso   1.00
C97    C     0.46040   0.02520   0.56240   0.01267  Uiso   1.00
C98    C     0.43620   0.07800   0.54610   0.01267  Uiso   1.00
C99    C     0.39010   0.08340   0.52470   0.01267  Uiso   1.00
C100   C     0.35750   0.13770   0.50660   0.01267  Uiso   1.00
C101   C     0.37230   0.19140   0.50860   0.01267  Uiso   1.00
C102   C     0.27820   0.18930   0.46770   0.01267  Uiso   1.00
C103   C     0.24910   0.17560   0.43130   0.01267  Uiso   1.00
C104   C     0.99540   0.32640   0.70100   0.01267  Uiso   1.00
C105   C     0.05240   0.29710   0.70600   0.01267  Uiso   1.00
C106   C     0.10310   0.22730   0.76920   0.01267  Uiso   1.00
C107   C     0.09240   0.18180   0.81850   0.01267  Uiso   1.00
C108   C     0.03910   0.11110   0.85040   0.01267  Uiso   1.00
C109   C     0.00130   0.08380   0.83180   0.01267  Uiso   1.00
C110   C     0.91780   0.11630   0.79970   0.01267  Uiso   1.00
C111   C     0.89610   0.06340   0.81580   0.01267  Uiso   1.00
C112   C     0.88238   0.16448   0.77248   0.01267  Uiso   1.00
C113   C     0.83090   0.16560   0.76320   0.01267  Uiso   1.00
C114   C     0.80240   0.21540   0.73770   0.01267  Uiso   1.00
C115   C     0.82480   0.25900   0.72390   0.01267  Uiso   1.00
C116   C     0.87780   0.25600   0.73300   0.01267  Uiso   1.00
C117   C     0.90810   0.30120   0.71510   0.01267  Uiso   1.00
C118   C     0.88050   0.35710   0.69310   0.01267  Uiso   1.00
C119   C     0.03870   0.26930   0.52070   0.01267  Uiso   1.00
C120   C     0.99160   0.26480   0.56450   0.01267  Uiso   1.00
C121   C     0.93330   0.20310   0.61280   0.01267  Uiso   1.00
C122   C     0.92690   0.14320   0.62270   0.01267  Uiso   1.00
C123   C     0.92790   0.08120   0.56400   0.01267  Uiso   1.00
C124   C     0.89910   0.04080   0.60620   0.01267  Uiso   1.00
C125   C     0.94540   0.07050   0.50770   0.01267  Uiso   1.00
C126   C     0.93450   0.02490   0.48830   0.01267  Uiso   1.00
C127   C     0.95070   0.02470   0.43480   0.01267  Uiso   1.00
C128   C     0.97840   0.06180   0.39880   0.01267  Uiso   1.00
C129   C     0.98710   0.10320   0.41950   0.01267  Uiso   1.00
C130   C     0.01450   0.14810   0.38890   0.01267  Uiso   1.00
C131   C     0.02370   0.15140   0.32540   0.01267  Uiso   1.00
C132   C     0.05620   0.22430   0.38740   0.01267  Uiso   1.00
C133   C     0.07430   0.24400   0.42700   0.01267  Uiso   1.00
C134   C     0.61010   0.28380   0.43260   0.01267  Uiso   1.00
C135   C     0.56040   0.30090   0.40760   0.01267  Uiso   1.00
C136   C     0.65804   0.25014   0.40434   0.01267  Uiso   1.00
C137   C     0.66120   0.23480   0.35490   0.01267  Uiso   1.00
C138   C     0.70760   0.20400   0.33480   0.01267  Uiso   1.00
C139   C     0.75000   0.18700   0.36130   0.01267  Uiso   1.00
C140   C     0.74552   0.20212   0.41132   0.01267  Uiso   1.00
C141   C     0.78690   0.18450   0.44720   0.01267  Uiso   1.00
C142   C     0.84360   0.15860   0.42390   0.01267  Uiso   1.00
C143   C     0.80371   0.17811   0.53761   0.01267  Uiso   1.00
C144   C     0.77050   0.19000   0.58980   0.01267  Uiso   1.00
C145   C     0.70120   0.26180   0.63170   0.01267  Uiso   1.00
C146   C     0.66150   0.31150   0.61390   0.01267  Uiso   1.00
C147   C     0.59750   0.34500   0.54960   0.01267  Uiso   1.00
C148   C     0.57240   0.32670   0.51020   0.01267  Uiso   1.00
C149   C     0.67448   0.05688   0.14168   0.01267  Uiso   1.00
C150   C     0.56598   0.08668   0.10458   0.01267  Uiso   1.00
C151   C     0.62680   0.15330   0.15060   0.01267  Uiso   1.00
C152   C     0.59095   0.19445   0.06565   0.01267  Uiso   1.00
C153   C     0.64110   0.14140   0.99310   0.01267  Uiso   1.00
C154   C     0.71735   0.14255   0.05955   0.01267  Uiso   1.00
C155   C     0.67691   0.04501   0.04471   0.01267  Uiso   1.00
C156   C     0.47324   0.89264   0.27484   0.01267  Uiso   1.00
C157   C     0.53970   0.84170   0.33960   0.01267  Uiso   1.00
C158   C     0.46640   0.77320   0.33740   0.01267  Uiso   1.00
C159   C     0.47950   0.81980   0.43460   0.01267  Uiso   1.00
C160   C     0.38298   0.83108   0.41748   0.01267  Uiso   1.00
C161   C     0.38500   0.86900   0.32090   0.01267  Uiso   1.00
C162   C     0.43710   0.93190   0.37600   0.01267  Uiso   1.00
C163   C     0.41980   0.19960   0.11180   0.01267  Uiso   1.00
C164   C     0.44110   0.18690   0.05580   0.01267  Uiso   1.00
C165   C     0.48640   0.23600   0.96650   0.01267  Uiso   1.00
C166   C     0.49390   0.28620   0.93550   0.01267  Uiso   1.00
C167   C     0.52650   0.36340   0.94900   0.01267  Uiso   1.00
C168   C     0.53940   0.38520   0.89090   0.01267  Uiso   1.00
C169   C     0.53390   0.39120   0.99030   0.01267  Uiso   1.00
C170   C     0.55530   0.43820   0.98040   0.01267  Uiso   1.00
C171   C     0.56240   0.46040   0.02520   0.01267  Uiso   1.00
C172   C     0.54610   0.43620   0.07800   0.01267  Uiso   1.00
C173   C     0.52470   0.39010   0.08340   0.01267  Uiso   1.00
C174   C     0.50660   0.35750   0.13770   0.01267  Uiso   1.00
C175   C     0.50860   0.37230   0.19140   0.01267  Uiso   1.00
C176   C     0.46770   0.27820   0.18930   0.01267  Uiso   1.00
C177   C     0.43130   0.24910   0.17560   0.01267  Uiso   1.00
C178   C     0.70100   0.99540   0.32640   0.01267  Uiso   1.00
C179   C     0.70600   0.05240   0.29710   0.01267  Uiso   1.00
C180   C     0.76920   0.10310   0.22730   0.01267  Uiso   1.00
C181   C     0.81850   0.09240   0.18180   0.01267  Uiso   1.00
C182   C     0.85040   0.03910   0.11110   0.01267  Uiso   1.00
C183   C     0.83180   0.00130   0.08380   0.01267  Uiso   1.00
C184   C     0.79970   0.91780   0.11630   0.01267  Uiso   1.00
C185   C     0.81580   0.89610   0.06340   0.01267  Uiso   1.00
C186   C     0.77248   0.88238   0.16448   0.01267  Uiso   1.00
C187   C     0.76320   0.83090   0.16560   0.01267  Uiso   1.00
C188   C     0.73770   0.80240   0.21540   0.01267  Uiso   1.00
C189   C     0.72390   0.82480   0.25900   0.01267  Uiso   1.00
C190   C     0.73300   0.87780   0.25600   0.01267  Uiso   1.00
C191   C     0.71510   0.90810   0.30120   0.01267  Uiso   1.00
C192   C     0.69310   0.88050   0.35710   0.01267  Uiso   1.00
C193   C     0.52070   0.03870   0.26930   0.01267  Uiso   1.00
C194   C     0.56450   0.99160   0.26480   0.01267  Uiso   1.00
C195   C     0.61280   0.93330   0.20310   0.01267  Uiso   1.00
C196   C     0.62270   0.92690   0.14320   0.01267  Uiso   1.00
C197   C     0.56400   0.92790   0.08120   0.01267  Uiso   1.00
C198   C     0.60620   0.89910   0.04080   0.01267  Uiso   1.00
C199   C     0.50770   0.94540   0.07050   0.01267  Uiso   1.00
C200   C     0.48830   0.93450   0.02490   0.01267  Uiso   1.00
C201   C     0.43480   0.95070   0.02470   0.01267  Uiso   1.00
C202   C     0.39880   0.97840   0.06180   0.01267  Uiso   1.00
C203   C     0.41950   0.98710   0.10320   0.01267  Uiso   1.00
C204   C     0.38890   0.01450   0.14810   0.01267  Uiso   1.00
C205   C     0.32540   0.02370   0.15140   0.01267  Uiso   1.00
C206   C     0.38740   0.05620   0.22430   0.01267  Uiso   1.00
C207   C     0.42700   0.07430   0.24400   0.01267  Uiso   1.00
C208   C     0.43260   0.61010   0.28380   0.01267  Uiso   1.00
C209   C     0.40760   0.56040   0.30090   0.01267  Uiso   1.00
C210   C     0.40434   0.65804   0.25014   0.01267  Uiso   1.00
C211   C     0.35490   0.66120   0.23480   0.01267  Uiso   1.00
C212   C     0.33480   0.70760   0.20400   0.01267  Uiso   1.00
C213   C     0.36130   0.75000   0.18700   0.01267  Uiso   1.00
C214   C     0.41132   0.74552   0.20212   0.01267  Uiso   1.00
C215   C     0.44720   0.78690   0.18450   0.01267  Uiso   1.00
C216   C     0.42390   0.84360   0.15860   0.01267  Uiso   1.00
C217   C     0.53761   0.80371   0.17811   0.01267  Uiso   1.00
C218   C     0.58980   0.77050   0.19000   0.01267  Uiso   1.00
C219   C     0.63170   0.70120   0.26180   0.01267  Uiso   1.00
C220   C     0.61390   0.66150   0.31150   0.01267  Uiso   1.00
C221   C     0.54960   0.59750   0.34500   0.01267  Uiso   1.00
C222   C     0.51020   0.57240   0.32670   0.01267  Uiso   1.00
C223   C     0.85832   0.32552   0.94312   0.01267  Uiso   1.00
C224   C     0.89542   0.43402   0.91332   0.01267  Uiso   1.00
C225   C     0.84940   0.37320   0.84670   0.01267  Uiso   1.00
C226   C     0.93435   0.40905   0.80555   0.01267  Uiso   1.00
C227   C     0.00690   0.35890   0.85860   0.01267  Uiso   1.00
C228   C     0.94045   0.28265   0.85745   0.01267  Uiso   1.00
C229   C     0.95529   0.32309   0.95499   0.01267  Uiso   1.00
C230   C     0.72516   0.52676   0.10736   0.01267  Uiso   1.00
C231   C     0.66040   0.46030   0.15830   0.01267  Uiso   1.00
C232   C     0.66260   0.53360   0.22680   0.01267  Uiso   1.00
C233   C     0.56540   0.52050   0.18020   0.01267  Uiso   1.00
C234   C     0.58252   0.61702   0.16892   0.01267  Uiso   1.00
C235   C     0.67910   0.61500   0.13100   0.01267  Uiso   1.00
C236   C     0.62400   0.56290   0.06810   0.01267  Uiso   1.00
C237   C     0.88820   0.58020   0.80040   0.01267  Uiso   1.00
C238   C     0.94420   0.55890   0.81310   0.01267  Uiso   1.00
C239   C     0.03350   0.51360   0.76400   0.01267  Uiso   1.00
C240   C     0.06450   0.50610   0.71380   0.01267  Uiso   1.00
C241   C     0.05100   0.47350   0.63660   0.01267  Uiso   1.00
C242   C     0.10910   0.46060   0.61480   0.01267  Uiso   1.00
C243   C     0.00970   0.46610   0.60880   0.01267  Uiso   1.00
C244   C     0.01960   0.44470   0.56180   0.01267  Uiso   1.00
C245   C     0.97480   0.43760   0.53960   0.01267  Uiso   1.00
C246   C     0.92200   0.45390   0.56380   0.01267  Uiso   1.00
C247   C     0.91660   0.47530   0.60990   0.01267  Uiso   1.00
C248   C     0.86230   0.49340   0.64250   0.01267  Uiso   1.00
C249   C     0.80860   0.49140   0.62770   0.01267  Uiso   1.00
C250   C     0.81070   0.53230   0.72180   0.01267  Uiso   1.00
C251   C     0.82440   0.56870   0.75090   0.01267  Uiso   1.00
C252   C     0.67360   0.29900   0.00460   0.01267  Uiso   1.00
C253   C     0.70290   0.29400   0.94760   0.01267  Uiso   1.00
C254   C     0.77270   0.23080   0.89690   0.01267  Uiso   1.00
C255   C     0.81820   0.18150   0.90760   0.01267  Uiso   1.00
C256   C     0.88890   0.14960   0.96090   0.01267  Uiso   1.00
C257   C     0.91620   0.16820   0.99870   0.01267  Uiso   1.00
C258   C     0.88370   0.20030   0.08220   0.01267  Uiso   1.00
C259   C     0.93660   0.18420   0.10390   0.01267  Uiso   1.00
C260   C     0.83552   0.22752   0.11762   0.01267  Uiso   1.00
C261   C     0.83440   0.23680   0.16910   0.01267  Uiso   1.00
C262   C     0.78460   0.26230   0.19760   0.01267  Uiso   1.00
C263   C     0.74100   0.27610   0.17520   0.01267  Uiso   1.00
C264   C     0.74400   0.26700   0.12220   0.01267  Uiso   1.00
C265   C     0.69880   0.28490   0.09190   0.01267  Uiso   1.00
C266   C     0.64290   0.30690   0.11950   0.01267  Uiso   1.00
C267   C     0.73070   0.47930   0.96130   0.01267  Uiso   1.00
C268   C     0.73520   0.43550   0.00840   0.01267  Uiso   1.00
C269   C     0.79690   0.38720   0.06670   0.01267  Uiso   1.00
C270   C     0.85680   0.37730   0.07310   0.01267  Uiso   1.00
C271   C     0.91880   0.43600   0.07210   0.01267  Uiso   1.00
C272   C     0.95920   0.39380   0.10090   0.01267  Uiso   1.00
C273   C     0.92950   0.49230   0.05460   0.01267  Uiso   1.00
C274   C     0.97510   0.51170   0.06550   0.01267  Uiso   1.00
C275   C     0.97530   0.56520   0.04930   0.01267  Uiso   1.00
C276   C     0.93820   0.60120   0.02160   0.01267  Uiso   1.00
C277   C     0.89680   0.58050   0.01290   0.01267  Uiso   1.00
C278   C     0.85190   0.61110   0.98550   0.01267  Uiso   1.00
C279   C     0.84860   0.67460   0.97630   0.01267  Uiso   1.00
C280   C     0.77570   0.61260   0.94380   0.01267  Uiso   1.00
C281   C     0.75600   0.57300   0.92570   0.01267  Uiso   1.00
C282   C     0.71620   0.56740   0.38990   0.01267  Uiso   1.00
C283   C     0.69910   0.59240   0.43960   0.01267  Uiso   1.00
C284   C     0.74986   0.59566   0.34196   0.01267  Uiso   1.00
C285   C     0.76520   0.64510   0.33880   0.01267  Uiso   1.00
C286   C     0.79600   0.66520   0.29240   0.01267  Uiso   1.00
C287   C     0.81300   0.63870   0.25000   0.01267  Uiso   1.00
C288   C     0.79788   0.58868   0.25448   0.01267  Uiso   1.00
C289   C     0.81550   0.55280   0.21310   0.01267  Uiso   1.00
C290   C     0.84140   0.57610   0.15640   0.01267  Uiso   1.00
C291   C     0.82189   0.46239   0.19629   0.01267  Uiso   1.00
C292   C     0.81000   0.41020   0.22950   0.01267  Uiso   1.00
C293   C     0.73820   0.36830   0.29880   0.01267  Uiso   1.00
C294   C     0.68850   0.38610   0.33850   0.01267  Uiso   1.00
C295   C     0.65500   0.45040   0.40250   0.01267  Uiso   1.00
C296   C     0.67330   0.48980   0.42760   0.01267  Uiso   1.00
C297   C     0.94312   0.85832   0.32552   0.01267  Uiso   1.00
C298   C     0.91332   0.89542   0.43402   0.01267  Uiso   1.00
C299   C     0.84670   0.84940   0.37320   0.01267  Uiso   1.00
C300   C     0.80555   0.93435   0.40905   0.01267  Uiso   1.00
C301   C     0.85860   0.00690   0.35890   0.01267  Uiso   1.00
C302   C     0.85745   0.94045   0.28265   0.01267  Uiso   1.00
C303   C     0.95499   0.95529   0.32309   0.01267  Uiso   1.00
C304   C     0.10736   0.72516   0.52676   0.01267  Uiso   1.00
C305   C     0.15830   0.66040   0.46030   0.01267  Uiso   1.00
C306   C     0.22680   0.66260   0.53360   0.01267  Uiso   1.00
C307   C     0.18020   0.56540   0.52050   0.01267  Uiso   1.00
C308   C     0.16892   0.58252   0.61702   0.01267  Uiso   1.00
C309   C     0.13100   0.67910   0.61500   0.01267  Uiso   1.00
C310   C     0.06810   0.62400   0.56290   0.01267  Uiso   1.00
C311   C     0.80040   0.88820   0.58020   0.01267  Uiso   1.00
C312   C     0.81310   0.94420   0.55890   0.01267  Uiso   1.00
C313   C     0.76400   0.03350   0.51360   0.01267  Uiso   1.00
C314   C     0.71380   0.06450   0.50610   0.01267  Uiso   1.00
C315   C     0.63660   0.05100   0.47350   0.01267  Uiso   1.00
C316   C     0.61480   0.10910   0.46060   0.01267  Uiso   1.00
C317   C     0.60880   0.00970   0.46610   0.01267  Uiso   1.00
C318   C     0.56180   0.01960   0.44470   0.01267  Uiso   1.00
C319   C     0.53960   0.97480   0.43760   0.01267  Uiso   1.00
C320   C     0.56380   0.92200   0.45390   0.01267  Uiso   1.00
C321   C     0.60990   0.91660   0.47530   0.01267  Uiso   1.00
C322   C     0.64250   0.86230   0.49340   0.01267  Uiso   1.00
C323   C     0.62770   0.80860   0.49140   0.01267  Uiso   1.00
C324   C     0.72180   0.81070   0.53230   0.01267  Uiso   1.00
C325   C     0.75090   0.82440   0.56870   0.01267  Uiso   1.00
C326   C     0.00460   0.67360   0.29900   0.01267  Uiso   1.00
C327   C     0.94760   0.70290   0.29400   0.01267  Uiso   1.00
C328   C     0.89690   0.77270   0.23080   0.01267  Uiso   1.00
C329   C     0.90760   0.81820   0.18150   0.01267  Uiso   1.00
C330   C     0.96090   0.88890   0.14960   0.01267  Uiso   1.00
C331   C     0.99870   0.91620   0.16820   0.01267  Uiso   1.00
C332   C     0.08220   0.88370   0.20030   0.01267  Uiso   1.00
C333   C     0.10390   0.93660   0.18420   0.01267  Uiso   1.00
C334   C     0.11762   0.83552   0.22752   0.01267  Uiso   1.00
C335   C     0.16910   0.83440   0.23680   0.01267  Uiso   1.00
C336   C     0.19760   0.78460   0.26230   0.01267  Uiso   1.00
C337   C     0.17520   0.74100   0.27610   0.01267  Uiso   1.00
C338   C     0.12220   0.74400   0.26700   0.01267  Uiso   1.00
C339   C     0.09190   0.69880   0.28490   0.01267  Uiso   1.00
C340   C     0.11950   0.64290   0.30690   0.01267  Uiso   1.00
C341   C     0.96130   0.73070   0.47930   0.01267  Uiso   1.00
C342   C     0.00840   0.73520   0.43550   0.01267  Uiso   1.00
C343   C     0.06670   0.79690   0.38720   0.01267  Uiso   1.00
C344   C     0.07310   0.85680   0.37730   0.01267  Uiso   1.00
C345   C     0.07210   0.91880   0.43600   0.01267  Uiso   1.00
C346   C     0.10090   0.95920   0.39380   0.01267  Uiso   1.00
C347   C     0.05460   0.92950   0.49230   0.01267  Uiso   1.00
C348   C     0.06550   0.97510   0.51170   0.01267  Uiso   1.00
C349   C     0.04930   0.97530   0.56520   0.01267  Uiso   1.00
C350   C     0.02160   0.93820   0.60120   0.01267  Uiso   1.00
C351   C     0.01290   0.89680   0.58050   0.01267  Uiso   1.00
C352   C     0.98550   0.85190   0.61110   0.01267  Uiso   1.00
C353   C     0.97630   0.84860   0.67460   0.01267  Uiso   1.00
C354   C     0.94380   0.77570   0.61260   0.01267  Uiso   1.00
C355   C     0.92570   0.75600   0.57300   0.01267  Uiso   1.00
C356   C     0.38990   0.71620   0.56740   0.01267  Uiso   1.00
C357   C     0.43960   0.69910   0.59240   0.01267  Uiso   1.00
C358   C     0.34196   0.74986   0.59566   0.01267  Uiso   1.00
C359   C     0.33880   0.76520   0.64510   0.01267  Uiso   1.00
C360   C     0.29240   0.79600   0.66520   0.01267  Uiso   1.00
C361   C     0.25000   0.81300   0.63870   0.01267  Uiso   1.00
C362   C     0.25448   0.79788   0.58868   0.01267  Uiso   1.00
C363   C     0.21310   0.81550   0.55280   0.01267  Uiso   1.00
C364   C     0.15640   0.84140   0.57610   0.01267  Uiso   1.00
C365   C     0.19629   0.82189   0.46239   0.01267  Uiso   1.00
C366   C     0.22950   0.81000   0.41020   0.01267  Uiso   1.00
C367   C     0.29880   0.73820   0.36830   0.01267  Uiso   1.00
C368   C     0.33850   0.68850   0.38610   0.01267  Uiso   1.00
C369   C     0.40250   0.65500   0.45040   0.01267  Uiso   1.00
C370   C     0.42760   0.67330   0.48980   0.01267  Uiso   1.00
C371   C     0.32552   0.94312   0.85832   0.01267  Uiso   1.00
C372   C     0.43402   0.91332   0.89542   0.01267  Uiso   1.00
C373   C     0.37320   0.84670   0.84940   0.01267  Uiso   1.00
C374   C     0.40905   0.80555   0.93435   0.01267  Uiso   1.00
C375   C     0.35890   0.85860   0.00690   0.01267  Uiso   1.00
C376   C     0.28265   0.85745   0.94045   0.01267  Uiso   1.00
C377   C     0.32309   0.95499   0.95529   0.01267  Uiso   1.00
C378   C     0.52676   0.10736   0.72516   0.01267  Uiso   1.00
C379   C     0.46030   0.15830   0.66040   0.01267  Uiso   1.00
C380   C     0.53360   0.22680   0.66260   0.01267  Uiso   1.00
C381   C     0.52050   0.18020   0.56540   0.01267  Uiso   1.00
C382   C     0.61702   0.16892   0.58252   0.01267  Uiso   1.00
C383   C     0.61500   0.13100   0.67910   0.01267  Uiso   1.00
C384   C     0.56290   0.06810   0.62400   0.01267  Uiso   1.00
C385   C     0.58020   0.80040   0.88820   0.01267  Uiso   1.00
C386   C     0.55890   0.81310   0.94420   0.01267  Uiso   1.00
C387   C     0.51360   0.76400   0.03350   0.01267  Uiso   1.00
C388   C     0.50610   0.71380   0.06450   0.01267  Uiso   1.00
C389   C     0.47350   0.63660   0.05100   0.01267  Uiso   1.00
C390   C     0.46060   0.61480   0.10910   0.01267  Uiso   1.00
C391   C     0.46610   0.60880   0.00970   0.01267  Uiso   1.00
C392   C     0.44470   0.56180   0.01960   0.01267  Uiso   1.00
C393   C     0.43760   0.53960   0.97480   0.01267  Uiso   1.00
C394   C     0.45390   0.56380   0.92200   0.01267  Uiso   1.00
C395   C     0.47530   0.60990   0.91660   0.01267  Uiso   1.00
C396   C     0.49340   0.64250   0.86230   0.01267  Uiso   1.00
C397   C     0.49140   0.62770   0.80860   0.01267  Uiso   1.00
C398   C     0.53230   0.72180   0.81070   0.01267  Uiso   1.00
C399   C     0.56870   0.75090   0.82440   0.01267  Uiso   1.00
C400   C     0.29900   0.00460   0.67360   0.01267  Uiso   1.00
C401   C     0.29400   0.94760   0.70290   0.01267  Uiso   1.00
C402   C     0.23080   0.89690   0.77270   0.01267  Uiso   1.00
C403   C     0.18150   0.90760   0.81820   0.01267  Uiso   1.00
C404   C     0.14960   0.96090   0.88890   0.01267  Uiso   1.00
C405   C     0.16820   0.99870   0.91620   0.01267  Uiso   1.00
C406   C     0.20030   0.08220   0.88370   0.01267  Uiso   1.00
C407   C     0.18420   0.10390   0.93660   0.01267  Uiso   1.00
C408   C     0.22752   0.11762   0.83552   0.01267  Uiso   1.00
C409   C     0.23680   0.16910   0.83440   0.01267  Uiso   1.00
C410   C     0.26230   0.19760   0.78460   0.01267  Uiso   1.00
C411   C     0.27610   0.17520   0.74100   0.01267  Uiso   1.00
C412   C     0.26700   0.12220   0.74400   0.01267  Uiso   1.00
C413   C     0.28490   0.09190   0.69880   0.01267  Uiso   1.00
C414   C     0.30690   0.11950   0.64290   0.01267  Uiso   1.00
C415   C     0.47930   0.96130   0.73070   0.01267  Uiso   1.00
C416   C     0.43550   0.00840   0.73520   0.01267  Uiso   1.00
C417   C     0.38720   0.06670   0.79690   0.01267  Uiso   1.00
C418   C     0.37730   0.07310   0.85680   0.01267  Uiso   1.00
C419   C     0.43600   0.07210   0.91880   0.01267  Uiso   1.00
C420   C     0.39380   0.10090   0.95920   0.01267  Uiso   1.00
C421   C     0.49230   0.05460   0.92950   0.01267  Uiso   1.00
C422   C     0.51170   0.06550   0.97510   0.01267  Uiso   1.00
C423   C     0.56520   0.04930   0.97530   0.01267  Uiso   1.00
C424   C     0.60120   0.02160   0.93820   0.01267  Uiso   1.00
C425   C     0.58050   0.01290   0.89680   0.01267  Uiso   1.00
C426   C     0.61110   0.98550   0.85190   0.01267  Uiso   1.00
C427   C     0.67460   0.97630   0.84860   0.01267  Uiso   1.00
C428   C     0.61260   0.94380   0.77570   0.01267  Uiso   1.00
C429   C     0.57300   0.92570   0.75600   0.01267  Uiso   1.00
C430   C     0.56740   0.38990   0.71620   0.01267  Uiso   1.00
C431   C     0.59240   0.43960   0.69910   0.01267  Uiso   1.00
C432   C     0.59566   0.34196   0.74986   0.01267  Uiso   1.00
C433   C     0.64510   0.33880   0.76520   0.01267  Uiso   1.00
C434   C     0.66520   0.29240   0.79600   0.01267  Uiso   1.00
C435   C     0.63870   0.25000   0.81300   0.01267  Uiso   1.00
C436   C     0.58868   0.25448   0.79788   0.01267  Uiso   1.00
C437   C     0.55280   0.21310   0.81550   0.01267  Uiso   1.00
C438   C     0.57610   0.15640   0.84140   0.01267  Uiso   1.00
C439   C     0.46239   0.19629   0.82189   0.01267  Uiso   1.00
C440   C     0.41020   0.22950   0.81000   0.01267  Uiso   1.00
C441   C     0.36830   0.29880   0.73820   0.01267  Uiso   1.00
C442   C     0.38610   0.33850   0.68850   0.01267  Uiso   1.00
C443   C     0.45040   0.40250   0.65500   0.01267  Uiso   1.00
C444   C     0.48980   0.42760   0.67330   0.01267  Uiso   1.00
N1     N     0.17516   0.69346   0.02566   0.01267  Uiso   1.00
N2     N     0.12126   0.52716   0.06826   0.01267  Uiso   1.00
N3     N     0.18930   0.61830   0.17200   0.01267  Uiso   1.00
N4     N     0.05946   0.56206   0.23526   0.01267  Uiso   1.00
N5     N     0.94680   0.64510   0.15670   0.01267  Uiso   1.00
N6     N     0.04777   0.76067   0.15367   0.01267  Uiso   1.00
N7     N     0.02519   0.69739   0.00709   0.01267  Uiso   1.00
N8     N     0.23140   0.48340   0.91680   0.01267  Uiso   1.00
N9     N     0.33070   0.58640   0.83150   0.01267  Uiso   1.00
N10    N     0.32627   0.47617   0.73067   0.01267  Uiso   1.00
N11    N     0.47461   0.49381   0.80091   0.01267  Uiso   1.00
N12    N     0.44768   0.34848   0.81618   0.01267  Uiso   1.00
N13    N     0.29930   0.34360   0.87950   0.01267  Uiso   1.00
N14    N     0.38480   0.42500   0.97660   0.01267  Uiso   1.00
N15    N     0.13060   0.45150   0.22530   0.01267  Uiso   1.00
N16    N     0.01750   0.45010   0.23840   0.01267  Uiso   1.00
N17    N     0.96840   0.50630   0.32130   0.01267  Uiso   1.00
N18    N     0.04290   0.51860   0.36860   0.01267  Uiso   1.00
N19    N     0.13880   0.48730   0.31690   0.01267  Uiso   1.00
N20    N     0.26134   0.75904   0.05294   0.01267  Uiso   1.00
N21    N     0.14871   0.80511   0.05971   0.01267  Uiso   1.00
N22    N     0.12447   0.80687   0.96117   0.01267  Uiso   1.00
N23    N     0.20988   0.75718   0.90388   0.01267  Uiso   1.00
N24    N     0.28811   0.71891   0.95821   0.01267  Uiso   1.00
N25    N     0.17780   0.41270   0.02910   0.01267  Uiso   1.00
N26    N     0.10556   0.47376   0.97176   0.01267  Uiso   1.00
N27    N     0.12500   0.57260   0.93940   0.01267  Uiso   1.00
N28    N     0.21069   0.57769   0.98419   0.01267  Uiso   1.00
N29    N     0.25260   0.47200   0.02910   0.01267  Uiso   1.00
N30    N     0.29910   0.57770   0.63030   0.01267  Uiso   1.00
N31    N     0.24434   0.58384   0.73844   0.01267  Uiso   1.00
N32    N     0.19484   0.49544   0.77014   0.01267  Uiso   1.00
N33    N     0.23347   0.43157   0.70007   0.01267  Uiso   1.00
N34    N     0.29537   0.47707   0.61547   0.01267  Uiso   1.00
N35    N     0.02566   0.17516   0.69346   0.01267  Uiso   1.00
N36    N     0.06826   0.12126   0.52716   0.01267  Uiso   1.00
N37    N     0.17200   0.18930   0.61830   0.01267  Uiso   1.00
N38    N     0.23526   0.05946   0.56206   0.01267  Uiso   1.00
N39    N     0.15670   0.94680   0.64510   0.01267  Uiso   1.00
N40    N     0.15367   0.04777   0.76067   0.01267  Uiso   1.00
N41    N     0.00709   0.02519   0.69739   0.01267  Uiso   1.00
N42    N     0.91680   0.23140   0.48340   0.01267  Uiso   1.00
N43    N     0.83150   0.33070   0.58640   0.01267  Uiso   1.00
N44    N     0.73067   0.32627   0.47617   0.01267  Uiso   1.00
N45    N     0.80091   0.47461   0.49381   0.01267  Uiso   1.00
N46    N     0.81618   0.44768   0.34848   0.01267  Uiso   1.00
N47    N     0.87950   0.29930   0.34360   0.01267  Uiso   1.00
N48    N     0.97660   0.38480   0.42500   0.01267  Uiso   1.00
N49    N     0.22530   0.13060   0.45150   0.01267  Uiso   1.00
N50    N     0.23840   0.01750   0.45010   0.01267  Uiso   1.00
N51    N     0.32130   0.96840   0.50630   0.01267  Uiso   1.00
N52    N     0.36860   0.04290   0.51860   0.01267  Uiso   1.00
N53    N     0.31690   0.13880   0.48730   0.01267  Uiso   1.00
N54    N     0.05294   0.26134   0.75904   0.01267  Uiso   1.00
N55    N     0.05971   0.14871   0.80511   0.01267  Uiso   1.00
N56    N     0.96117   0.12447   0.80687   0.01267  Uiso   1.00
N57    N     0.90388   0.20988   0.75718   0.01267  Uiso   1.00
N58    N     0.95821   0.28811   0.71891   0.01267  Uiso   1.00
N59    N     0.02910   0.17780   0.41270   0.01267  Uiso   1.00
N60    N     0.97176   0.10556   0.47376   0.01267  Uiso   1.00
N61    N     0.93940   0.12500   0.57260   0.01267  Uiso   1.00
N62    N     0.98419   0.21069   0.57769   0.01267  Uiso   1.00
N63    N     0.02910   0.25260   0.47200   0.01267  Uiso   1.00
N64    N     0.63030   0.29910   0.57770   0.01267  Uiso   1.00
N65    N     0.73844   0.24434   0.58384   0.01267  Uiso   1.00
N66    N     0.77014   0.19484   0.49544   0.01267  Uiso   1.00
N67    N     0.70007   0.23347   0.43157   0.01267  Uiso   1.00
N68    N     0.61547   0.29537   0.47707   0.01267  Uiso   1.00
N69    N     0.69346   0.02566   0.17516   0.01267  Uiso   1.00
N70    N     0.52716   0.06826   0.12126   0.01267  Uiso   1.00
N71    N     0.61830   0.17200   0.18930   0.01267  Uiso   1.00
N72    N     0.56206   0.23526   0.05946   0.01267  Uiso   1.00
N73    N     0.64510   0.15670   0.94680   0.01267  Uiso   1.00
N74    N     0.76067   0.15367   0.04777   0.01267  Uiso   1.00
N75    N     0.69739   0.00709   0.02519   0.01267  Uiso   1.00
N76    N     0.48340   0.91680   0.23140   0.01267  Uiso   1.00
N77    N     0.58640   0.83150   0.33070   0.01267  Uiso   1.00
N78    N     0.47617   0.73067   0.32627   0.01267  Uiso   1.00
N79    N     0.49381   0.80091   0.47461   0.01267  Uiso   1.00
N80    N     0.34848   0.81618   0.44768   0.01267  Uiso   1.00
N81    N     0.34360   0.87950   0.29930   0.01267  Uiso   1.00
N82    N     0.42500   0.97660   0.38480   0.01267  Uiso   1.00
N83    N     0.45150   0.22530   0.13060   0.01267  Uiso   1.00
N84    N     0.45010   0.23840   0.01750   0.01267  Uiso   1.00
N85    N     0.50630   0.32130   0.96840   0.01267  Uiso   1.00
N86    N     0.51860   0.36860   0.04290   0.01267  Uiso   1.00
N87    N     0.48730   0.31690   0.13880   0.01267  Uiso   1.00
N88    N     0.75904   0.05294   0.26134   0.01267  Uiso   1.00
N89    N     0.80511   0.05971   0.14871   0.01267  Uiso   1.00
N90    N     0.80687   0.96117   0.12447   0.01267  Uiso   1.00
N91    N     0.75718   0.90388   0.20988   0.01267  Uiso   1.00
N92    N     0.71891   0.95821   0.28811   0.01267  Uiso   1.00
N93    N     0.41270   0.02910   0.17780   0.01267  Uiso   1.00
N94    N     0.47376   0.97176   0.10556   0.01267  Uiso   1.00
N95    N     0.57260   0.93940   0.12500   0.01267  Uiso   1.00
N96    N     0.57769   0.98419   0.21069   0.01267  Uiso   1.00
N97    N     0.47200   0.02910   0.25260   0.01267  Uiso   1.00
N98    N     0.57770   0.63030   0.29910   0.01267  Uiso   1.00
N99    N     0.58384   0.73844   0.24434   0.01267  Uiso   1.00
N100   N     0.49544   0.77014   0.19484   0.01267  Uiso   1.00
N101   N     0.43157   0.70007   0.23347   0.01267  Uiso   1.00
N102   N     0.47707   0.61547   0.29537   0.01267  Uiso   1.00
N103   N     0.82484   0.30654   0.97434   0.01267  Uiso   1.00
N104   N     0.87874   0.47284   0.93174   0.01267  Uiso   1.00
N105   N     0.81070   0.38170   0.82800   0.01267  Uiso   1.00
N106   N     0.94054   0.43794   0.76474   0.01267  Uiso   1.00
N107   N     0.05320   0.35490   0.84330   0.01267  Uiso   1.00
N108   N     0.95223   0.23933   0.84633   0.01267  Uiso   1.00
N109   N     0.97481   0.30261   0.99291   0.01267  Uiso   1.00
N110   N     0.76860   0.51660   0.08320   0.01267  Uiso   1.00
N111   N     0.66930   0.41360   0.16850   0.01267  Uiso   1.00
N112   N     0.67373   0.52383   0.26933   0.01267  Uiso   1.00
N113   N     0.52539   0.50619   0.19909   0.01267  Uiso   1.00
N114   N     0.55232   0.65152   0.18382   0.01267  Uiso   1.00
N115   N     0.70070   0.65640   0.12050   0.01267  Uiso   1.00
N116   N     0.61520   0.57500   0.02340   0.01267  Uiso   1.00
N117   N     0.86940   0.54850   0.77470   0.01267  Uiso   1.00
N118   N     0.98250   0.54990   0.76160   0.01267  Uiso   1.00
N119   N     0.03160   0.49370   0.67870   0.01267  Uiso   1.00
N120   N     0.95710   0.48140   0.63140   0.01267  Uiso   1.00
N121   N     0.86120   0.51270   0.68310   0.01267  Uiso   1.00
N122   N     0.73866   0.24096   0.94706   0.01267  Uiso   1.00
N123   N     0.85129   0.19489   0.94029   0.01267  Uiso   1.00
N124   N     0.87553   0.19313   0.03883   0.01267  Uiso   1.00
N125   N     0.79012   0.24282   0.09612   0.01267  Uiso   1.00
N126   N     0.71189   0.28109   0.04179   0.01267  Uiso   1.00
N127   N     0.82220   0.58730   0.97090   0.01267  Uiso   1.00
N128   N     0.89444   0.52624   0.02824   0.01267  Uiso   1.00
N129   N     0.87500   0.42740   0.06060   0.01267  Uiso   1.00
N130   N     0.78931   0.42231   0.01581   0.01267  Uiso   1.00
N131   N     0.74740   0.52800   0.97090   0.01267  Uiso   1.00
N132   N     0.70090   0.42230   0.36970   0.01267  Uiso   1.00
N133   N     0.75566   0.41616   0.26156   0.01267  Uiso   1.00
N134   N     0.80516   0.50456   0.22986   0.01267  Uiso   1.00
N135   N     0.76653   0.56843   0.29993   0.01267  Uiso   1.00
N136   N     0.70463   0.52293   0.38453   0.01267  Uiso   1.00
N137   N     0.97434   0.82484   0.30654   0.01267  Uiso   1.00
N138   N     0.93174   0.87874   0.47284   0.01267  Uiso   1.00
N139   N     0.82800   0.81070   0.38170   0.01267  Uiso   1.00
N140   N     0.76474   0.94054   0.43794   0.01267  Uiso   1.00
N141   N     0.84330   0.05320   0.35490   0.01267  Uiso   1.00
N142   N     0.84633   0.95223   0.23933   0.01267  Uiso   1.00
N143   N     0.99291   0.97481   0.30261   0.01267  Uiso   1.00
N144   N     0.08320   0.76860   0.51660   0.01267  Uiso   1.00
N145   N     0.16850   0.66930   0.41360   0.01267  Uiso   1.00
N146   N     0.26933   0.67373   0.52383   0.01267  Uiso   1.00
N147   N     0.19909   0.52539   0.50619   0.01267  Uiso   1.00
N148   N     0.18382   0.55232   0.65152   0.01267  Uiso   1.00
N149   N     0.12050   0.70070   0.65640   0.01267  Uiso   1.00
N150   N     0.02340   0.61520   0.57500   0.01267  Uiso   1.00
N151   N     0.77470   0.86940   0.54850   0.01267  Uiso   1.00
N152   N     0.76160   0.98250   0.54990   0.01267  Uiso   1.00
N153   N     0.67870   0.03160   0.49370   0.01267  Uiso   1.00
N154   N     0.63140   0.95710   0.48140   0.01267  Uiso   1.00
N155   N     0.68310   0.86120   0.51270   0.01267  Uiso   1.00
N156   N     0.94706   0.73866   0.24096   0.01267  Uiso   1.00
N157   N     0.94029   0.85129   0.19489   0.01267  Uiso   1.00
N158   N     0.03883   0.87553   0.19313   0.01267  Uiso   1.00
N159   N     0.09612   0.79012   0.24282   0.01267  Uiso   1.00
N160   N     0.04179   0.71189   0.28109   0.01267  Uiso   1.00
N161   N     0.97090   0.82220   0.58730   0.01267  Uiso   1.00
N162   N     0.02824   0.89444   0.52624   0.01267  Uiso   1.00
N163   N     0.06060   0.87500   0.42740   0.01267  Uiso   1.00
N164   N     0.01581   0.78931   0.42231   0.01267  Uiso   1.00
N165   N     0.97090   0.74740   0.52800   0.01267  Uiso   1.00
N166   N     0.36970   0.70090   0.42230   0.01267  Uiso   1.00
N167   N     0.26156   0.75566   0.41616   0.01267  Uiso   1.00
N168   N     0.22986   0.80516   0.50456   0.01267  Uiso   1.00
N169   N     0.29993   0.76653   0.56843   0.01267  Uiso   1.00
N170   N     0.38453   0.70463   0.52293   0.01267  Uiso   1.00
N171   N     0.30654   0.97434   0.82484   0.01267  Uiso   1.00
N172   N     0.47284   0.93174   0.87874   0.01267  Uiso   1.00
N173   N     0.38170   0.82800   0.81070   0.01267  Uiso   1.00
N174   N     0.43794   0.76474   0.94054   0.01267  Uiso   1.00
N175   N     0.35490   0.84330   0.05320   0.01267  Uiso   1.00
N176   N     0.23933   0.84633   0.95223   0.01267  Uiso   1.00
N177   N     0.30261   0.99291   0.97481   0.01267  Uiso   1.00
N178   N     0.51660   0.08320   0.76860   0.01267  Uiso   1.00
N179   N     0.41360   0.16850   0.66930   0.01267  Uiso   1.00
N180   N     0.52383   0.26933   0.67373   0.01267  Uiso   1.00
N181   N     0.50619   0.19909   0.52539   0.01267  Uiso   1.00
N182   N     0.65152   0.18382   0.55232   0.01267  Uiso   1.00
N183   N     0.65640   0.12050   0.70070   0.01267  Uiso   1.00
N184   N     0.57500   0.02340   0.61520   0.01267  Uiso   1.00
N185   N     0.54850   0.77470   0.86940   0.01267  Uiso   1.00
N186   N     0.54990   0.76160   0.98250   0.01267  Uiso   1.00
N187   N     0.49370   0.67870   0.03160   0.01267  Uiso   1.00
N188   N     0.48140   0.63140   0.95710   0.01267  Uiso   1.00
N189   N     0.51270   0.68310   0.86120   0.01267  Uiso   1.00
N190   N     0.24096   0.94706   0.73866   0.01267  Uiso   1.00
N191   N     0.19489   0.94029   0.85129   0.01267  Uiso   1.00
N192   N     0.19313   0.03883   0.87553   0.01267  Uiso   1.00
N193   N     0.24282   0.09612   0.79012   0.01267  Uiso   1.00
N194   N     0.28109   0.04179   0.71189   0.01267  Uiso   1.00
N195   N     0.58730   0.97090   0.82220   0.01267  Uiso   1.00
N196   N     0.52624   0.02824   0.89444   0.01267  Uiso   1.00
N197   N     0.42740   0.06060   0.87500   0.01267  Uiso   1.00
N198   N     0.42231   0.01581   0.78931   0.01267  Uiso   1.00
N199   N     0.52800   0.97090   0.74740   0.01267  Uiso   1.00
N200   N     0.42230   0.36970   0.70090   0.01267  Uiso   1.00
N201   N     0.41616   0.26156   0.75566   0.01267  Uiso   1.00
N202   N     0.50456   0.22986   0.80516   0.01267  Uiso   1.00
N203   N     0.56843   0.29993   0.76653   0.01267  Uiso   1.00
N204   N     0.52293   0.38453   0.70463   0.01267  Uiso   1.00
O1     O     0.06440   0.39950   0.34500   0.01267  Uiso   1.00
O2     O     0.34500   0.06440   0.39950   0.01267  Uiso   1.00
O3     O     0.39950   0.34500   0.06440   0.01267  Uiso   1.00
O4     O     0.93560   0.60050   0.65500   0.01267  Uiso   1.00
O5     O     0.65500   0.93560   0.60050   0.01267  Uiso   1.00
O6     O     0.60050   0.65500   0.93560   0.01267  Uiso   1.00
