data_image0
_cell_length_a       25.384
_cell_length_b       25.384
_cell_length_c       25.384
_cell_angle_alpha    90
_cell_angle_beta     90
_cell_angle_gamma    90

_symmetry_space_group_name_H-M    "P 1"
_symmetry_int_tables_number       1

loop_
  _symmetry_equiv_pos_as_xyz
  'x, y, z'

loop_
  _atom_site_label
  _atom_site_occupancy
  _atom_site_fract_x
  _atom_site_fract_y
  _atom_site_fract_z
  _atom_site_thermal_displace_type
  _atom_site_B_iso_or_equiv
  _atom_site_type_symbol
  O1       1.0000 0.18310  0.18890  0.09800  Biso   1.000  O
  O2       1.0000 0.18780  0.22980  0.82770  Biso   1.000  O
  O3       1.0000 0.23680  0.30210  0.84400  Biso   1.000  O
  O4       1.0000 0.26620  0.24510  0.10320  Biso   1.000  O
  C1       1.0000 0.18360  0.19640  0.99000  Biso   1.000  C
  H1       1.0000 0.16180  0.17100  0.00490  Biso   1.000  H
  C2       1.0000 0.25100  0.27220  0.00320  Biso   1.000  C
  H2       1.0000 0.27080  0.29400  0.02500  Biso   1.000  H
  C3       1.0000 0.21180  0.26090  0.85600  Biso   1.000  C
  C4       1.0000 0.22040  0.22870  0.02120  Biso   1.000  C
  C5       1.0000 0.22190  0.22270  0.08060  Biso   1.000  C
  C6       1.0000 0.21300  0.24640  0.91550  Biso   1.000  C
  C7       1.0000 0.24730  0.27800  0.94540  Biso   1.000  C
  H3       1.0000 0.26810  0.30310  0.92850  Biso   1.000  H
  C8       1.0000 0.18460  0.20730  0.93660  Biso   1.000  C
  N1       1.0000 0.15830  0.16790  0.90650  Biso   1.000  N
  H4       1.0000 0.14390  0.18320  0.87990  Biso   1.000  H
  O5       1.0000 0.16760  0.08800  0.94370  Biso   1.000  O
  C9       1.0000 0.09750  0.11720  0.82340  Biso   1.000  C
  H5       1.0000 0.10360  0.15330  0.82210  Biso   1.000  H
  C10      1.0000 0.11810  0.09220  0.86470  Biso   1.000  C
  C11      1.0000 0.12100  0.04060  0.88100  Biso   1.000  C
  H6       1.0000 0.13820  0.02580  0.91020  Biso   1.000  H
  C12      1.0000 0.06830  0.09680  0.78230  Biso   1.000  C
  H7       1.0000 0.05190  0.11160  0.75310  Biso   1.000  H
  C13      1.0000 0.09220  0.01800  0.84300  Biso   1.000  C
  H8       1.0000 0.08520  0.98250  0.84460  Biso   1.000  H
  C14      1.0000 0.07250  0.04700  0.80100  Biso   1.000  C
  C15      1.0000 0.14710  0.11600  0.90330  Biso   1.000  C
  Zn1      1.0000 0.25066  0.17647  0.27217  Biso   1.000  Zn
  O6       1.0000 0.31690  0.81110  0.59800  Biso   1.000  O
  O7       1.0000 0.31220  0.77020  0.32770  Biso   1.000  O
  O8       1.0000 0.26320  0.69790  0.34400  Biso   1.000  O
  O9       1.0000 0.23380  0.75490  0.60320  Biso   1.000  O
  C16      1.0000 0.31640  0.80360  0.49000  Biso   1.000  C
  H9       1.0000 0.33820  0.82900  0.50490  Biso   1.000  H
  C17      1.0000 0.24900  0.72780  0.50320  Biso   1.000  C
  H10      1.0000 0.22920  0.70600  0.52500  Biso   1.000  H
  C18      1.0000 0.28820  0.73910  0.35600  Biso   1.000  C
  C19      1.0000 0.27960  0.77130  0.52120  Biso   1.000  C
  C20      1.0000 0.27810  0.77730  0.58060  Biso   1.000  C
  C21      1.0000 0.28700  0.75360  0.41550  Biso   1.000  C
  C22      1.0000 0.25270  0.72200  0.44540  Biso   1.000  C
  H11      1.0000 0.23190  0.69690  0.42850  Biso   1.000  H
  C23      1.0000 0.31540  0.79270  0.43660  Biso   1.000  C
  N2       1.0000 0.34170  0.83210  0.40650  Biso   1.000  N
  H12      1.0000 0.35610  0.81680  0.37990  Biso   1.000  H
  O10      1.0000 0.33240  0.91200  0.44370  Biso   1.000  O
  C24      1.0000 0.40250  0.88280  0.32340  Biso   1.000  C
  H13      1.0000 0.39640  0.84670  0.32210  Biso   1.000  H
  C25      1.0000 0.38190  0.90780  0.36470  Biso   1.000  C
  C26      1.0000 0.37900  0.95940  0.38100  Biso   1.000  C
  H14      1.0000 0.36180  0.97420  0.41020  Biso   1.000  H
  C27      1.0000 0.43170  0.90320  0.28230  Biso   1.000  C
  H15      1.0000 0.44810  0.88840  0.25310  Biso   1.000  H
  C28      1.0000 0.40780  0.98200  0.34300  Biso   1.000  C
  H16      1.0000 0.41480  0.01750  0.34460  Biso   1.000  H
  C29      1.0000 0.42750  0.95300  0.30100  Biso   1.000  C
  C30      1.0000 0.35290  0.88400  0.40330  Biso   1.000  C
  Zn2      1.0000 0.24934  0.82353  0.77217  Biso   1.000  Zn
  O11      1.0000 0.81690  0.68890  0.40200  Biso   1.000  O
  O12      1.0000 0.81220  0.72980  0.67230  Biso   1.000  O
  O13      1.0000 0.76320  0.80210  0.65600  Biso   1.000  O
  O14      1.0000 0.73380  0.74510  0.39680  Biso   1.000  O
  C31      1.0000 0.81640  0.69640  0.51000  Biso   1.000  C
  H17      1.0000 0.83820  0.67100  0.49510  Biso   1.000  H
  C32      1.0000 0.74900  0.77220  0.49680  Biso   1.000  C
  H18      1.0000 0.72920  0.79400  0.47500  Biso   1.000  H
  C33      1.0000 0.78820  0.76090  0.64400  Biso   1.000  C
  C34      1.0000 0.77960  0.72870  0.47880  Biso   1.000  C
  C35      1.0000 0.77810  0.72270  0.41940  Biso   1.000  C
  C36      1.0000 0.78700  0.74640  0.58450  Biso   1.000  C
  C37      1.0000 0.75270  0.77800  0.55460  Biso   1.000  C
  H19      1.0000 0.73190  0.80310  0.57150  Biso   1.000  H
  C38      1.0000 0.81540  0.70730  0.56340  Biso   1.000  C
  N3       1.0000 0.84170  0.66790  0.59350  Biso   1.000  N
  H20      1.0000 0.85610  0.68320  0.62010  Biso   1.000  H
  O15      1.0000 0.83240  0.58800  0.55630  Biso   1.000  O
  C39      1.0000 0.90250  0.61720  0.67660  Biso   1.000  C
  H21      1.0000 0.89640  0.65330  0.67790  Biso   1.000  H
  C40      1.0000 0.88190  0.59220  0.63530  Biso   1.000  C
  C41      1.0000 0.87900  0.54060  0.61900  Biso   1.000  C
  H22      1.0000 0.86180  0.52580  0.58980  Biso   1.000  H
  C42      1.0000 0.93170  0.59680  0.71770  Biso   1.000  C
  H23      1.0000 0.94810  0.61160  0.74690  Biso   1.000  H
  C43      1.0000 0.90780  0.51800  0.65700  Biso   1.000  C
  H24      1.0000 0.91480  0.48250  0.65540  Biso   1.000  H
  C44      1.0000 0.92750  0.54700  0.69900  Biso   1.000  C
  C45      1.0000 0.85290  0.61600  0.59670  Biso   1.000  C
  Zn3      1.0000 0.74934  0.67647  0.22783  Biso   1.000  Zn
  O16      1.0000 0.68310  0.31110  0.90200  Biso   1.000  O
  O17      1.0000 0.68780  0.27020  0.17230  Biso   1.000  O
  O18      1.0000 0.73680  0.19790  0.15600  Biso   1.000  O
  O19      1.0000 0.76620  0.25490  0.89680  Biso   1.000  O
  C46      1.0000 0.68360  0.30360  0.01000  Biso   1.000  C
  H25      1.0000 0.66180  0.32900  0.99510  Biso   1.000  H
  C47      1.0000 0.75100  0.22780  0.99680  Biso   1.000  C
  H26      1.0000 0.77080  0.20600  0.97500  Biso   1.000  H
  C48      1.0000 0.71180  0.23910  0.14400  Biso   1.000  C
  C49      1.0000 0.72040  0.27130  0.97880  Biso   1.000  C
  C50      1.0000 0.72190  0.27730  0.91940  Biso   1.000  C
  C51      1.0000 0.71300  0.25360  0.08450  Biso   1.000  C
  C52      1.0000 0.74730  0.22200  0.05460  Biso   1.000  C
  H27      1.0000 0.76810  0.19690  0.07150  Biso   1.000  H
  C53      1.0000 0.68460  0.29270  0.06340  Biso   1.000  C
  N4       1.0000 0.65830  0.33210  0.09350  Biso   1.000  N
  H28      1.0000 0.64390  0.31680  0.12010  Biso   1.000  H
  O20      1.0000 0.66760  0.41200  0.05630  Biso   1.000  O
  C54      1.0000 0.59750  0.38280  0.17660  Biso   1.000  C
  H29      1.0000 0.60360  0.34670  0.17790  Biso   1.000  H
  C55      1.0000 0.61810  0.40780  0.13530  Biso   1.000  C
  C56      1.0000 0.62100  0.45940  0.11900  Biso   1.000  C
  H30      1.0000 0.63820  0.47420  0.08980  Biso   1.000  H
  C57      1.0000 0.56830  0.40320  0.21770  Biso   1.000  C
  H31      1.0000 0.55190  0.38840  0.24690  Biso   1.000  H
  C58      1.0000 0.59220  0.48200  0.15700  Biso   1.000  C
  H32      1.0000 0.58520  0.51750  0.15540  Biso   1.000  H
  C59      1.0000 0.57250  0.45300  0.19900  Biso   1.000  C
  C60      1.0000 0.64710  0.38400  0.09670  Biso   1.000  C
  Zn4      1.0000 0.75066  0.32353  0.72783  Biso   1.000  Zn
  O21      1.0000 0.09800  0.18310  0.18890  Biso   1.000  O
  O22      1.0000 0.82770  0.18780  0.22980  Biso   1.000  O
  O23      1.0000 0.84400  0.23680  0.30210  Biso   1.000  O
  O24      1.0000 0.10320  0.26620  0.24510  Biso   1.000  O
  C61      1.0000 0.99000  0.18360  0.19640  Biso   1.000  C
  H33      1.0000 0.00490  0.16180  0.17100  Biso   1.000  H
  C62      1.0000 0.00320  0.25100  0.27220  Biso   1.000  C
  H34      1.0000 0.02500  0.27080  0.29400  Biso   1.000  H
  C63      1.0000 0.85600  0.21180  0.26090  Biso   1.000  C
  C64      1.0000 0.02120  0.22040  0.22870  Biso   1.000  C
  C65      1.0000 0.08060  0.22190  0.22270  Biso   1.000  C
  C66      1.0000 0.91550  0.21300  0.24640  Biso   1.000  C
  C67      1.0000 0.94540  0.24730  0.27800  Biso   1.000  C
  H35      1.0000 0.92850  0.26810  0.30310  Biso   1.000  H
  C68      1.0000 0.93660  0.18460  0.20730  Biso   1.000  C
  N5       1.0000 0.90650  0.15830  0.16790  Biso   1.000  N
  H36      1.0000 0.87990  0.14390  0.18320  Biso   1.000  H
  O25      1.0000 0.94370  0.16760  0.08800  Biso   1.000  O
  C69      1.0000 0.82340  0.09750  0.11720  Biso   1.000  C
  H37      1.0000 0.82210  0.10360  0.15330  Biso   1.000  H
  C70      1.0000 0.86470  0.11810  0.09220  Biso   1.000  C
  C71      1.0000 0.88100  0.12100  0.04060  Biso   1.000  C
  H38      1.0000 0.91020  0.13820  0.02580  Biso   1.000  H
  C72      1.0000 0.78230  0.06830  0.09680  Biso   1.000  C
  H39      1.0000 0.75310  0.05190  0.11160  Biso   1.000  H
  C73      1.0000 0.84300  0.09220  0.01800  Biso   1.000  C
  H40      1.0000 0.84460  0.08520  0.98250  Biso   1.000  H
  C74      1.0000 0.80100  0.07250  0.04700  Biso   1.000  C
  C75      1.0000 0.90330  0.14710  0.11600  Biso   1.000  C
  Zn5      1.0000 0.27217  0.25066  0.17647  Biso   1.000  Zn
  O26      1.0000 0.59800  0.31690  0.81110  Biso   1.000  O
  O27      1.0000 0.32770  0.31220  0.77020  Biso   1.000  O
  O28      1.0000 0.34400  0.26320  0.69790  Biso   1.000  O
  O29      1.0000 0.60320  0.23380  0.75490  Biso   1.000  O
  C76      1.0000 0.49000  0.31640  0.80360  Biso   1.000  C
  H41      1.0000 0.50490  0.33820  0.82900  Biso   1.000  H
  C77      1.0000 0.50320  0.24900  0.72780  Biso   1.000  C
  H42      1.0000 0.52500  0.22920  0.70600  Biso   1.000  H
  C78      1.0000 0.35600  0.28820  0.73910  Biso   1.000  C
  C79      1.0000 0.52120  0.27960  0.77130  Biso   1.000  C
  C80      1.0000 0.58060  0.27810  0.77730  Biso   1.000  C
  C81      1.0000 0.41550  0.28700  0.75360  Biso   1.000  C
  C82      1.0000 0.44540  0.25270  0.72200  Biso   1.000  C
  H43      1.0000 0.42850  0.23190  0.69690  Biso   1.000  H
  C83      1.0000 0.43660  0.31540  0.79270  Biso   1.000  C
  N6       1.0000 0.40650  0.34170  0.83210  Biso   1.000  N
  H44      1.0000 0.37990  0.35610  0.81680  Biso   1.000  H
  O30      1.0000 0.44370  0.33240  0.91200  Biso   1.000  O
  C84      1.0000 0.32340  0.40250  0.88280  Biso   1.000  C
  H45      1.0000 0.32210  0.39640  0.84670  Biso   1.000  H
  C85      1.0000 0.36470  0.38190  0.90780  Biso   1.000  C
  C86      1.0000 0.38100  0.37900  0.95940  Biso   1.000  C
  H46      1.0000 0.41020  0.36180  0.97420  Biso   1.000  H
  C87      1.0000 0.28230  0.43170  0.90320  Biso   1.000  C
  H47      1.0000 0.25310  0.44810  0.88840  Biso   1.000  H
  C88      1.0000 0.34300  0.40780  0.98200  Biso   1.000  C
  H48      1.0000 0.34460  0.41480  0.01750  Biso   1.000  H
  C89      1.0000 0.30100  0.42750  0.95300  Biso   1.000  C
  C90      1.0000 0.40330  0.35290  0.88400  Biso   1.000  C
  Zn6      1.0000 0.77217  0.24934  0.82353  Biso   1.000  Zn
  O31      1.0000 0.40200  0.81690  0.68890  Biso   1.000  O
  O32      1.0000 0.67230  0.81220  0.72980  Biso   1.000  O
  O33      1.0000 0.65600  0.76320  0.80210  Biso   1.000  O
  O34      1.0000 0.39680  0.73380  0.74510  Biso   1.000  O
  C91      1.0000 0.51000  0.81640  0.69640  Biso   1.000  C
  H49      1.0000 0.49510  0.83820  0.67100  Biso   1.000  H
  C92      1.0000 0.49680  0.74900  0.77220  Biso   1.000  C
  H50      1.0000 0.47500  0.72920  0.79400  Biso   1.000  H
  C93      1.0000 0.64400  0.78820  0.76090  Biso   1.000  C
  C94      1.0000 0.47880  0.77960  0.72870  Biso   1.000  C
  C95      1.0000 0.41940  0.77810  0.72270  Biso   1.000  C
  C96      1.0000 0.58450  0.78700  0.74640  Biso   1.000  C
  C97      1.0000 0.55460  0.75270  0.77800  Biso   1.000  C
  H51      1.0000 0.57150  0.73190  0.80310  Biso   1.000  H
  C98      1.0000 0.56340  0.81540  0.70730  Biso   1.000  C
  N7       1.0000 0.59350  0.84170  0.66790  Biso   1.000  N
  H52      1.0000 0.62010  0.85610  0.68320  Biso   1.000  H
  O35      1.0000 0.55630  0.83240  0.58800  Biso   1.000  O
  C99      1.0000 0.67660  0.90250  0.61720  Biso   1.000  C
  H53      1.0000 0.67790  0.89640  0.65330  Biso   1.000  H
  C100     1.0000 0.63530  0.88190  0.59220  Biso   1.000  C
  C101     1.0000 0.61900  0.87900  0.54060  Biso   1.000  C
  H54      1.0000 0.58980  0.86180  0.52580  Biso   1.000  H
  C102     1.0000 0.71770  0.93170  0.59680  Biso   1.000  C
  H55      1.0000 0.74690  0.94810  0.61160  Biso   1.000  H
  C103     1.0000 0.65700  0.90780  0.51800  Biso   1.000  C
  H56      1.0000 0.65540  0.91480  0.48250  Biso   1.000  H
  C104     1.0000 0.69900  0.92750  0.54700  Biso   1.000  C
  C105     1.0000 0.59670  0.85290  0.61600  Biso   1.000  C
  Zn7      1.0000 0.22783  0.74934  0.67647  Biso   1.000  Zn
  O36      1.0000 0.90200  0.68310  0.31110  Biso   1.000  O
  O37      1.0000 0.17230  0.68780  0.27020  Biso   1.000  O
  O38      1.0000 0.15600  0.73680  0.19790  Biso   1.000  O
  O39      1.0000 0.89680  0.76620  0.25490  Biso   1.000  O
  C106     1.0000 0.01000  0.68360  0.30360  Biso   1.000  C
  H57      1.0000 0.99510  0.66180  0.32900  Biso   1.000  H
  C107     1.0000 0.99680  0.75100  0.22780  Biso   1.000  C
  H58      1.0000 0.97500  0.77080  0.20600  Biso   1.000  H
  C108     1.0000 0.14400  0.71180  0.23910  Biso   1.000  C
  C109     1.0000 0.97880  0.72040  0.27130  Biso   1.000  C
  C110     1.0000 0.91940  0.72190  0.27730  Biso   1.000  C
  C111     1.0000 0.08450  0.71300  0.25360  Biso   1.000  C
  C112     1.0000 0.05460  0.74730  0.22200  Biso   1.000  C
  H59      1.0000 0.07150  0.76810  0.19690  Biso   1.000  H
  C113     1.0000 0.06340  0.68460  0.29270  Biso   1.000  C
  N8       1.0000 0.09350  0.65830  0.33210  Biso   1.000  N
  H60      1.0000 0.12010  0.64390  0.31680  Biso   1.000  H
  O40      1.0000 0.05630  0.66760  0.41200  Biso   1.000  O
  C114     1.0000 0.17660  0.59750  0.38280  Biso   1.000  C
  H61      1.0000 0.17790  0.60360  0.34670  Biso   1.000  H
  C115     1.0000 0.13530  0.61810  0.40780  Biso   1.000  C
  C116     1.0000 0.11900  0.62100  0.45940  Biso   1.000  C
  H62      1.0000 0.08980  0.63820  0.47420  Biso   1.000  H
  C117     1.0000 0.21770  0.56830  0.40320  Biso   1.000  C
  H63      1.0000 0.24690  0.55190  0.38840  Biso   1.000  H
  C118     1.0000 0.15700  0.59220  0.48200  Biso   1.000  C
  H64      1.0000 0.15540  0.58520  0.51750  Biso   1.000  H
  C119     1.0000 0.19900  0.57250  0.45300  Biso   1.000  C
  C120     1.0000 0.09670  0.64710  0.38400  Biso   1.000  C
  Zn8      1.0000 0.72783  0.75066  0.32353  Biso   1.000  Zn
  O41      1.0000 0.18890  0.09800  0.18310  Biso   1.000  O
  O42      1.0000 0.22980  0.82770  0.18780  Biso   1.000  O
  O43      1.0000 0.30210  0.84400  0.23680  Biso   1.000  O
  O44      1.0000 0.24510  0.10320  0.26620  Biso   1.000  O
  C121     1.0000 0.19640  0.99000  0.18360  Biso   1.000  C
  H65      1.0000 0.17100  0.00490  0.16180  Biso   1.000  H
  C122     1.0000 0.27220  0.00320  0.25100  Biso   1.000  C
  H66      1.0000 0.29400  0.02500  0.27080  Biso   1.000  H
  C123     1.0000 0.26090  0.85600  0.21180  Biso   1.000  C
  C124     1.0000 0.22870  0.02120  0.22040  Biso   1.000  C
  C125     1.0000 0.22270  0.08060  0.22190  Biso   1.000  C
  C126     1.0000 0.24640  0.91550  0.21300  Biso   1.000  C
  C127     1.0000 0.27800  0.94540  0.24730  Biso   1.000  C
  H67      1.0000 0.30310  0.92850  0.26810  Biso   1.000  H
  C128     1.0000 0.20730  0.93660  0.18460  Biso   1.000  C
  N9       1.0000 0.16790  0.90650  0.15830  Biso   1.000  N
  H68      1.0000 0.18320  0.87990  0.14390  Biso   1.000  H
  O45      1.0000 0.08800  0.94370  0.16760  Biso   1.000  O
  C129     1.0000 0.11720  0.82340  0.09750  Biso   1.000  C
  H69      1.0000 0.15330  0.82210  0.10360  Biso   1.000  H
  C130     1.0000 0.09220  0.86470  0.11810  Biso   1.000  C
  C131     1.0000 0.04060  0.88100  0.12100  Biso   1.000  C
  H70      1.0000 0.02580  0.91020  0.13820  Biso   1.000  H
  C132     1.0000 0.09680  0.78230  0.06830  Biso   1.000  C
  H71      1.0000 0.11160  0.75310  0.05190  Biso   1.000  H
  C133     1.0000 0.01800  0.84300  0.09220  Biso   1.000  C
  H72      1.0000 0.98250  0.84460  0.08520  Biso   1.000  H
  C134     1.0000 0.04700  0.80100  0.07250  Biso   1.000  C
  C135     1.0000 0.11600  0.90330  0.14710  Biso   1.000  C
  Zn9      1.0000 0.17647  0.27217  0.25066  Biso   1.000  Zn
  O46      1.0000 0.81110  0.59800  0.31690  Biso   1.000  O
  O47      1.0000 0.77020  0.32770  0.31220  Biso   1.000  O
  O48      1.0000 0.69790  0.34400  0.26320  Biso   1.000  O
  O49      1.0000 0.75490  0.60320  0.23380  Biso   1.000  O
  C136     1.0000 0.80360  0.49000  0.31640  Biso   1.000  C
  H73      1.0000 0.82900  0.50490  0.33820  Biso   1.000  H
  C137     1.0000 0.72780  0.50320  0.24900  Biso   1.000  C
  H74      1.0000 0.70600  0.52500  0.22920  Biso   1.000  H
  C138     1.0000 0.73910  0.35600  0.28820  Biso   1.000  C
  C139     1.0000 0.77130  0.52120  0.27960  Biso   1.000  C
  C140     1.0000 0.77730  0.58060  0.27810  Biso   1.000  C
  C141     1.0000 0.75360  0.41550  0.28700  Biso   1.000  C
  C142     1.0000 0.72200  0.44540  0.25270  Biso   1.000  C
  H75      1.0000 0.69690  0.42850  0.23190  Biso   1.000  H
  C143     1.0000 0.79270  0.43660  0.31540  Biso   1.000  C
  N10      1.0000 0.83210  0.40650  0.34170  Biso   1.000  N
  H76      1.0000 0.81680  0.37990  0.35610  Biso   1.000  H
  O50      1.0000 0.91200  0.44370  0.33240  Biso   1.000  O
  C144     1.0000 0.88280  0.32340  0.40250  Biso   1.000  C
  H77      1.0000 0.84670  0.32210  0.39640  Biso   1.000  H
  C145     1.0000 0.90780  0.36470  0.38190  Biso   1.000  C
  C146     1.0000 0.95940  0.38100  0.37900  Biso   1.000  C
  H78      1.0000 0.97420  0.41020  0.36180  Biso   1.000  H
  C147     1.0000 0.90320  0.28230  0.43170  Biso   1.000  C
  H79      1.0000 0.88840  0.25310  0.44810  Biso   1.000  H
  C148     1.0000 0.98200  0.34300  0.40780  Biso   1.000  C
  H80      1.0000 0.01750  0.34460  0.41480  Biso   1.000  H
  C149     1.0000 0.95300  0.30100  0.42750  Biso   1.000  C
  C150     1.0000 0.88400  0.40330  0.35290  Biso   1.000  C
  Zn10     1.0000 0.82353  0.77217  0.24934  Biso   1.000  Zn
  O51      1.0000 0.68890  0.40200  0.81690  Biso   1.000  O
  O52      1.0000 0.72980  0.67230  0.81220  Biso   1.000  O
  O53      1.0000 0.80210  0.65600  0.76320  Biso   1.000  O
  O54      1.0000 0.74510  0.39680  0.73380  Biso   1.000  O
  C151     1.0000 0.69640  0.51000  0.81640  Biso   1.000  C
  H81      1.0000 0.67100  0.49510  0.83820  Biso   1.000  H
  C152     1.0000 0.77220  0.49680  0.74900  Biso   1.000  C
  H82      1.0000 0.79400  0.47500  0.72920  Biso   1.000  H
  C153     1.0000 0.76090  0.64400  0.78820  Biso   1.000  C
  C154     1.0000 0.72870  0.47880  0.77960  Biso   1.000  C
  C155     1.0000 0.72270  0.41940  0.77810  Biso   1.000  C
  C156     1.0000 0.74640  0.58450  0.78700  Biso   1.000  C
  C157     1.0000 0.77800  0.55460  0.75270  Biso   1.000  C
  H83      1.0000 0.80310  0.57150  0.73190  Biso   1.000  H
  C158     1.0000 0.70730  0.56340  0.81540  Biso   1.000  C
  N11      1.0000 0.66790  0.59350  0.84170  Biso   1.000  N
  H84      1.0000 0.68320  0.62010  0.85610  Biso   1.000  H
  O55      1.0000 0.58800  0.55630  0.83240  Biso   1.000  O
  C159     1.0000 0.61720  0.67660  0.90250  Biso   1.000  C
  H85      1.0000 0.65330  0.67790  0.89640  Biso   1.000  H
  C160     1.0000 0.59220  0.63530  0.88190  Biso   1.000  C
  C161     1.0000 0.54060  0.61900  0.87900  Biso   1.000  C
  H86      1.0000 0.52580  0.58980  0.86180  Biso   1.000  H
  C162     1.0000 0.59680  0.71770  0.93170  Biso   1.000  C
  H87      1.0000 0.61160  0.74690  0.94810  Biso   1.000  H
  C163     1.0000 0.51800  0.65700  0.90780  Biso   1.000  C
  H88      1.0000 0.48250  0.65540  0.91480  Biso   1.000  H
  C164     1.0000 0.54700  0.69900  0.92750  Biso   1.000  C
  C165     1.0000 0.61600  0.59670  0.85290  Biso   1.000  C
  Zn11     1.0000 0.67647  0.22783  0.74934  Biso   1.000  Zn
  O56      1.0000 0.31110  0.90200  0.68310  Biso   1.000  O
  O57      1.0000 0.27020  0.17230  0.68780  Biso   1.000  O
  O58      1.0000 0.19790  0.15600  0.73680  Biso   1.000  O
  O59      1.0000 0.25490  0.89680  0.76620  Biso   1.000  O
  C166     1.0000 0.30360  0.01000  0.68360  Biso   1.000  C
  H89      1.0000 0.32900  0.99510  0.66180  Biso   1.000  H
  C167     1.0000 0.22780  0.99680  0.75100  Biso   1.000  C
  H90      1.0000 0.20600  0.97500  0.77080  Biso   1.000  H
  C168     1.0000 0.23910  0.14400  0.71180  Biso   1.000  C
  C169     1.0000 0.27130  0.97880  0.72040  Biso   1.000  C
  C170     1.0000 0.27730  0.91940  0.72190  Biso   1.000  C
  C171     1.0000 0.25360  0.08450  0.71300  Biso   1.000  C
  C172     1.0000 0.22200  0.05460  0.74730  Biso   1.000  C
  H91      1.0000 0.19690  0.07150  0.76810  Biso   1.000  H
  C173     1.0000 0.29270  0.06340  0.68460  Biso   1.000  C
  N12      1.0000 0.33210  0.09350  0.65830  Biso   1.000  N
  H92      1.0000 0.31680  0.12010  0.64390  Biso   1.000  H
  O60      1.0000 0.41200  0.05630  0.66760  Biso   1.000  O
  C174     1.0000 0.38280  0.17660  0.59750  Biso   1.000  C
  H93      1.0000 0.34670  0.17790  0.60360  Biso   1.000  H
  C175     1.0000 0.40780  0.13530  0.61810  Biso   1.000  C
  C176     1.0000 0.45940  0.11900  0.62100  Biso   1.000  C
  H94      1.0000 0.47420  0.08980  0.63820  Biso   1.000  H
  C177     1.0000 0.40320  0.21770  0.56830  Biso   1.000  C
  H95      1.0000 0.38840  0.24690  0.55190  Biso   1.000  H
  C178     1.0000 0.48200  0.15700  0.59220  Biso   1.000  C
  H96      1.0000 0.51750  0.15540  0.58520  Biso   1.000  H
  C179     1.0000 0.45300  0.19900  0.57250  Biso   1.000  C
  C180     1.0000 0.38400  0.09670  0.64710  Biso   1.000  C
  Zn12     1.0000 0.32353  0.72783  0.75066  Biso   1.000  Zn
  O61      1.0000 0.81690  0.81110  0.90200  Biso   1.000  O
  O62      1.0000 0.81220  0.77020  0.17230  Biso   1.000  O
  O63      1.0000 0.76320  0.69790  0.15600  Biso   1.000  O
  O64      1.0000 0.73380  0.75490  0.89680  Biso   1.000  O
  C181     1.0000 0.81640  0.80360  0.01000  Biso   1.000  C
  H97      1.0000 0.83820  0.82900  0.99510  Biso   1.000  H
  C182     1.0000 0.74900  0.72780  0.99680  Biso   1.000  C
  H98      1.0000 0.72920  0.70600  0.97500  Biso   1.000  H
  C183     1.0000 0.78820  0.73910  0.14400  Biso   1.000  C
  C184     1.0000 0.77960  0.77130  0.97880  Biso   1.000  C
  C185     1.0000 0.77810  0.77730  0.91940  Biso   1.000  C
  C186     1.0000 0.78700  0.75360  0.08450  Biso   1.000  C
  C187     1.0000 0.75270  0.72200  0.05460  Biso   1.000  C
  H99      1.0000 0.73190  0.69690  0.07150  Biso   1.000  H
  C188     1.0000 0.81540  0.79270  0.06340  Biso   1.000  C
  N13      1.0000 0.84170  0.83210  0.09350  Biso   1.000  N
  H100     1.0000 0.85610  0.81680  0.12010  Biso   1.000  H
  O65      1.0000 0.83240  0.91200  0.05630  Biso   1.000  O
  C189     1.0000 0.90250  0.88280  0.17660  Biso   1.000  C
  H101     1.0000 0.89640  0.84670  0.17790  Biso   1.000  H
  C190     1.0000 0.88190  0.90780  0.13530  Biso   1.000  C
  C191     1.0000 0.87900  0.95940  0.11900  Biso   1.000  C
  H102     1.0000 0.86180  0.97420  0.08980  Biso   1.000  H
  C192     1.0000 0.93170  0.90320  0.21770  Biso   1.000  C
  H103     1.0000 0.94810  0.88840  0.24690  Biso   1.000  H
  C193     1.0000 0.90780  0.98200  0.15700  Biso   1.000  C
  H104     1.0000 0.91480  0.01750  0.15540  Biso   1.000  H
  C194     1.0000 0.92750  0.95300  0.19900  Biso   1.000  C
  C195     1.0000 0.85290  0.88400  0.09670  Biso   1.000  C
  Zn13     1.0000 0.74934  0.82353  0.72783  Biso   1.000  Zn
  O66      1.0000 0.68310  0.18890  0.40200  Biso   1.000  O
  O67      1.0000 0.68780  0.22980  0.67230  Biso   1.000  O
  O68      1.0000 0.73680  0.30210  0.65600  Biso   1.000  O
  O69      1.0000 0.76620  0.24510  0.39680  Biso   1.000  O
  C196     1.0000 0.68360  0.19640  0.51000  Biso   1.000  C
  H105     1.0000 0.66180  0.17100  0.49510  Biso   1.000  H
  C197     1.0000 0.75100  0.27220  0.49680  Biso   1.000  C
  H106     1.0000 0.77080  0.29400  0.47500  Biso   1.000  H
  C198     1.0000 0.71180  0.26090  0.64400  Biso   1.000  C
  C199     1.0000 0.72040  0.22870  0.47880  Biso   1.000  C
  C200     1.0000 0.72190  0.22270  0.41940  Biso   1.000  C
  C201     1.0000 0.71300  0.24640  0.58450  Biso   1.000  C
  C202     1.0000 0.74730  0.27800  0.55460  Biso   1.000  C
  H107     1.0000 0.76810  0.30310  0.57150  Biso   1.000  H
  C203     1.0000 0.68460  0.20730  0.56340  Biso   1.000  C
  N14      1.0000 0.65830  0.16790  0.59350  Biso   1.000  N
  H108     1.0000 0.64390  0.18320  0.62010  Biso   1.000  H
  O70      1.0000 0.66760  0.08800  0.55630  Biso   1.000  O
  C204     1.0000 0.59750  0.11720  0.67660  Biso   1.000  C
  H109     1.0000 0.60360  0.15330  0.67790  Biso   1.000  H
  C205     1.0000 0.61810  0.09220  0.63530  Biso   1.000  C
  C206     1.0000 0.62100  0.04060  0.61900  Biso   1.000  C
  H110     1.0000 0.63820  0.02580  0.58980  Biso   1.000  H
  C207     1.0000 0.56830  0.09680  0.71770  Biso   1.000  C
  H111     1.0000 0.55190  0.11160  0.74690  Biso   1.000  H
  C208     1.0000 0.59220  0.01800  0.65700  Biso   1.000  C
  H112     1.0000 0.58520  0.98250  0.65540  Biso   1.000  H
  C209     1.0000 0.57250  0.04700  0.69900  Biso   1.000  C
  C210     1.0000 0.64710  0.11600  0.59670  Biso   1.000  C
  Zn14     1.0000 0.75066  0.17647  0.22783  Biso   1.000  Zn
  O71      1.0000 0.18310  0.31110  0.59800  Biso   1.000  O
  O72      1.0000 0.18780  0.27020  0.32770  Biso   1.000  O
  O73      1.0000 0.23680  0.19790  0.34400  Biso   1.000  O
  O74      1.0000 0.26620  0.25490  0.60320  Biso   1.000  O
  C211     1.0000 0.18360  0.30360  0.49000  Biso   1.000  C
  H113     1.0000 0.16180  0.32900  0.50490  Biso   1.000  H
  C212     1.0000 0.25100  0.22780  0.50320  Biso   1.000  C
  H114     1.0000 0.27080  0.20600  0.52500  Biso   1.000  H
  C213     1.0000 0.21180  0.23910  0.35600  Biso   1.000  C
  C214     1.0000 0.22040  0.27130  0.52120  Biso   1.000  C
  C215     1.0000 0.22190  0.27730  0.58060  Biso   1.000  C
  C216     1.0000 0.21300  0.25360  0.41550  Biso   1.000  C
  C217     1.0000 0.24730  0.22200  0.44540  Biso   1.000  C
  H115     1.0000 0.26810  0.19690  0.42850  Biso   1.000  H
  C218     1.0000 0.18460  0.29270  0.43660  Biso   1.000  C
  N15      1.0000 0.15830  0.33210  0.40650  Biso   1.000  N
  H116     1.0000 0.14390  0.31680  0.37990  Biso   1.000  H
  O75      1.0000 0.16760  0.41200  0.44370  Biso   1.000  O
  C219     1.0000 0.09750  0.38280  0.32340  Biso   1.000  C
  H117     1.0000 0.10360  0.34670  0.32210  Biso   1.000  H
  C220     1.0000 0.11810  0.40780  0.36470  Biso   1.000  C
  C221     1.0000 0.12100  0.45940  0.38100  Biso   1.000  C
  H118     1.0000 0.13820  0.47420  0.41020  Biso   1.000  H
  C222     1.0000 0.06830  0.40320  0.28230  Biso   1.000  C
  H119     1.0000 0.05190  0.38840  0.25310  Biso   1.000  H
  C223     1.0000 0.09220  0.48200  0.34300  Biso   1.000  C
  H120     1.0000 0.08520  0.51750  0.34460  Biso   1.000  H
  C224     1.0000 0.07250  0.45300  0.30100  Biso   1.000  C
  C225     1.0000 0.14710  0.38400  0.40330  Biso   1.000  C
  Zn15     1.0000 0.25066  0.32353  0.77217  Biso   1.000  Zn
  O76      1.0000 0.31690  0.68890  0.09800  Biso   1.000  O
  O77      1.0000 0.31220  0.72980  0.82770  Biso   1.000  O
  O78      1.0000 0.26320  0.80210  0.84400  Biso   1.000  O
  O79      1.0000 0.23380  0.74510  0.10320  Biso   1.000  O
  C226     1.0000 0.31640  0.69640  0.99000  Biso   1.000  C
  H121     1.0000 0.33820  0.67100  0.00490  Biso   1.000  H
  C227     1.0000 0.24900  0.77220  0.00320  Biso   1.000  C
  H122     1.0000 0.22920  0.79400  0.02500  Biso   1.000  H
  C228     1.0000 0.28820  0.76090  0.85600  Biso   1.000  C
  C229     1.0000 0.27960  0.72870  0.02120  Biso   1.000  C
  C230     1.0000 0.27810  0.72270  0.08060  Biso   1.000  C
  C231     1.0000 0.28700  0.74640  0.91550  Biso   1.000  C
  C232     1.0000 0.25270  0.77800  0.94540  Biso   1.000  C
  H123     1.0000 0.23190  0.80310  0.92850  Biso   1.000  H
  C233     1.0000 0.31540  0.70730  0.93660  Biso   1.000  C
  N16      1.0000 0.34170  0.66790  0.90650  Biso   1.000  N
  H124     1.0000 0.35610  0.68320  0.87990  Biso   1.000  H
  O80      1.0000 0.33240  0.58800  0.94370  Biso   1.000  O
  C234     1.0000 0.40250  0.61720  0.82340  Biso   1.000  C
  H125     1.0000 0.39640  0.65330  0.82210  Biso   1.000  H
  C235     1.0000 0.38190  0.59220  0.86470  Biso   1.000  C
  C236     1.0000 0.37900  0.54060  0.88100  Biso   1.000  C
  H126     1.0000 0.36180  0.52580  0.91020  Biso   1.000  H
  C237     1.0000 0.43170  0.59680  0.78230  Biso   1.000  C
  H127     1.0000 0.44810  0.61160  0.75310  Biso   1.000  H
  C238     1.0000 0.40780  0.51800  0.84300  Biso   1.000  C
  H128     1.0000 0.41480  0.48250  0.84460  Biso   1.000  H
  C239     1.0000 0.42750  0.54700  0.80100  Biso   1.000  C
  C240     1.0000 0.35290  0.61600  0.90330  Biso   1.000  C
  Zn16     1.0000 0.24934  0.67647  0.27217  Biso   1.000  Zn
  O81      1.0000 0.90200  0.81690  0.81110  Biso   1.000  O
  O82      1.0000 0.17230  0.81220  0.77020  Biso   1.000  O
  O83      1.0000 0.15600  0.76320  0.69790  Biso   1.000  O
  O84      1.0000 0.89680  0.73380  0.75490  Biso   1.000  O
  C241     1.0000 0.01000  0.81640  0.80360  Biso   1.000  C
  H129     1.0000 0.99510  0.83820  0.82900  Biso   1.000  H
  C242     1.0000 0.99680  0.74900  0.72780  Biso   1.000  C
  H130     1.0000 0.97500  0.72920  0.70600  Biso   1.000  H
  C243     1.0000 0.14400  0.78820  0.73910  Biso   1.000  C
  C244     1.0000 0.97880  0.77960  0.77130  Biso   1.000  C
  C245     1.0000 0.91940  0.77810  0.77730  Biso   1.000  C
  C246     1.0000 0.08450  0.78700  0.75360  Biso   1.000  C
  C247     1.0000 0.05460  0.75270  0.72200  Biso   1.000  C
  H131     1.0000 0.07150  0.73190  0.69690  Biso   1.000  H
  C248     1.0000 0.06340  0.81540  0.79270  Biso   1.000  C
  N17      1.0000 0.09350  0.84170  0.83210  Biso   1.000  N
  H132     1.0000 0.12010  0.85610  0.81680  Biso   1.000  H
  O85      1.0000 0.05630  0.83240  0.91200  Biso   1.000  O
  C249     1.0000 0.17660  0.90250  0.88280  Biso   1.000  C
  H133     1.0000 0.17790  0.89640  0.84670  Biso   1.000  H
  C250     1.0000 0.13530  0.88190  0.90780  Biso   1.000  C
  C251     1.0000 0.11900  0.87900  0.95940  Biso   1.000  C
  H134     1.0000 0.08980  0.86180  0.97420  Biso   1.000  H
  C252     1.0000 0.21770  0.93170  0.90320  Biso   1.000  C
  H135     1.0000 0.24690  0.94810  0.88840  Biso   1.000  H
  C253     1.0000 0.15700  0.90780  0.98200  Biso   1.000  C
  H136     1.0000 0.15540  0.91480  0.01750  Biso   1.000  H
  C254     1.0000 0.19900  0.92750  0.95300  Biso   1.000  C
  C255     1.0000 0.09670  0.85290  0.88400  Biso   1.000  C
  Zn17     1.0000 0.72783  0.74934  0.82353  Biso   1.000  Zn
  O86      1.0000 0.40200  0.68310  0.18890  Biso   1.000  O
  O87      1.0000 0.67230  0.68780  0.22980  Biso   1.000  O
  O88      1.0000 0.65600  0.73680  0.30210  Biso   1.000  O
  O89      1.0000 0.39680  0.76620  0.24510  Biso   1.000  O
  C256     1.0000 0.51000  0.68360  0.19640  Biso   1.000  C
  H137     1.0000 0.49510  0.66180  0.17100  Biso   1.000  H
  C257     1.0000 0.49680  0.75100  0.27220  Biso   1.000  C
  H138     1.0000 0.47500  0.77080  0.29400  Biso   1.000  H
  C258     1.0000 0.64400  0.71180  0.26090  Biso   1.000  C
  C259     1.0000 0.47880  0.72040  0.22870  Biso   1.000  C
  C260     1.0000 0.41940  0.72190  0.22270  Biso   1.000  C
  C261     1.0000 0.58450  0.71300  0.24640  Biso   1.000  C
  C262     1.0000 0.55460  0.74730  0.27800  Biso   1.000  C
  H139     1.0000 0.57150  0.76810  0.30310  Biso   1.000  H
  C263     1.0000 0.56340  0.68460  0.20730  Biso   1.000  C
  N18      1.0000 0.59350  0.65830  0.16790  Biso   1.000  N
  H140     1.0000 0.62010  0.64390  0.18320  Biso   1.000  H
  O90      1.0000 0.55630  0.66760  0.08800  Biso   1.000  O
  C264     1.0000 0.67660  0.59750  0.11720  Biso   1.000  C
  H141     1.0000 0.67790  0.60360  0.15330  Biso   1.000  H
  C265     1.0000 0.63530  0.61810  0.09220  Biso   1.000  C
  C266     1.0000 0.61900  0.62100  0.04060  Biso   1.000  C
  H142     1.0000 0.58980  0.63820  0.02580  Biso   1.000  H
  C267     1.0000 0.71770  0.56830  0.09680  Biso   1.000  C
  H143     1.0000 0.74690  0.55190  0.11160  Biso   1.000  H
  C268     1.0000 0.65700  0.59220  0.01800  Biso   1.000  C
  H144     1.0000 0.65540  0.58520  0.98250  Biso   1.000  H
  C269     1.0000 0.69900  0.57250  0.04700  Biso   1.000  C
  C270     1.0000 0.59670  0.64710  0.11600  Biso   1.000  C
  Zn18     1.0000 0.22783  0.75066  0.17647  Biso   1.000  Zn
  O91      1.0000 0.59800  0.18310  0.31110  Biso   1.000  O
  O92      1.0000 0.32770  0.18780  0.27020  Biso   1.000  O
  O93      1.0000 0.34400  0.23680  0.19790  Biso   1.000  O
  O94      1.0000 0.60320  0.26620  0.25490  Biso   1.000  O
  C271     1.0000 0.49000  0.18360  0.30360  Biso   1.000  C
  H145     1.0000 0.50490  0.16180  0.32900  Biso   1.000  H
  C272     1.0000 0.50320  0.25100  0.22780  Biso   1.000  C
  H146     1.0000 0.52500  0.27080  0.20600  Biso   1.000  H
  C273     1.0000 0.35600  0.21180  0.23910  Biso   1.000  C
  C274     1.0000 0.52120  0.22040  0.27130  Biso   1.000  C
  C275     1.0000 0.58060  0.22190  0.27730  Biso   1.000  C
  C276     1.0000 0.41550  0.21300  0.25360  Biso   1.000  C
  C277     1.0000 0.44540  0.24730  0.22200  Biso   1.000  C
  H147     1.0000 0.42850  0.26810  0.19690  Biso   1.000  H
  C278     1.0000 0.43660  0.18460  0.29270  Biso   1.000  C
  N19      1.0000 0.40650  0.15830  0.33210  Biso   1.000  N
  H148     1.0000 0.37990  0.14390  0.31680  Biso   1.000  H
  O95      1.0000 0.44370  0.16760  0.41200  Biso   1.000  O
  C279     1.0000 0.32340  0.09750  0.38280  Biso   1.000  C
  H149     1.0000 0.32210  0.10360  0.34670  Biso   1.000  H
  C280     1.0000 0.36470  0.11810  0.40780  Biso   1.000  C
  C281     1.0000 0.38100  0.12100  0.45940  Biso   1.000  C
  H150     1.0000 0.41020  0.13820  0.47420  Biso   1.000  H
  C282     1.0000 0.28230  0.06830  0.40320  Biso   1.000  C
  H151     1.0000 0.25310  0.05190  0.38840  Biso   1.000  H
  C283     1.0000 0.34300  0.09220  0.48200  Biso   1.000  C
  H152     1.0000 0.34460  0.08520  0.51750  Biso   1.000  H
  C284     1.0000 0.30100  0.07250  0.45300  Biso   1.000  C
  C285     1.0000 0.40330  0.14710  0.38400  Biso   1.000  C
  Zn19     1.0000 0.77217  0.25066  0.32353  Biso   1.000  Zn
  O96      1.0000 0.09800  0.31690  0.68890  Biso   1.000  O
  O97      1.0000 0.82770  0.31220  0.72980  Biso   1.000  O
  O98      1.0000 0.84400  0.26320  0.80210  Biso   1.000  O
  O99      1.0000 0.10320  0.23380  0.74510  Biso   1.000  O
  C286     1.0000 0.99000  0.31640  0.69640  Biso   1.000  C
  H153     1.0000 0.00490  0.33820  0.67100  Biso   1.000  H
  C287     1.0000 0.00320  0.24900  0.77220  Biso   1.000  C
  H154     1.0000 0.02500  0.22920  0.79400  Biso   1.000  H
  C288     1.0000 0.85600  0.28820  0.76090  Biso   1.000  C
  C289     1.0000 0.02120  0.27960  0.72870  Biso   1.000  C
  C290     1.0000 0.08060  0.27810  0.72270  Biso   1.000  C
  C291     1.0000 0.91550  0.28700  0.74640  Biso   1.000  C
  C292     1.0000 0.94540  0.25270  0.77800  Biso   1.000  C
  H155     1.0000 0.92850  0.23190  0.80310  Biso   1.000  H
  C293     1.0000 0.93660  0.31540  0.70730  Biso   1.000  C
  N20      1.0000 0.90650  0.34170  0.66790  Biso   1.000  N
  H156     1.0000 0.87990  0.35610  0.68320  Biso   1.000  H
  O100     1.0000 0.94370  0.33240  0.58800  Biso   1.000  O
  C294     1.0000 0.82340  0.40250  0.61720  Biso   1.000  C
  H157     1.0000 0.82210  0.39640  0.65330  Biso   1.000  H
  C295     1.0000 0.86470  0.38190  0.59220  Biso   1.000  C
  C296     1.0000 0.88100  0.37900  0.54060  Biso   1.000  C
  H158     1.0000 0.91020  0.36180  0.52580  Biso   1.000  H
  C297     1.0000 0.78230  0.43170  0.59680  Biso   1.000  C
  H159     1.0000 0.75310  0.44810  0.61160  Biso   1.000  H
  C298     1.0000 0.84300  0.40780  0.51800  Biso   1.000  C
  H160     1.0000 0.84460  0.41480  0.48250  Biso   1.000  H
  C299     1.0000 0.80100  0.42750  0.54700  Biso   1.000  C
  C300     1.0000 0.90330  0.35290  0.61600  Biso   1.000  C
  Zn20     1.0000 0.27217  0.24934  0.67647  Biso   1.000  Zn
  O101     1.0000 0.81110  0.90200  0.81690  Biso   1.000  O
  O102     1.0000 0.77020  0.17230  0.81220  Biso   1.000  O
  O103     1.0000 0.69790  0.15600  0.76320  Biso   1.000  O
  O104     1.0000 0.75490  0.89680  0.73380  Biso   1.000  O
  C301     1.0000 0.80360  0.01000  0.81640  Biso   1.000  C
  H161     1.0000 0.82900  0.99510  0.83820  Biso   1.000  H
  C302     1.0000 0.72780  0.99680  0.74900  Biso   1.000  C
  H162     1.0000 0.70600  0.97500  0.72920  Biso   1.000  H
  C303     1.0000 0.73910  0.14400  0.78820  Biso   1.000  C
  C304     1.0000 0.77130  0.97880  0.77960  Biso   1.000  C
  C305     1.0000 0.77730  0.91940  0.77810  Biso   1.000  C
  C306     1.0000 0.75360  0.08450  0.78700  Biso   1.000  C
  C307     1.0000 0.72200  0.05460  0.75270  Biso   1.000  C
  H163     1.0000 0.69690  0.07150  0.73190  Biso   1.000  H
  C308     1.0000 0.79270  0.06340  0.81540  Biso   1.000  C
  N21      1.0000 0.83210  0.09350  0.84170  Biso   1.000  N
  H164     1.0000 0.81680  0.12010  0.85610  Biso   1.000  H
  O105     1.0000 0.91200  0.05630  0.83240  Biso   1.000  O
  C309     1.0000 0.88280  0.17660  0.90250  Biso   1.000  C
  H165     1.0000 0.84670  0.17790  0.89640  Biso   1.000  H
  C310     1.0000 0.90780  0.13530  0.88190  Biso   1.000  C
  C311     1.0000 0.95940  0.11900  0.87900  Biso   1.000  C
  H166     1.0000 0.97420  0.08980  0.86180  Biso   1.000  H
  C312     1.0000 0.90320  0.21770  0.93170  Biso   1.000  C
  H167     1.0000 0.88840  0.24690  0.94810  Biso   1.000  H
  C313     1.0000 0.98200  0.15700  0.90780  Biso   1.000  C
  H168     1.0000 0.01750  0.15540  0.91480  Biso   1.000  H
  C314     1.0000 0.95300  0.19900  0.92750  Biso   1.000  C
  C315     1.0000 0.88400  0.09670  0.85290  Biso   1.000  C
  Zn21     1.0000 0.82353  0.72783  0.74934  Biso   1.000  Zn
  O106     1.0000 0.18890  0.40200  0.68310  Biso   1.000  O
  O107     1.0000 0.22980  0.67230  0.68780  Biso   1.000  O
  O108     1.0000 0.30210  0.65600  0.73680  Biso   1.000  O
  O109     1.0000 0.24510  0.39680  0.76620  Biso   1.000  O
  C316     1.0000 0.19640  0.51000  0.68360  Biso   1.000  C
  H169     1.0000 0.17100  0.49510  0.66180  Biso   1.000  H
  C317     1.0000 0.27220  0.49680  0.75100  Biso   1.000  C
  H170     1.0000 0.29400  0.47500  0.77080  Biso   1.000  H
  C318     1.0000 0.26090  0.64400  0.71180  Biso   1.000  C
  C319     1.0000 0.22870  0.47880  0.72040  Biso   1.000  C
  C320     1.0000 0.22270  0.41940  0.72190  Biso   1.000  C
  C321     1.0000 0.24640  0.58450  0.71300  Biso   1.000  C
  C322     1.0000 0.27800  0.55460  0.74730  Biso   1.000  C
  H171     1.0000 0.30310  0.57150  0.76810  Biso   1.000  H
  C323     1.0000 0.20730  0.56340  0.68460  Biso   1.000  C
  N22      1.0000 0.16790  0.59350  0.65830  Biso   1.000  N
  H172     1.0000 0.18320  0.62010  0.64390  Biso   1.000  H
  O110     1.0000 0.08800  0.55630  0.66760  Biso   1.000  O
  C324     1.0000 0.11720  0.67660  0.59750  Biso   1.000  C
  H173     1.0000 0.15330  0.67790  0.60360  Biso   1.000  H
  C325     1.0000 0.09220  0.63530  0.61810  Biso   1.000  C
  C326     1.0000 0.04060  0.61900  0.62100  Biso   1.000  C
  H174     1.0000 0.02580  0.58980  0.63820  Biso   1.000  H
  C327     1.0000 0.09680  0.71770  0.56830  Biso   1.000  C
  H175     1.0000 0.11160  0.74690  0.55190  Biso   1.000  H
  C328     1.0000 0.01800  0.65700  0.59220  Biso   1.000  C
  H176     1.0000 0.98250  0.65540  0.58520  Biso   1.000  H
  C329     1.0000 0.04700  0.69900  0.57250  Biso   1.000  C
  C330     1.0000 0.11600  0.59670  0.64710  Biso   1.000  C
  Zn22     1.0000 0.17647  0.22783  0.75066  Biso   1.000  Zn
  O111     1.0000 0.31110  0.59800  0.18310  Biso   1.000  O
  O112     1.0000 0.27020  0.32770  0.18780  Biso   1.000  O
  O113     1.0000 0.19790  0.34400  0.23680  Biso   1.000  O
  O114     1.0000 0.25490  0.60320  0.26620  Biso   1.000  O
  C331     1.0000 0.30360  0.49000  0.18360  Biso   1.000  C
  H177     1.0000 0.32900  0.50490  0.16180  Biso   1.000  H
  C332     1.0000 0.22780  0.50320  0.25100  Biso   1.000  C
  H178     1.0000 0.20600  0.52500  0.27080  Biso   1.000  H
  C333     1.0000 0.23910  0.35600  0.21180  Biso   1.000  C
  C334     1.0000 0.27130  0.52120  0.22040  Biso   1.000  C
  C335     1.0000 0.27730  0.58060  0.22190  Biso   1.000  C
  C336     1.0000 0.25360  0.41550  0.21300  Biso   1.000  C
  C337     1.0000 0.22200  0.44540  0.24730  Biso   1.000  C
  H179     1.0000 0.19690  0.42850  0.26810  Biso   1.000  H
  C338     1.0000 0.29270  0.43660  0.18460  Biso   1.000  C
  N23      1.0000 0.33210  0.40650  0.15830  Biso   1.000  N
  H180     1.0000 0.31680  0.37990  0.14390  Biso   1.000  H
  O115     1.0000 0.41200  0.44370  0.16760  Biso   1.000  O
  C339     1.0000 0.38280  0.32340  0.09750  Biso   1.000  C
  H181     1.0000 0.34670  0.32210  0.10360  Biso   1.000  H
  C340     1.0000 0.40780  0.36470  0.11810  Biso   1.000  C
  C341     1.0000 0.45940  0.38100  0.12100  Biso   1.000  C
  H182     1.0000 0.47420  0.41020  0.13820  Biso   1.000  H
  C342     1.0000 0.40320  0.28230  0.06830  Biso   1.000  C
  H183     1.0000 0.38840  0.25310  0.05190  Biso   1.000  H
  C343     1.0000 0.48200  0.34300  0.09220  Biso   1.000  C
  H184     1.0000 0.51750  0.34460  0.08520  Biso   1.000  H
  C344     1.0000 0.45300  0.30100  0.07250  Biso   1.000  C
  C345     1.0000 0.38400  0.40330  0.14710  Biso   1.000  C
  Zn23     1.0000 0.32353  0.77217  0.25066  Biso   1.000  Zn
  O116     1.0000 0.68890  0.09800  0.31690  Biso   1.000  O
  O117     1.0000 0.72980  0.82770  0.31220  Biso   1.000  O
  O118     1.0000 0.80210  0.84400  0.26320  Biso   1.000  O
  O119     1.0000 0.74510  0.10320  0.23380  Biso   1.000  O
  C346     1.0000 0.69640  0.99000  0.31640  Biso   1.000  C
  H185     1.0000 0.67100  0.00490  0.33820  Biso   1.000  H
  C347     1.0000 0.77220  0.00320  0.24900  Biso   1.000  C
  H186     1.0000 0.79400  0.02500  0.22920  Biso   1.000  H
  C348     1.0000 0.76090  0.85600  0.28820  Biso   1.000  C
  C349     1.0000 0.72870  0.02120  0.27960  Biso   1.000  C
  C350     1.0000 0.72270  0.08060  0.27810  Biso   1.000  C
  C351     1.0000 0.74640  0.91550  0.28700  Biso   1.000  C
  C352     1.0000 0.77800  0.94540  0.25270  Biso   1.000  C
  H187     1.0000 0.80310  0.92850  0.23190  Biso   1.000  H
  C353     1.0000 0.70730  0.93660  0.31540  Biso   1.000  C
  N24      1.0000 0.66790  0.90650  0.34170  Biso   1.000  N
  H188     1.0000 0.68320  0.87990  0.35610  Biso   1.000  H
  O120     1.0000 0.58800  0.94370  0.33240  Biso   1.000  O
  C354     1.0000 0.61720  0.82340  0.40250  Biso   1.000  C
  H189     1.0000 0.65330  0.82210  0.39640  Biso   1.000  H
  C355     1.0000 0.59220  0.86470  0.38190  Biso   1.000  C
  C356     1.0000 0.54060  0.88100  0.37900  Biso   1.000  C
  H190     1.0000 0.52580  0.91020  0.36180  Biso   1.000  H
  C357     1.0000 0.59680  0.78230  0.43170  Biso   1.000  C
  H191     1.0000 0.61160  0.75310  0.44810  Biso   1.000  H
  C358     1.0000 0.51800  0.84300  0.40780  Biso   1.000  C
  H192     1.0000 0.48250  0.84460  0.41480  Biso   1.000  H
  C359     1.0000 0.54700  0.80100  0.42750  Biso   1.000  C
  C360     1.0000 0.61600  0.90330  0.35290  Biso   1.000  C
  Zn24     1.0000 0.67647  0.27217  0.24934  Biso   1.000  Zn
  O121     1.0000 0.21800  0.21800  0.21800  Biso   1.000  O
  Zn25     1.0000 0.17336  0.17336  0.17336  Biso   1.000  Zn
  O122     1.0000 0.28200  0.78200  0.71800  Biso   1.000  O
  Zn26     1.0000 0.32664  0.82664  0.67336  Biso   1.000  Zn
  O123     1.0000 0.78200  0.71800  0.28200  Biso   1.000  O
  Zn27     1.0000 0.82664  0.67336  0.32664  Biso   1.000  Zn
  O124     1.0000 0.71800  0.28200  0.78200  Biso   1.000  O
  Zn28     1.0000 0.67336  0.32664  0.82664  Biso   1.000  Zn
  O125     1.0000 0.78200  0.78200  0.78200  Biso   1.000  O
  Zn29     1.0000 0.82664  0.82664  0.82664  Biso   1.000  Zn
  O126     1.0000 0.71800  0.21800  0.28200  Biso   1.000  O
  Zn30     1.0000 0.67336  0.17336  0.32664  Biso   1.000  Zn
  O127     1.0000 0.21800  0.28200  0.71800  Biso   1.000  O
  Zn31     1.0000 0.17336  0.32664  0.67336  Biso   1.000  Zn
  O128     1.0000 0.28200  0.71800  0.21800  Biso   1.000  O
  Zn32     1.0000 0.32664  0.67336  0.17336  Biso   1.000  Zn
