data_image0
_cell_length_a       24.4252
_cell_length_b       19.0425
_cell_length_c       26.7153
_cell_angle_alpha    90
_cell_angle_beta     90
_cell_angle_gamma    90

_symmetry_space_group_name_H-M    "P 1"
_symmetry_int_tables_number       1

loop_
  _symmetry_equiv_pos_as_xyz
  'x, y, z'

loop_
  _atom_site_label
  _atom_site_occupancy
  _atom_site_fract_x
  _atom_site_fract_y
  _atom_site_fract_z
  _atom_site_thermal_displace_type
  _atom_site_B_iso_or_equiv
  _atom_site_type_symbol
  Mn1      1.0000 0.86911  0.73950  0.87022  Biso   1.000  Mn
  Mn2      1.0000 0.77205  0.81987  0.92449  Biso   1.000  Mn
  Mn3      1.0000 0.84852  0.95066  0.94610  Biso   1.000  Mn
  Mn4      1.0000 0.83223  0.89114  0.83900  Biso   1.000  Mn
  Mn5      1.0000 0.94578  0.87106  0.89032  Biso   1.000  Mn
  Mn6      1.0000 0.88583  0.79640  0.98259  Biso   1.000  Mn
  O1       1.0000 0.85439  0.84770  0.90383  Biso   1.000  O
  C1       1.0000 0.99240  0.71040  0.92550  Biso   1.000  C
  C2       1.0000 0.94110  0.67010  0.94240  Biso   1.000  C
  H1       1.0000 0.93880  0.62570  0.92320  Biso   1.000  H
  H2       1.0000 0.94510  0.65780  0.97820  Biso   1.000  H
  O2       1.0000 0.89122  0.70843  0.93580  Biso   1.000  O
  C3       1.0000 0.98890  0.72890  0.87040  Biso   1.000  C
  H3       1.0000 0.02350  0.75180  0.86020  Biso   1.000  H
  H4       1.0000 0.98520  0.68510  0.85080  Biso   1.000  H
  O3       1.0000 0.94411  0.77462  0.85838  Biso   1.000  O
  C4       1.0000 0.00300  0.77570  0.95680  Biso   1.000  C
  H5       1.0000 0.00800  0.76130  0.99210  Biso   1.000  H
  H6       1.0000 0.03780  0.79720  0.94540  Biso   1.000  H
  O4       1.0000 0.96142  0.82743  0.95466  Biso   1.000  O
  C5       1.0000 0.04150  0.66020  0.93230  Biso   1.000  C
  H7       1.0000 0.07490  0.68300  0.92010  Biso   1.000  H
  H8       1.0000 0.03510  0.61700  0.91330  Biso   1.000  H
  H9       1.0000 0.04580  0.64890  0.96790  Biso   1.000  H
  C6       1.0000 0.91400  0.03800  0.85310  Biso   1.000  C
  C7       1.0000 0.92700  0.98140  0.81460  Biso   1.000  C
  H10      1.0000 0.90800  0.99330  0.78290  Biso   1.000  H
  H11      1.0000 0.96680  0.98230  0.80780  Biso   1.000  H
  O5       1.0000 0.91183  0.91134  0.82875  Biso   1.000  O
  C8       1.0000 0.85290  0.04540  0.86160  Biso   1.000  C
  H12      1.0000 0.84660  0.08550  0.88450  Biso   1.000  H
  H13      1.0000 0.83530  0.05700  0.82920  Biso   1.000  H
  O6       1.0000 0.82690  0.98498  0.88186  Biso   1.000  O
  C9       1.0000 0.94320  0.02430  0.90230  Biso   1.000  C
  H14      1.0000 0.98310  0.02220  0.89590  Biso   1.000  H
  H15      1.0000 0.93640  0.06440  0.92500  Biso   1.000  H
  O7       1.0000 0.92695  0.96067  0.92742  Biso   1.000  O
  C10      1.0000 0.93540  0.10820  0.83190  Biso   1.000  C
  H16      1.0000 0.91720  0.11810  0.79990  Biso   1.000  H
  H17      1.0000 0.97500  0.10490  0.82660  Biso   1.000  H
  H18      1.0000 0.92760  0.14610  0.85560  Biso   1.000  H
  C11      1.0000 0.74910  0.75030  0.80790  Biso   1.000  C
  C12      1.0000 0.75390  0.70270  0.85300  Biso   1.000  C
  H19      1.0000 0.71730  0.69770  0.86860  Biso   1.000  H
  H20      1.0000 0.76570  0.65560  0.84170  Biso   1.000  H
  O8       1.0000 0.79165  0.72760  0.89003  Biso   1.000  O
  C13      1.0000 0.72580  0.82150  0.82200  Biso   1.000  C
  H21      1.0000 0.72270  0.85040  0.79130  Biso   1.000  H
  H22      1.0000 0.68840  0.81470  0.83550  Biso   1.000  H
  O9       1.0000 0.75775  0.85998  0.85842  Biso   1.000  O
  C14      1.0000 0.80380  0.75750  0.78030  Biso   1.000  C
  H23      1.0000 0.81540  0.71050  0.76860  Biso   1.000  H
  H24      1.0000 0.79820  0.78730  0.75040  Biso   1.000  H
  O10      1.0000 0.84673  0.78712  0.80999  Biso   1.000  O
  C15      1.0000 0.70860  0.71580  0.77120  Biso   1.000  C
  H25      1.0000 0.67230  0.71320  0.78680  Biso   1.000  H
  H26      1.0000 0.72130  0.66840  0.76300  Biso   1.000  H
  H27      1.0000 0.70650  0.74400  0.74060  Biso   1.000  H
  C16      1.0000 0.77870  0.88300  0.04420  Biso   1.000  C
  C17      1.0000 0.74890  0.92470  0.00460  Biso   1.000  C
  H28      1.0000 0.71030  0.90890  0.00320  Biso   1.000  H
  H29      1.0000 0.74890  0.97490  0.01420  Biso   1.000  H
  O11      1.0000 0.77273  0.91780  0.95568  Biso   1.000  O
  C18      1.0000 0.83790  0.90840  0.04930  Biso   1.000  C
  H30      1.0000 0.83740  0.95850  0.05920  Biso   1.000  H
  H31      1.0000 0.85560  0.88180  0.07680  Biso   1.000  H
  O12      1.0000 0.87068  0.90110  0.00510  Biso   1.000  O
  C19      1.0000 0.77530  0.80370  0.03320  Biso   1.000  C
  H32      1.0000 0.79390  0.77820  0.06060  Biso   1.000  H
  H33      1.0000 0.73630  0.78960  0.03360  Biso   1.000  H
  O13      1.0000 0.79870  0.78180  0.98676  Biso   1.000  O
  C20      1.0000 0.75030  0.89460  0.09430  Biso   1.000  C
  H34      1.0000 0.75520  0.94350  0.10480  Biso   1.000  H
  H35      1.0000 0.76630  0.86330  0.11950  Biso   1.000  H
  H36      1.0000 0.71120  0.88450  0.09090  Biso   1.000  H
  C21      1.0000 0.81000  0.09140  0.98400  Biso   1.000  C
  C22      1.0000 0.81870  0.15490  0.01570  Biso   1.000  C
  H37      1.0000 0.78890  0.15880  0.04020  Biso   1.000  H
  H38      1.0000 0.81920  0.19690  0.99450  Biso   1.000  H
  H39      1.0000 0.85380  0.15090  0.03340  Biso   1.000  H
  O14      1.0000 0.84906  0.04568  0.98449  Biso   1.000  O
  O15      1.0000 0.76795  0.08480  0.95948  Biso   1.000  O
  C23      1.0000 0.05400  0.88800  0.83660  Biso   1.000  C
  C24      1.0000 0.11190  0.91220  0.83620  Biso   1.000  C
  H40      1.0000 0.13160  0.88930  0.80880  Biso   1.000  H
  H41      1.0000 0.12930  0.90000  0.86810  Biso   1.000  H
  H42      1.0000 0.11300  0.96320  0.83160  Biso   1.000  H
  O16      1.0000 0.02773  0.89910  0.87753  Biso   1.000  O
  O17      1.0000 0.03307  0.86100  0.79908  Biso   1.000  O
  C25      1.0000 0.86860  0.58330  0.85060  Biso   1.000  C
  C26      1.0000 0.89130  0.52200  0.82170  Biso   1.000  C
  H43      1.0000 0.88630  0.47880  0.84110  Biso   1.000  H
  H44      1.0000 0.93040  0.52960  0.81550  Biso   1.000  H
  H45      1.0000 0.87200  0.51790  0.78970  Biso   1.000  H
  O18      1.0000 0.88282  0.64420  0.83392  Biso   1.000  O
  O19      1.0000 0.83906  0.57320  0.88761  Biso   1.000  O
  C27      1.0000 0.77180  0.97970  0.76930  Biso   1.000  C
  C28      1.0000 0.76900  0.01090  0.72050  Biso   1.000  C
  H46      1.0000 0.74380  0.05100  0.72120  Biso   1.000  H
  H47      1.0000 0.75580  0.97600  0.69630  Biso   1.000  H
  H48      1.0000 0.80550  0.02700  0.71050  Biso   1.000  H
  O20      1.0000 0.81175  0.93390  0.77687  Biso   1.000  O
  O21      1.0000 0.73964  0.99810  0.80196  Biso   1.000  O
  C29      1.0000 0.94060  0.77840  0.08040  Biso   1.000  C
  C30      1.0000 0.95400  0.74200  0.12880  Biso   1.000  C
  H49      1.0000 0.94430  0.77260  0.15700  Biso   1.000  H
  H50      1.0000 0.99320  0.73140  0.13000  Biso   1.000  H
  H51      1.0000 0.93300  0.69820  0.13110  Biso   1.000  H
  O22      1.0000 0.90940  0.75330  0.04820  Biso   1.000  O
  O23      1.0000 0.96700  0.83940  0.07400  Biso   1.000  O
  C31      1.0000 0.65140  0.83710  0.92690  Biso   1.000  C
  C32      1.0000 0.59720  0.80020  0.92640  Biso   1.000  C
  H52      1.0000 0.56770  0.83490  0.92710  Biso   1.000  H
  H53      1.0000 0.59440  0.76960  0.95580  Biso   1.000  H
  H54      1.0000 0.59420  0.77180  0.89590  Biso   1.000  H
  O24      1.0000 0.69290  0.79750  0.93663  Biso   1.000  O
  O25      1.0000 0.65403  0.89930  0.91632  Biso   1.000  O
  Na1      1.0000 0.93910  0.81533  0.77456  Biso   1.000  Na
  Na2      1.0000 0.96809  0.92324  0.01192  Biso   1.000  Na
  Na3      1.0000 0.72500  0.98193  0.88983  Biso   1.000  Na
  Na4      1.0000 0.81052  0.64605  0.95665  Biso   1.000  Na
  O26      1.0000 0.94953  0.04282  0.02970  Biso   1.000  O
  H55      1.0000 0.95130  0.06080  0.05830  Biso   1.000  H
  H56      1.0000 0.91850  0.05290  0.01820  Biso   1.000  H
  Mn7      1.0000 0.63089  0.76050  0.37022  Biso   1.000  Mn
  Mn8      1.0000 0.72795  0.68013  0.42449  Biso   1.000  Mn
  Mn9      1.0000 0.65148  0.54934  0.44610  Biso   1.000  Mn
  Mn10     1.0000 0.66777  0.60886  0.33900  Biso   1.000  Mn
  Mn11     1.0000 0.55422  0.62894  0.39032  Biso   1.000  Mn
  Mn12     1.0000 0.61417  0.70360  0.48259  Biso   1.000  Mn
  O27      1.0000 0.64561  0.65230  0.40383  Biso   1.000  O
  C33      1.0000 0.50760  0.78960  0.42550  Biso   1.000  C
  C34      1.0000 0.55890  0.82990  0.44240  Biso   1.000  C
  H57      1.0000 0.56120  0.87430  0.42320  Biso   1.000  H
  H58      1.0000 0.55490  0.84220  0.47820  Biso   1.000  H
  O28      1.0000 0.60878  0.79157  0.43580  Biso   1.000  O
  C35      1.0000 0.51110  0.77110  0.37040  Biso   1.000  C
  H59      1.0000 0.47650  0.74820  0.36020  Biso   1.000  H
  H60      1.0000 0.51480  0.81490  0.35080  Biso   1.000  H
  O29      1.0000 0.55589  0.72538  0.35838  Biso   1.000  O
  C36      1.0000 0.49700  0.72430  0.45680  Biso   1.000  C
  H61      1.0000 0.49200  0.73870  0.49210  Biso   1.000  H
  H62      1.0000 0.46220  0.70280  0.44540  Biso   1.000  H
  O30      1.0000 0.53858  0.67257  0.45466  Biso   1.000  O
  C37      1.0000 0.45850  0.83980  0.43230  Biso   1.000  C
  H63      1.0000 0.42510  0.81700  0.42010  Biso   1.000  H
  H64      1.0000 0.46490  0.88300  0.41330  Biso   1.000  H
  H65      1.0000 0.45420  0.85110  0.46790  Biso   1.000  H
  C38      1.0000 0.58600  0.46200  0.35310  Biso   1.000  C
  C39      1.0000 0.57300  0.51860  0.31460  Biso   1.000  C
  H66      1.0000 0.59200  0.50670  0.28290  Biso   1.000  H
  H67      1.0000 0.53320  0.51770  0.30780  Biso   1.000  H
  O31      1.0000 0.58817  0.58866  0.32875  Biso   1.000  O
  C40      1.0000 0.64710  0.45460  0.36160  Biso   1.000  C
  H68      1.0000 0.65340  0.41450  0.38450  Biso   1.000  H
  H69      1.0000 0.66470  0.44300  0.32920  Biso   1.000  H
  O32      1.0000 0.67310  0.51502  0.38186  Biso   1.000  O
  C41      1.0000 0.55680  0.47570  0.40230  Biso   1.000  C
  H70      1.0000 0.51690  0.47780  0.39590  Biso   1.000  H
  H71      1.0000 0.56360  0.43560  0.42500  Biso   1.000  H
  O33      1.0000 0.57305  0.53933  0.42742  Biso   1.000  O
  C42      1.0000 0.56460  0.39180  0.33190  Biso   1.000  C
  H72      1.0000 0.58280  0.38190  0.29990  Biso   1.000  H
  H73      1.0000 0.52500  0.39510  0.32660  Biso   1.000  H
  H74      1.0000 0.57240  0.35390  0.35560  Biso   1.000  H
  C43      1.0000 0.75090  0.74970  0.30790  Biso   1.000  C
  C44      1.0000 0.74610  0.79730  0.35300  Biso   1.000  C
  H75      1.0000 0.78270  0.80230  0.36860  Biso   1.000  H
  H76      1.0000 0.73430  0.84440  0.34170  Biso   1.000  H
  O34      1.0000 0.70835  0.77240  0.39003  Biso   1.000  O
  C45      1.0000 0.77420  0.67850  0.32200  Biso   1.000  C
  H77      1.0000 0.77730  0.64960  0.29130  Biso   1.000  H
  H78      1.0000 0.81160  0.68530  0.33550  Biso   1.000  H
  O35      1.0000 0.74225  0.64002  0.35842  Biso   1.000  O
  C46      1.0000 0.69620  0.74250  0.28030  Biso   1.000  C
  H79      1.0000 0.68460  0.78950  0.26860  Biso   1.000  H
  H80      1.0000 0.70180  0.71270  0.25040  Biso   1.000  H
  O36      1.0000 0.65327  0.71288  0.30999  Biso   1.000  O
  C47      1.0000 0.79140  0.78420  0.27120  Biso   1.000  C
  H81      1.0000 0.82770  0.78680  0.28680  Biso   1.000  H
  H82      1.0000 0.77870  0.83160  0.26300  Biso   1.000  H
  H83      1.0000 0.79350  0.75600  0.24060  Biso   1.000  H
  C48      1.0000 0.72130  0.61700  0.54420  Biso   1.000  C
  C49      1.0000 0.75110  0.57530  0.50460  Biso   1.000  C
  H84      1.0000 0.78970  0.59110  0.50320  Biso   1.000  H
  H85      1.0000 0.75110  0.52510  0.51420  Biso   1.000  H
  O37      1.0000 0.72727  0.58220  0.45568  Biso   1.000  O
  C50      1.0000 0.66210  0.59160  0.54930  Biso   1.000  C
  H86      1.0000 0.66260  0.54150  0.55920  Biso   1.000  H
  H87      1.0000 0.64440  0.61820  0.57680  Biso   1.000  H
  O38      1.0000 0.62932  0.59890  0.50510  Biso   1.000  O
  C51      1.0000 0.72470  0.69630  0.53320  Biso   1.000  C
  H88      1.0000 0.70610  0.72180  0.56060  Biso   1.000  H
  H89      1.0000 0.76370  0.71040  0.53360  Biso   1.000  H
  O39      1.0000 0.70130  0.71820  0.48676  Biso   1.000  O
  C52      1.0000 0.74970  0.60540  0.59430  Biso   1.000  C
  H90      1.0000 0.74480  0.55650  0.60480  Biso   1.000  H
  H91      1.0000 0.73370  0.63670  0.61950  Biso   1.000  H
  H92      1.0000 0.78880  0.61550  0.59090  Biso   1.000  H
  C53      1.0000 0.69000  0.40860  0.48400  Biso   1.000  C
  C54      1.0000 0.68130  0.34510  0.51570  Biso   1.000  C
  H93      1.0000 0.71110  0.34120  0.54020  Biso   1.000  H
  H94      1.0000 0.68080  0.30310  0.49450  Biso   1.000  H
  H95      1.0000 0.64620  0.34910  0.53340  Biso   1.000  H
  O40      1.0000 0.65094  0.45432  0.48449  Biso   1.000  O
  O41      1.0000 0.73205  0.41520  0.45948  Biso   1.000  O
  C55      1.0000 0.44600  0.61200  0.33660  Biso   1.000  C
  C56      1.0000 0.38810  0.58780  0.33620  Biso   1.000  C
  H96      1.0000 0.36840  0.61070  0.30880  Biso   1.000  H
  H97      1.0000 0.37070  0.60000  0.36810  Biso   1.000  H
  H98      1.0000 0.38700  0.53680  0.33160  Biso   1.000  H
  O42      1.0000 0.47227  0.60090  0.37753  Biso   1.000  O
  O43      1.0000 0.46693  0.63900  0.29908  Biso   1.000  O
  C57      1.0000 0.63140  0.91670  0.35060  Biso   1.000  C
  C58      1.0000 0.60870  0.97800  0.32170  Biso   1.000  C
  H99      1.0000 0.61370  0.02120  0.34110  Biso   1.000  H
  H100     1.0000 0.56960  0.97040  0.31550  Biso   1.000  H
  H101     1.0000 0.62800  0.98210  0.28970  Biso   1.000  H
  O44      1.0000 0.61718  0.85580  0.33392  Biso   1.000  O
  O45      1.0000 0.66094  0.92680  0.38761  Biso   1.000  O
  C59      1.0000 0.72820  0.52030  0.26930  Biso   1.000  C
  C60      1.0000 0.73100  0.48910  0.22050  Biso   1.000  C
  H102     1.0000 0.75620  0.44900  0.22120  Biso   1.000  H
  H103     1.0000 0.74420  0.52400  0.19630  Biso   1.000  H
  H104     1.0000 0.69450  0.47300  0.21050  Biso   1.000  H
  O46      1.0000 0.68825  0.56610  0.27687  Biso   1.000  O
  O47      1.0000 0.76036  0.50190  0.30196  Biso   1.000  O
  C61      1.0000 0.55940  0.72160  0.58040  Biso   1.000  C
  C62      1.0000 0.54600  0.75800  0.62880  Biso   1.000  C
  H105     1.0000 0.55570  0.72740  0.65700  Biso   1.000  H
  H106     1.0000 0.50680  0.76860  0.63000  Biso   1.000  H
  H107     1.0000 0.56700  0.80180  0.63110  Biso   1.000  H
  O48      1.0000 0.59060  0.74670  0.54820  Biso   1.000  O
  O49      1.0000 0.53300  0.66060  0.57400  Biso   1.000  O
  C63      1.0000 0.84860  0.66290  0.42690  Biso   1.000  C
  C64      1.0000 0.90280  0.69980  0.42640  Biso   1.000  C
  H108     1.0000 0.93230  0.66510  0.42710  Biso   1.000  H
  H109     1.0000 0.90560  0.73040  0.45580  Biso   1.000  H
  H110     1.0000 0.90580  0.72820  0.39590  Biso   1.000  H
  O50      1.0000 0.80710  0.70250  0.43663  Biso   1.000  O
  O51      1.0000 0.84597  0.60070  0.41632  Biso   1.000  O
  Na5      1.0000 0.56090  0.68467  0.27456  Biso   1.000  Na
  Na6      1.0000 0.53191  0.57676  0.51192  Biso   1.000  Na
  Na7      1.0000 0.77500  0.51807  0.38983  Biso   1.000  Na
  Na8      1.0000 0.68948  0.85395  0.45665  Biso   1.000  Na
  O52      1.0000 0.55047  0.45718  0.52970  Biso   1.000  O
  H111     1.0000 0.54870  0.43920  0.55830  Biso   1.000  H
  H112     1.0000 0.58150  0.44710  0.51820  Biso   1.000  H
  Mn13     1.0000 0.13089  0.73950  0.62978  Biso   1.000  Mn
  Mn14     1.0000 0.22795  0.81987  0.57551  Biso   1.000  Mn
  Mn15     1.0000 0.15148  0.95066  0.55390  Biso   1.000  Mn
  Mn16     1.0000 0.16777  0.89114  0.66100  Biso   1.000  Mn
  Mn17     1.0000 0.05422  0.87106  0.60968  Biso   1.000  Mn
  Mn18     1.0000 0.11417  0.79640  0.51741  Biso   1.000  Mn
  O53      1.0000 0.14561  0.84770  0.59617  Biso   1.000  O
  C65      1.0000 0.00760  0.71040  0.57450  Biso   1.000  C
  C66      1.0000 0.05890  0.67010  0.55760  Biso   1.000  C
  H113     1.0000 0.06120  0.62570  0.57680  Biso   1.000  H
  H114     1.0000 0.05490  0.65780  0.52180  Biso   1.000  H
  O54      1.0000 0.10878  0.70843  0.56420  Biso   1.000  O
  C67      1.0000 0.01110  0.72890  0.62960  Biso   1.000  C
  H115     1.0000 0.97650  0.75180  0.63980  Biso   1.000  H
  H116     1.0000 0.01480  0.68510  0.64920  Biso   1.000  H
  O55      1.0000 0.05589  0.77462  0.64162  Biso   1.000  O
  C68      1.0000 0.99700  0.77570  0.54320  Biso   1.000  C
  H117     1.0000 0.99200  0.76130  0.50790  Biso   1.000  H
  H118     1.0000 0.96220  0.79720  0.55460  Biso   1.000  H
  O56      1.0000 0.03858  0.82743  0.54534  Biso   1.000  O
  C69      1.0000 0.95850  0.66020  0.56770  Biso   1.000  C
  H119     1.0000 0.92510  0.68300  0.57990  Biso   1.000  H
  H120     1.0000 0.96490  0.61700  0.58670  Biso   1.000  H
  H121     1.0000 0.95420  0.64890  0.53210  Biso   1.000  H
  C70      1.0000 0.08600  0.03800  0.64690  Biso   1.000  C
  C71      1.0000 0.07300  0.98140  0.68540  Biso   1.000  C
  H122     1.0000 0.09200  0.99330  0.71710  Biso   1.000  H
  H123     1.0000 0.03320  0.98230  0.69220  Biso   1.000  H
  O57      1.0000 0.08817  0.91134  0.67125  Biso   1.000  O
  C72      1.0000 0.14710  0.04540  0.63840  Biso   1.000  C
  H124     1.0000 0.15340  0.08550  0.61550  Biso   1.000  H
  H125     1.0000 0.16470  0.05700  0.67080  Biso   1.000  H
  O58      1.0000 0.17310  0.98498  0.61814  Biso   1.000  O
  C73      1.0000 0.05680  0.02430  0.59770  Biso   1.000  C
  H126     1.0000 0.01690  0.02220  0.60410  Biso   1.000  H
  H127     1.0000 0.06360  0.06440  0.57500  Biso   1.000  H
  O59      1.0000 0.07305  0.96067  0.57258  Biso   1.000  O
  C74      1.0000 0.06460  0.10820  0.66810  Biso   1.000  C
  H128     1.0000 0.08280  0.11810  0.70010  Biso   1.000  H
  H129     1.0000 0.02500  0.10490  0.67340  Biso   1.000  H
  H130     1.0000 0.07240  0.14610  0.64440  Biso   1.000  H
  C75      1.0000 0.25090  0.75030  0.69210  Biso   1.000  C
  C76      1.0000 0.24610  0.70270  0.64700  Biso   1.000  C
  H131     1.0000 0.28270  0.69770  0.63140  Biso   1.000  H
  H132     1.0000 0.23430  0.65560  0.65830  Biso   1.000  H
  O60      1.0000 0.20835  0.72760  0.60997  Biso   1.000  O
  C77      1.0000 0.27420  0.82150  0.67800  Biso   1.000  C
  H133     1.0000 0.27730  0.85040  0.70870  Biso   1.000  H
  H134     1.0000 0.31160  0.81470  0.66450  Biso   1.000  H
  O61      1.0000 0.24225  0.85998  0.64158  Biso   1.000  O
  C78      1.0000 0.19620  0.75750  0.71970  Biso   1.000  C
  H135     1.0000 0.18460  0.71050  0.73140  Biso   1.000  H
  H136     1.0000 0.20180  0.78730  0.74960  Biso   1.000  H
  O62      1.0000 0.15327  0.78712  0.69001  Biso   1.000  O
  C79      1.0000 0.29140  0.71580  0.72880  Biso   1.000  C
  H137     1.0000 0.32770  0.71320  0.71320  Biso   1.000  H
  H138     1.0000 0.27870  0.66840  0.73700  Biso   1.000  H
  H139     1.0000 0.29350  0.74400  0.75940  Biso   1.000  H
  C80      1.0000 0.22130  0.88300  0.45580  Biso   1.000  C
  C81      1.0000 0.25110  0.92470  0.49540  Biso   1.000  C
  H140     1.0000 0.28970  0.90890  0.49680  Biso   1.000  H
  H141     1.0000 0.25110  0.97490  0.48580  Biso   1.000  H
  O63      1.0000 0.22727  0.91780  0.54432  Biso   1.000  O
  C82      1.0000 0.16210  0.90840  0.45070  Biso   1.000  C
  H142     1.0000 0.16260  0.95850  0.44080  Biso   1.000  H
  H143     1.0000 0.14440  0.88180  0.42320  Biso   1.000  H
  O64      1.0000 0.12932  0.90110  0.49490  Biso   1.000  O
  C83      1.0000 0.22470  0.80370  0.46680  Biso   1.000  C
  H144     1.0000 0.20610  0.77820  0.43940  Biso   1.000  H
  H145     1.0000 0.26370  0.78960  0.46640  Biso   1.000  H
  O65      1.0000 0.20130  0.78180  0.51324  Biso   1.000  O
  C84      1.0000 0.24970  0.89460  0.40570  Biso   1.000  C
  H146     1.0000 0.24480  0.94350  0.39520  Biso   1.000  H
  H147     1.0000 0.23370  0.86330  0.38050  Biso   1.000  H
  H148     1.0000 0.28880  0.88450  0.40910  Biso   1.000  H
  C85      1.0000 0.19000  0.09140  0.51600  Biso   1.000  C
  C86      1.0000 0.18130  0.15490  0.48430  Biso   1.000  C
  H149     1.0000 0.21110  0.15880  0.45980  Biso   1.000  H
  H150     1.0000 0.18080  0.19690  0.50550  Biso   1.000  H
  H151     1.0000 0.14620  0.15090  0.46660  Biso   1.000  H
  O66      1.0000 0.15094  0.04568  0.51551  Biso   1.000  O
  O67      1.0000 0.23205  0.08480  0.54052  Biso   1.000  O
  C87      1.0000 0.94600  0.88800  0.66340  Biso   1.000  C
  C88      1.0000 0.88810  0.91220  0.66380  Biso   1.000  C
  H152     1.0000 0.86840  0.88930  0.69120  Biso   1.000  H
  H153     1.0000 0.87070  0.90000  0.63190  Biso   1.000  H
  H154     1.0000 0.88700  0.96320  0.66840  Biso   1.000  H
  O68      1.0000 0.97227  0.89910  0.62247  Biso   1.000  O
  O69      1.0000 0.96693  0.86100  0.70092  Biso   1.000  O
  C89      1.0000 0.13140  0.58330  0.64940  Biso   1.000  C
  C90      1.0000 0.10870  0.52200  0.67830  Biso   1.000  C
  H155     1.0000 0.11370  0.47880  0.65890  Biso   1.000  H
  H156     1.0000 0.06960  0.52960  0.68450  Biso   1.000  H
  H157     1.0000 0.12800  0.51790  0.71030  Biso   1.000  H
  O70      1.0000 0.11718  0.64420  0.66608  Biso   1.000  O
  O71      1.0000 0.16094  0.57320  0.61239  Biso   1.000  O
  C91      1.0000 0.22820  0.97970  0.73070  Biso   1.000  C
  C92      1.0000 0.23100  0.01090  0.77950  Biso   1.000  C
  H158     1.0000 0.25620  0.05100  0.77880  Biso   1.000  H
  H159     1.0000 0.24420  0.97600  0.80370  Biso   1.000  H
  H160     1.0000 0.19450  0.02700  0.78950  Biso   1.000  H
  O72      1.0000 0.18825  0.93390  0.72313  Biso   1.000  O
  O73      1.0000 0.26036  0.99810  0.69804  Biso   1.000  O
  C93      1.0000 0.05940  0.77840  0.41960  Biso   1.000  C
  C94      1.0000 0.04600  0.74200  0.37120  Biso   1.000  C
  H161     1.0000 0.05570  0.77260  0.34300  Biso   1.000  H
  H162     1.0000 0.00680  0.73140  0.37000  Biso   1.000  H
  H163     1.0000 0.06700  0.69820  0.36890  Biso   1.000  H
  O74      1.0000 0.09060  0.75330  0.45180  Biso   1.000  O
  O75      1.0000 0.03300  0.83940  0.42600  Biso   1.000  O
  C95      1.0000 0.34860  0.83710  0.57310  Biso   1.000  C
  C96      1.0000 0.40280  0.80020  0.57360  Biso   1.000  C
  H164     1.0000 0.43230  0.83490  0.57290  Biso   1.000  H
  H165     1.0000 0.40560  0.76960  0.54420  Biso   1.000  H
  H166     1.0000 0.40580  0.77180  0.60410  Biso   1.000  H
  O76      1.0000 0.30710  0.79750  0.56337  Biso   1.000  O
  O77      1.0000 0.34597  0.89930  0.58368  Biso   1.000  O
  Na9      1.0000 0.06090  0.81533  0.72544  Biso   1.000  Na
  Na10     1.0000 0.03191  0.92324  0.48808  Biso   1.000  Na
  Na11     1.0000 0.27500  0.98193  0.61017  Biso   1.000  Na
  Na12     1.0000 0.18948  0.64605  0.54335  Biso   1.000  Na
  O78      1.0000 0.05047  0.04282  0.47030  Biso   1.000  O
  H167     1.0000 0.04870  0.06080  0.44170  Biso   1.000  H
  H168     1.0000 0.08150  0.05290  0.48180  Biso   1.000  H
  Mn19     1.0000 0.36911  0.76050  0.12978  Biso   1.000  Mn
  Mn20     1.0000 0.27205  0.68013  0.07551  Biso   1.000  Mn
  Mn21     1.0000 0.34852  0.54934  0.05390  Biso   1.000  Mn
  Mn22     1.0000 0.33223  0.60886  0.16100  Biso   1.000  Mn
  Mn23     1.0000 0.44578  0.62894  0.10968  Biso   1.000  Mn
  Mn24     1.0000 0.38583  0.70360  0.01741  Biso   1.000  Mn
  O79      1.0000 0.35439  0.65230  0.09617  Biso   1.000  O
  C97      1.0000 0.49240  0.78960  0.07450  Biso   1.000  C
  C98      1.0000 0.44110  0.82990  0.05760  Biso   1.000  C
  H169     1.0000 0.43880  0.87430  0.07680  Biso   1.000  H
  H170     1.0000 0.44510  0.84220  0.02180  Biso   1.000  H
  O80      1.0000 0.39122  0.79157  0.06420  Biso   1.000  O
  C99      1.0000 0.48890  0.77110  0.12960  Biso   1.000  C
  H171     1.0000 0.52350  0.74820  0.13980  Biso   1.000  H
  H172     1.0000 0.48520  0.81490  0.14920  Biso   1.000  H
  O81      1.0000 0.44411  0.72538  0.14162  Biso   1.000  O
  C100     1.0000 0.50300  0.72430  0.04320  Biso   1.000  C
  H173     1.0000 0.50800  0.73870  0.00790  Biso   1.000  H
  H174     1.0000 0.53780  0.70280  0.05460  Biso   1.000  H
  O82      1.0000 0.46142  0.67257  0.04534  Biso   1.000  O
  C101     1.0000 0.54150  0.83980  0.06770  Biso   1.000  C
  H175     1.0000 0.57490  0.81700  0.07990  Biso   1.000  H
  H176     1.0000 0.53510  0.88300  0.08670  Biso   1.000  H
  H177     1.0000 0.54580  0.85110  0.03210  Biso   1.000  H
  C102     1.0000 0.41400  0.46200  0.14690  Biso   1.000  C
  C103     1.0000 0.42700  0.51860  0.18540  Biso   1.000  C
  H178     1.0000 0.40800  0.50670  0.21710  Biso   1.000  H
  H179     1.0000 0.46680  0.51770  0.19220  Biso   1.000  H
  O83      1.0000 0.41183  0.58866  0.17125  Biso   1.000  O
  C104     1.0000 0.35290  0.45460  0.13840  Biso   1.000  C
  H180     1.0000 0.34660  0.41450  0.11550  Biso   1.000  H
  H181     1.0000 0.33530  0.44300  0.17080  Biso   1.000  H
  O84      1.0000 0.32690  0.51502  0.11814  Biso   1.000  O
  C105     1.0000 0.44320  0.47570  0.09770  Biso   1.000  C
  H182     1.0000 0.48310  0.47780  0.10410  Biso   1.000  H
  H183     1.0000 0.43640  0.43560  0.07500  Biso   1.000  H
  O85      1.0000 0.42695  0.53933  0.07258  Biso   1.000  O
  C106     1.0000 0.43540  0.39180  0.16810  Biso   1.000  C
  H184     1.0000 0.41720  0.38190  0.20010  Biso   1.000  H
  H185     1.0000 0.47500  0.39510  0.17340  Biso   1.000  H
  H186     1.0000 0.42760  0.35390  0.14440  Biso   1.000  H
  C107     1.0000 0.24910  0.74970  0.19210  Biso   1.000  C
  C108     1.0000 0.25390  0.79730  0.14700  Biso   1.000  C
  H187     1.0000 0.21730  0.80230  0.13140  Biso   1.000  H
  H188     1.0000 0.26570  0.84440  0.15830  Biso   1.000  H
  O86      1.0000 0.29165  0.77240  0.10997  Biso   1.000  O
  C109     1.0000 0.22580  0.67850  0.17800  Biso   1.000  C
  H189     1.0000 0.22270  0.64960  0.20870  Biso   1.000  H
  H190     1.0000 0.18840  0.68530  0.16450  Biso   1.000  H
  O87      1.0000 0.25775  0.64002  0.14158  Biso   1.000  O
  C110     1.0000 0.30380  0.74250  0.21970  Biso   1.000  C
  H191     1.0000 0.31540  0.78950  0.23140  Biso   1.000  H
  H192     1.0000 0.29820  0.71270  0.24960  Biso   1.000  H
  O88      1.0000 0.34673  0.71288  0.19001  Biso   1.000  O
  C111     1.0000 0.20860  0.78420  0.22880  Biso   1.000  C
  H193     1.0000 0.17230  0.78680  0.21320  Biso   1.000  H
  H194     1.0000 0.22130  0.83160  0.23700  Biso   1.000  H
  H195     1.0000 0.20650  0.75600  0.25940  Biso   1.000  H
  C112     1.0000 0.27870  0.61700  0.95580  Biso   1.000  C
  C113     1.0000 0.24890  0.57530  0.99540  Biso   1.000  C
  H196     1.0000 0.21030  0.59110  0.99680  Biso   1.000  H
  H197     1.0000 0.24890  0.52510  0.98580  Biso   1.000  H
  O89      1.0000 0.27273  0.58220  0.04432  Biso   1.000  O
  C114     1.0000 0.33790  0.59160  0.95070  Biso   1.000  C
  H198     1.0000 0.33740  0.54150  0.94080  Biso   1.000  H
  H199     1.0000 0.35560  0.61820  0.92320  Biso   1.000  H
  O90      1.0000 0.37068  0.59890  0.99490  Biso   1.000  O
  C115     1.0000 0.27530  0.69630  0.96680  Biso   1.000  C
  H200     1.0000 0.29390  0.72180  0.93940  Biso   1.000  H
  H201     1.0000 0.23630  0.71040  0.96640  Biso   1.000  H
  O91      1.0000 0.29870  0.71820  0.01324  Biso   1.000  O
  C116     1.0000 0.25030  0.60540  0.90570  Biso   1.000  C
  H202     1.0000 0.25520  0.55650  0.89520  Biso   1.000  H
  H203     1.0000 0.26630  0.63670  0.88050  Biso   1.000  H
  H204     1.0000 0.21120  0.61550  0.90910  Biso   1.000  H
  C117     1.0000 0.31000  0.40860  0.01600  Biso   1.000  C
  C118     1.0000 0.31870  0.34510  0.98430  Biso   1.000  C
  H205     1.0000 0.28890  0.34120  0.95980  Biso   1.000  H
  H206     1.0000 0.31920  0.30310  0.00550  Biso   1.000  H
  H207     1.0000 0.35380  0.34910  0.96660  Biso   1.000  H
  O92      1.0000 0.34906  0.45432  0.01551  Biso   1.000  O
  O93      1.0000 0.26795  0.41520  0.04052  Biso   1.000  O
  C119     1.0000 0.55400  0.61200  0.16340  Biso   1.000  C
  C120     1.0000 0.61190  0.58780  0.16380  Biso   1.000  C
  H208     1.0000 0.63160  0.61070  0.19120  Biso   1.000  H
  H209     1.0000 0.62930  0.60000  0.13190  Biso   1.000  H
  H210     1.0000 0.61300  0.53680  0.16840  Biso   1.000  H
  O94      1.0000 0.52773  0.60090  0.12247  Biso   1.000  O
  O95      1.0000 0.53307  0.63900  0.20092  Biso   1.000  O
  C121     1.0000 0.36860  0.91670  0.14940  Biso   1.000  C
  C122     1.0000 0.39130  0.97800  0.17830  Biso   1.000  C
  H211     1.0000 0.38630  0.02120  0.15890  Biso   1.000  H
  H212     1.0000 0.43040  0.97040  0.18450  Biso   1.000  H
  H213     1.0000 0.37200  0.98210  0.21030  Biso   1.000  H
  O96      1.0000 0.38282  0.85580  0.16608  Biso   1.000  O
  O97      1.0000 0.33906  0.92680  0.11239  Biso   1.000  O
  C123     1.0000 0.27180  0.52030  0.23070  Biso   1.000  C
  C124     1.0000 0.26900  0.48910  0.27950  Biso   1.000  C
  H214     1.0000 0.24380  0.44900  0.27880  Biso   1.000  H
  H215     1.0000 0.25580  0.52400  0.30370  Biso   1.000  H
  H216     1.0000 0.30550  0.47300  0.28950  Biso   1.000  H
  O98      1.0000 0.31175  0.56610  0.22313  Biso   1.000  O
  O99      1.0000 0.23964  0.50190  0.19804  Biso   1.000  O
  C125     1.0000 0.44060  0.72160  0.91960  Biso   1.000  C
  C126     1.0000 0.45400  0.75800  0.87120  Biso   1.000  C
  H217     1.0000 0.44430  0.72740  0.84300  Biso   1.000  H
  H218     1.0000 0.49320  0.76860  0.87000  Biso   1.000  H
  H219     1.0000 0.43300  0.80180  0.86890  Biso   1.000  H
  O100     1.0000 0.40940  0.74670  0.95180  Biso   1.000  O
  O101     1.0000 0.46700  0.66060  0.92600  Biso   1.000  O
  C127     1.0000 0.15140  0.66290  0.07310  Biso   1.000  C
  C128     1.0000 0.09720  0.69980  0.07360  Biso   1.000  C
  H220     1.0000 0.06770  0.66510  0.07290  Biso   1.000  H
  H221     1.0000 0.09440  0.73040  0.04420  Biso   1.000  H
  H222     1.0000 0.09420  0.72820  0.10410  Biso   1.000  H
  O102     1.0000 0.19290  0.70250  0.06337  Biso   1.000  O
  O103     1.0000 0.15403  0.60070  0.08368  Biso   1.000  O
  Na13     1.0000 0.43910  0.68467  0.22544  Biso   1.000  Na
  Na14     1.0000 0.46809  0.57676  0.98808  Biso   1.000  Na
  Na15     1.0000 0.22500  0.51807  0.11017  Biso   1.000  Na
  Na16     1.0000 0.31052  0.85395  0.04335  Biso   1.000  Na
  O104     1.0000 0.44953  0.45718  0.97030  Biso   1.000  O
  H223     1.0000 0.45130  0.43920  0.94170  Biso   1.000  H
  H224     1.0000 0.41850  0.44710  0.98180  Biso   1.000  H
  Mn25     1.0000 0.13089  0.26050  0.12978  Biso   1.000  Mn
  Mn26     1.0000 0.22795  0.18013  0.07551  Biso   1.000  Mn
  Mn27     1.0000 0.15148  0.04934  0.05390  Biso   1.000  Mn
  Mn28     1.0000 0.16777  0.10886  0.16100  Biso   1.000  Mn
  Mn29     1.0000 0.05422  0.12894  0.10968  Biso   1.000  Mn
  Mn30     1.0000 0.11417  0.20360  0.01741  Biso   1.000  Mn
  O105     1.0000 0.14561  0.15230  0.09617  Biso   1.000  O
  C129     1.0000 0.00760  0.28960  0.07450  Biso   1.000  C
  C130     1.0000 0.05890  0.32990  0.05760  Biso   1.000  C
  H225     1.0000 0.06120  0.37430  0.07680  Biso   1.000  H
  H226     1.0000 0.05490  0.34220  0.02180  Biso   1.000  H
  O106     1.0000 0.10878  0.29157  0.06420  Biso   1.000  O
  C131     1.0000 0.01110  0.27110  0.12960  Biso   1.000  C
  H227     1.0000 0.97650  0.24820  0.13980  Biso   1.000  H
  H228     1.0000 0.01480  0.31490  0.14920  Biso   1.000  H
  O107     1.0000 0.05589  0.22538  0.14162  Biso   1.000  O
  C132     1.0000 0.99700  0.22430  0.04320  Biso   1.000  C
  H229     1.0000 0.99200  0.23870  0.00790  Biso   1.000  H
  H230     1.0000 0.96220  0.20280  0.05460  Biso   1.000  H
  O108     1.0000 0.03858  0.17257  0.04534  Biso   1.000  O
  C133     1.0000 0.95850  0.33980  0.06770  Biso   1.000  C
  H231     1.0000 0.92510  0.31700  0.07990  Biso   1.000  H
  H232     1.0000 0.96490  0.38300  0.08670  Biso   1.000  H
  H233     1.0000 0.95420  0.35110  0.03210  Biso   1.000  H
  C134     1.0000 0.08600  0.96200  0.14690  Biso   1.000  C
  C135     1.0000 0.07300  0.01860  0.18540  Biso   1.000  C
  H234     1.0000 0.09200  0.00670  0.21710  Biso   1.000  H
  H235     1.0000 0.03320  0.01770  0.19220  Biso   1.000  H
  O109     1.0000 0.08817  0.08866  0.17125  Biso   1.000  O
  C136     1.0000 0.14710  0.95460  0.13840  Biso   1.000  C
  H236     1.0000 0.15340  0.91450  0.11550  Biso   1.000  H
  H237     1.0000 0.16470  0.94300  0.17080  Biso   1.000  H
  O110     1.0000 0.17310  0.01502  0.11814  Biso   1.000  O
  C137     1.0000 0.05680  0.97570  0.09770  Biso   1.000  C
  H238     1.0000 0.01690  0.97780  0.10410  Biso   1.000  H
  H239     1.0000 0.06360  0.93560  0.07500  Biso   1.000  H
  O111     1.0000 0.07305  0.03933  0.07258  Biso   1.000  O
  C138     1.0000 0.06460  0.89180  0.16810  Biso   1.000  C
  H240     1.0000 0.08280  0.88190  0.20010  Biso   1.000  H
  H241     1.0000 0.02500  0.89510  0.17340  Biso   1.000  H
  H242     1.0000 0.07240  0.85390  0.14440  Biso   1.000  H
  C139     1.0000 0.25090  0.24970  0.19210  Biso   1.000  C
  C140     1.0000 0.24610  0.29730  0.14700  Biso   1.000  C
  H243     1.0000 0.28270  0.30230  0.13140  Biso   1.000  H
  H244     1.0000 0.23430  0.34440  0.15830  Biso   1.000  H
  O112     1.0000 0.20835  0.27240  0.10997  Biso   1.000  O
  C141     1.0000 0.27420  0.17850  0.17800  Biso   1.000  C
  H245     1.0000 0.27730  0.14960  0.20870  Biso   1.000  H
  H246     1.0000 0.31160  0.18530  0.16450  Biso   1.000  H
  O113     1.0000 0.24225  0.14002  0.14158  Biso   1.000  O
  C142     1.0000 0.19620  0.24250  0.21970  Biso   1.000  C
  H247     1.0000 0.18460  0.28950  0.23140  Biso   1.000  H
  H248     1.0000 0.20180  0.21270  0.24960  Biso   1.000  H
  O114     1.0000 0.15327  0.21288  0.19001  Biso   1.000  O
  C143     1.0000 0.29140  0.28420  0.22880  Biso   1.000  C
  H249     1.0000 0.32770  0.28680  0.21320  Biso   1.000  H
  H250     1.0000 0.27870  0.33160  0.23700  Biso   1.000  H
  H251     1.0000 0.29350  0.25600  0.25940  Biso   1.000  H
  C144     1.0000 0.22130  0.11700  0.95580  Biso   1.000  C
  C145     1.0000 0.25110  0.07530  0.99540  Biso   1.000  C
  H252     1.0000 0.28970  0.09110  0.99680  Biso   1.000  H
  H253     1.0000 0.25110  0.02510  0.98580  Biso   1.000  H
  O115     1.0000 0.22727  0.08220  0.04432  Biso   1.000  O
  C146     1.0000 0.16210  0.09160  0.95070  Biso   1.000  C
  H254     1.0000 0.16260  0.04150  0.94080  Biso   1.000  H
  H255     1.0000 0.14440  0.11820  0.92320  Biso   1.000  H
  O116     1.0000 0.12932  0.09890  0.99490  Biso   1.000  O
  C147     1.0000 0.22470  0.19630  0.96680  Biso   1.000  C
  H256     1.0000 0.20610  0.22180  0.93940  Biso   1.000  H
  H257     1.0000 0.26370  0.21040  0.96640  Biso   1.000  H
  O117     1.0000 0.20130  0.21820  0.01324  Biso   1.000  O
  C148     1.0000 0.24970  0.10540  0.90570  Biso   1.000  C
  H258     1.0000 0.24480  0.05650  0.89520  Biso   1.000  H
  H259     1.0000 0.23370  0.13670  0.88050  Biso   1.000  H
  H260     1.0000 0.28880  0.11550  0.90910  Biso   1.000  H
  C149     1.0000 0.19000  0.90860  0.01600  Biso   1.000  C
  C150     1.0000 0.18130  0.84510  0.98430  Biso   1.000  C
  H261     1.0000 0.21110  0.84120  0.95980  Biso   1.000  H
  H262     1.0000 0.18080  0.80310  0.00550  Biso   1.000  H
  H263     1.0000 0.14620  0.84910  0.96660  Biso   1.000  H
  O118     1.0000 0.15094  0.95432  0.01551  Biso   1.000  O
  O119     1.0000 0.23205  0.91520  0.04052  Biso   1.000  O
  C151     1.0000 0.94600  0.11200  0.16340  Biso   1.000  C
  C152     1.0000 0.88810  0.08780  0.16380  Biso   1.000  C
  H264     1.0000 0.86840  0.11070  0.19120  Biso   1.000  H
  H265     1.0000 0.87070  0.10000  0.13190  Biso   1.000  H
  H266     1.0000 0.88700  0.03680  0.16840  Biso   1.000  H
  O120     1.0000 0.97227  0.10090  0.12247  Biso   1.000  O
  O121     1.0000 0.96693  0.13900  0.20092  Biso   1.000  O
  C153     1.0000 0.13140  0.41670  0.14940  Biso   1.000  C
  C154     1.0000 0.10870  0.47800  0.17830  Biso   1.000  C
  H267     1.0000 0.11370  0.52120  0.15890  Biso   1.000  H
  H268     1.0000 0.06960  0.47040  0.18450  Biso   1.000  H
  H269     1.0000 0.12800  0.48210  0.21030  Biso   1.000  H
  O122     1.0000 0.11718  0.35580  0.16608  Biso   1.000  O
  O123     1.0000 0.16094  0.42680  0.11239  Biso   1.000  O
  C155     1.0000 0.22820  0.02030  0.23070  Biso   1.000  C
  C156     1.0000 0.23100  0.98910  0.27950  Biso   1.000  C
  H270     1.0000 0.25620  0.94900  0.27880  Biso   1.000  H
  H271     1.0000 0.24420  0.02400  0.30370  Biso   1.000  H
  H272     1.0000 0.19450  0.97300  0.28950  Biso   1.000  H
  O124     1.0000 0.18825  0.06610  0.22313  Biso   1.000  O
  O125     1.0000 0.26036  0.00190  0.19804  Biso   1.000  O
  C157     1.0000 0.05940  0.22160  0.91960  Biso   1.000  C
  C158     1.0000 0.04600  0.25800  0.87120  Biso   1.000  C
  H273     1.0000 0.05570  0.22740  0.84300  Biso   1.000  H
  H274     1.0000 0.00680  0.26860  0.87000  Biso   1.000  H
  H275     1.0000 0.06700  0.30180  0.86890  Biso   1.000  H
  O126     1.0000 0.09060  0.24670  0.95180  Biso   1.000  O
  O127     1.0000 0.03300  0.16060  0.92600  Biso   1.000  O
  C159     1.0000 0.34860  0.16290  0.07310  Biso   1.000  C
  C160     1.0000 0.40280  0.19980  0.07360  Biso   1.000  C
  H276     1.0000 0.43230  0.16510  0.07290  Biso   1.000  H
  H277     1.0000 0.40560  0.23040  0.04420  Biso   1.000  H
  H278     1.0000 0.40580  0.22820  0.10410  Biso   1.000  H
  O128     1.0000 0.30710  0.20250  0.06337  Biso   1.000  O
  O129     1.0000 0.34597  0.10070  0.08368  Biso   1.000  O
  Na17     1.0000 0.06090  0.18467  0.22544  Biso   1.000  Na
  Na18     1.0000 0.03191  0.07676  0.98808  Biso   1.000  Na
  Na19     1.0000 0.27500  0.01807  0.11017  Biso   1.000  Na
  Na20     1.0000 0.18948  0.35395  0.04335  Biso   1.000  Na
  O130     1.0000 0.05047  0.95718  0.97030  Biso   1.000  O
  H279     1.0000 0.04870  0.93920  0.94170  Biso   1.000  H
  H280     1.0000 0.08150  0.94710  0.98180  Biso   1.000  H
  Mn31     1.0000 0.36911  0.23950  0.62978  Biso   1.000  Mn
  Mn32     1.0000 0.27205  0.31987  0.57551  Biso   1.000  Mn
  Mn33     1.0000 0.34852  0.45066  0.55390  Biso   1.000  Mn
  Mn34     1.0000 0.33223  0.39114  0.66100  Biso   1.000  Mn
  Mn35     1.0000 0.44578  0.37106  0.60968  Biso   1.000  Mn
  Mn36     1.0000 0.38583  0.29640  0.51741  Biso   1.000  Mn
  O131     1.0000 0.35439  0.34770  0.59617  Biso   1.000  O
  C161     1.0000 0.49240  0.21040  0.57450  Biso   1.000  C
  C162     1.0000 0.44110  0.17010  0.55760  Biso   1.000  C
  H281     1.0000 0.43880  0.12570  0.57680  Biso   1.000  H
  H282     1.0000 0.44510  0.15780  0.52180  Biso   1.000  H
  O132     1.0000 0.39122  0.20843  0.56420  Biso   1.000  O
  C163     1.0000 0.48890  0.22890  0.62960  Biso   1.000  C
  H283     1.0000 0.52350  0.25180  0.63980  Biso   1.000  H
  H284     1.0000 0.48520  0.18510  0.64920  Biso   1.000  H
  O133     1.0000 0.44411  0.27462  0.64162  Biso   1.000  O
  C164     1.0000 0.50300  0.27570  0.54320  Biso   1.000  C
  H285     1.0000 0.50800  0.26130  0.50790  Biso   1.000  H
  H286     1.0000 0.53780  0.29720  0.55460  Biso   1.000  H
  O134     1.0000 0.46142  0.32743  0.54534  Biso   1.000  O
  C165     1.0000 0.54150  0.16020  0.56770  Biso   1.000  C
  H287     1.0000 0.57490  0.18300  0.57990  Biso   1.000  H
  H288     1.0000 0.53510  0.11700  0.58670  Biso   1.000  H
  H289     1.0000 0.54580  0.14890  0.53210  Biso   1.000  H
  C166     1.0000 0.41400  0.53800  0.64690  Biso   1.000  C
  C167     1.0000 0.42700  0.48140  0.68540  Biso   1.000  C
  H290     1.0000 0.40800  0.49330  0.71710  Biso   1.000  H
  H291     1.0000 0.46680  0.48230  0.69220  Biso   1.000  H
  O135     1.0000 0.41183  0.41134  0.67125  Biso   1.000  O
  C168     1.0000 0.35290  0.54540  0.63840  Biso   1.000  C
  H292     1.0000 0.34660  0.58550  0.61550  Biso   1.000  H
  H293     1.0000 0.33530  0.55700  0.67080  Biso   1.000  H
  O136     1.0000 0.32690  0.48498  0.61814  Biso   1.000  O
  C169     1.0000 0.44320  0.52430  0.59770  Biso   1.000  C
  H294     1.0000 0.48310  0.52220  0.60410  Biso   1.000  H
  H295     1.0000 0.43640  0.56440  0.57500  Biso   1.000  H
  O137     1.0000 0.42695  0.46067  0.57258  Biso   1.000  O
  C170     1.0000 0.43540  0.60820  0.66810  Biso   1.000  C
  H296     1.0000 0.41720  0.61810  0.70010  Biso   1.000  H
  H297     1.0000 0.47500  0.60490  0.67340  Biso   1.000  H
  H298     1.0000 0.42760  0.64610  0.64440  Biso   1.000  H
  C171     1.0000 0.24910  0.25030  0.69210  Biso   1.000  C
  C172     1.0000 0.25390  0.20270  0.64700  Biso   1.000  C
  H299     1.0000 0.21730  0.19770  0.63140  Biso   1.000  H
  H300     1.0000 0.26570  0.15560  0.65830  Biso   1.000  H
  O138     1.0000 0.29165  0.22760  0.60997  Biso   1.000  O
  C173     1.0000 0.22580  0.32150  0.67800  Biso   1.000  C
  H301     1.0000 0.22270  0.35040  0.70870  Biso   1.000  H
  H302     1.0000 0.18840  0.31470  0.66450  Biso   1.000  H
  O139     1.0000 0.25775  0.35998  0.64158  Biso   1.000  O
  C174     1.0000 0.30380  0.25750  0.71970  Biso   1.000  C
  H303     1.0000 0.31540  0.21050  0.73140  Biso   1.000  H
  H304     1.0000 0.29820  0.28730  0.74960  Biso   1.000  H
  O140     1.0000 0.34673  0.28712  0.69001  Biso   1.000  O
  C175     1.0000 0.20860  0.21580  0.72880  Biso   1.000  C
  H305     1.0000 0.17230  0.21320  0.71320  Biso   1.000  H
  H306     1.0000 0.22130  0.16840  0.73700  Biso   1.000  H
  H307     1.0000 0.20650  0.24400  0.75940  Biso   1.000  H
  C176     1.0000 0.27870  0.38300  0.45580  Biso   1.000  C
  C177     1.0000 0.24890  0.42470  0.49540  Biso   1.000  C
  H308     1.0000 0.21030  0.40890  0.49680  Biso   1.000  H
  H309     1.0000 0.24890  0.47490  0.48580  Biso   1.000  H
  O141     1.0000 0.27273  0.41780  0.54432  Biso   1.000  O
  C178     1.0000 0.33790  0.40840  0.45070  Biso   1.000  C
  H310     1.0000 0.33740  0.45850  0.44080  Biso   1.000  H
  H311     1.0000 0.35560  0.38180  0.42320  Biso   1.000  H
  O142     1.0000 0.37068  0.40110  0.49490  Biso   1.000  O
  C179     1.0000 0.27530  0.30370  0.46680  Biso   1.000  C
  H312     1.0000 0.29390  0.27820  0.43940  Biso   1.000  H
  H313     1.0000 0.23630  0.28960  0.46640  Biso   1.000  H
  O143     1.0000 0.29870  0.28180  0.51324  Biso   1.000  O
  C180     1.0000 0.25030  0.39460  0.40570  Biso   1.000  C
  H314     1.0000 0.25520  0.44350  0.39520  Biso   1.000  H
  H315     1.0000 0.26630  0.36330  0.38050  Biso   1.000  H
  H316     1.0000 0.21120  0.38450  0.40910  Biso   1.000  H
  C181     1.0000 0.31000  0.59140  0.51600  Biso   1.000  C
  C182     1.0000 0.31870  0.65490  0.48430  Biso   1.000  C
  H317     1.0000 0.28890  0.65880  0.45980  Biso   1.000  H
  H318     1.0000 0.31920  0.69690  0.50550  Biso   1.000  H
  H319     1.0000 0.35380  0.65090  0.46660  Biso   1.000  H
  O144     1.0000 0.34906  0.54568  0.51551  Biso   1.000  O
  O145     1.0000 0.26795  0.58480  0.54052  Biso   1.000  O
  C183     1.0000 0.55400  0.38800  0.66340  Biso   1.000  C
  C184     1.0000 0.61190  0.41220  0.66380  Biso   1.000  C
  H320     1.0000 0.63160  0.38930  0.69120  Biso   1.000  H
  H321     1.0000 0.62930  0.40000  0.63190  Biso   1.000  H
  H322     1.0000 0.61300  0.46320  0.66840  Biso   1.000  H
  O146     1.0000 0.52773  0.39910  0.62247  Biso   1.000  O
  O147     1.0000 0.53307  0.36100  0.70092  Biso   1.000  O
  C185     1.0000 0.36860  0.08330  0.64940  Biso   1.000  C
  C186     1.0000 0.39130  0.02200  0.67830  Biso   1.000  C
  H323     1.0000 0.38630  0.97880  0.65890  Biso   1.000  H
  H324     1.0000 0.43040  0.02960  0.68450  Biso   1.000  H
  H325     1.0000 0.37200  0.01790  0.71030  Biso   1.000  H
  O148     1.0000 0.38282  0.14420  0.66608  Biso   1.000  O
  O149     1.0000 0.33906  0.07320  0.61239  Biso   1.000  O
  C187     1.0000 0.27180  0.47970  0.73070  Biso   1.000  C
  C188     1.0000 0.26900  0.51090  0.77950  Biso   1.000  C
  H326     1.0000 0.24380  0.55100  0.77880  Biso   1.000  H
  H327     1.0000 0.25580  0.47600  0.80370  Biso   1.000  H
  H328     1.0000 0.30550  0.52700  0.78950  Biso   1.000  H
  O150     1.0000 0.31175  0.43390  0.72313  Biso   1.000  O
  O151     1.0000 0.23964  0.49810  0.69804  Biso   1.000  O
  C189     1.0000 0.44060  0.27840  0.41960  Biso   1.000  C
  C190     1.0000 0.45400  0.24200  0.37120  Biso   1.000  C
  H329     1.0000 0.44430  0.27260  0.34300  Biso   1.000  H
  H330     1.0000 0.49320  0.23140  0.37000  Biso   1.000  H
  H331     1.0000 0.43300  0.19820  0.36890  Biso   1.000  H
  O152     1.0000 0.40940  0.25330  0.45180  Biso   1.000  O
  O153     1.0000 0.46700  0.33940  0.42600  Biso   1.000  O
  C191     1.0000 0.15140  0.33710  0.57310  Biso   1.000  C
  C192     1.0000 0.09720  0.30020  0.57360  Biso   1.000  C
  H332     1.0000 0.06770  0.33490  0.57290  Biso   1.000  H
  H333     1.0000 0.09440  0.26960  0.54420  Biso   1.000  H
  H334     1.0000 0.09420  0.27180  0.60410  Biso   1.000  H
  O154     1.0000 0.19290  0.29750  0.56337  Biso   1.000  O
  O155     1.0000 0.15403  0.39930  0.58368  Biso   1.000  O
  Na21     1.0000 0.43910  0.31533  0.72544  Biso   1.000  Na
  Na22     1.0000 0.46809  0.42324  0.48808  Biso   1.000  Na
  Na23     1.0000 0.22500  0.48193  0.61017  Biso   1.000  Na
  Na24     1.0000 0.31052  0.14605  0.54335  Biso   1.000  Na
  O156     1.0000 0.44953  0.54282  0.47030  Biso   1.000  O
  H335     1.0000 0.45130  0.56080  0.44170  Biso   1.000  H
  H336     1.0000 0.41850  0.55290  0.48180  Biso   1.000  H
  Mn37     1.0000 0.86911  0.26050  0.37022  Biso   1.000  Mn
  Mn38     1.0000 0.77205  0.18013  0.42449  Biso   1.000  Mn
  Mn39     1.0000 0.84852  0.04934  0.44610  Biso   1.000  Mn
  Mn40     1.0000 0.83223  0.10886  0.33900  Biso   1.000  Mn
  Mn41     1.0000 0.94578  0.12894  0.39032  Biso   1.000  Mn
  Mn42     1.0000 0.88583  0.20360  0.48259  Biso   1.000  Mn
  O157     1.0000 0.85439  0.15230  0.40383  Biso   1.000  O
  C193     1.0000 0.99240  0.28960  0.42550  Biso   1.000  C
  C194     1.0000 0.94110  0.32990  0.44240  Biso   1.000  C
  H337     1.0000 0.93880  0.37430  0.42320  Biso   1.000  H
  H338     1.0000 0.94510  0.34220  0.47820  Biso   1.000  H
  O158     1.0000 0.89122  0.29157  0.43580  Biso   1.000  O
  C195     1.0000 0.98890  0.27110  0.37040  Biso   1.000  C
  H339     1.0000 0.02350  0.24820  0.36020  Biso   1.000  H
  H340     1.0000 0.98520  0.31490  0.35080  Biso   1.000  H
  O159     1.0000 0.94411  0.22538  0.35838  Biso   1.000  O
  C196     1.0000 0.00300  0.22430  0.45680  Biso   1.000  C
  H341     1.0000 0.00800  0.23870  0.49210  Biso   1.000  H
  H342     1.0000 0.03780  0.20280  0.44540  Biso   1.000  H
  O160     1.0000 0.96142  0.17257  0.45466  Biso   1.000  O
  C197     1.0000 0.04150  0.33980  0.43230  Biso   1.000  C
  H343     1.0000 0.07490  0.31700  0.42010  Biso   1.000  H
  H344     1.0000 0.03510  0.38300  0.41330  Biso   1.000  H
  H345     1.0000 0.04580  0.35110  0.46790  Biso   1.000  H
  C198     1.0000 0.91400  0.96200  0.35310  Biso   1.000  C
  C199     1.0000 0.92700  0.01860  0.31460  Biso   1.000  C
  H346     1.0000 0.90800  0.00670  0.28290  Biso   1.000  H
  H347     1.0000 0.96680  0.01770  0.30780  Biso   1.000  H
  O161     1.0000 0.91183  0.08866  0.32875  Biso   1.000  O
  C200     1.0000 0.85290  0.95460  0.36160  Biso   1.000  C
  H348     1.0000 0.84660  0.91450  0.38450  Biso   1.000  H
  H349     1.0000 0.83530  0.94300  0.32920  Biso   1.000  H
  O162     1.0000 0.82690  0.01502  0.38186  Biso   1.000  O
  C201     1.0000 0.94320  0.97570  0.40230  Biso   1.000  C
  H350     1.0000 0.98310  0.97780  0.39590  Biso   1.000  H
  H351     1.0000 0.93640  0.93560  0.42500  Biso   1.000  H
  O163     1.0000 0.92695  0.03933  0.42742  Biso   1.000  O
  C202     1.0000 0.93540  0.89180  0.33190  Biso   1.000  C
  H352     1.0000 0.91720  0.88190  0.29990  Biso   1.000  H
  H353     1.0000 0.97500  0.89510  0.32660  Biso   1.000  H
  H354     1.0000 0.92760  0.85390  0.35560  Biso   1.000  H
  C203     1.0000 0.74910  0.24970  0.30790  Biso   1.000  C
  C204     1.0000 0.75390  0.29730  0.35300  Biso   1.000  C
  H355     1.0000 0.71730  0.30230  0.36860  Biso   1.000  H
  H356     1.0000 0.76570  0.34440  0.34170  Biso   1.000  H
  O164     1.0000 0.79165  0.27240  0.39003  Biso   1.000  O
  C205     1.0000 0.72580  0.17850  0.32200  Biso   1.000  C
  H357     1.0000 0.72270  0.14960  0.29130  Biso   1.000  H
  H358     1.0000 0.68840  0.18530  0.33550  Biso   1.000  H
  O165     1.0000 0.75775  0.14002  0.35842  Biso   1.000  O
  C206     1.0000 0.80380  0.24250  0.28030  Biso   1.000  C
  H359     1.0000 0.81540  0.28950  0.26860  Biso   1.000  H
  H360     1.0000 0.79820  0.21270  0.25040  Biso   1.000  H
  O166     1.0000 0.84673  0.21288  0.30999  Biso   1.000  O
  C207     1.0000 0.70860  0.28420  0.27120  Biso   1.000  C
  H361     1.0000 0.67230  0.28680  0.28680  Biso   1.000  H
  H362     1.0000 0.72130  0.33160  0.26300  Biso   1.000  H
  H363     1.0000 0.70650  0.25600  0.24060  Biso   1.000  H
  C208     1.0000 0.77870  0.11700  0.54420  Biso   1.000  C
  C209     1.0000 0.74890  0.07530  0.50460  Biso   1.000  C
  H364     1.0000 0.71030  0.09110  0.50320  Biso   1.000  H
  H365     1.0000 0.74890  0.02510  0.51420  Biso   1.000  H
  O167     1.0000 0.77273  0.08220  0.45568  Biso   1.000  O
  C210     1.0000 0.83790  0.09160  0.54930  Biso   1.000  C
  H366     1.0000 0.83740  0.04150  0.55920  Biso   1.000  H
  H367     1.0000 0.85560  0.11820  0.57680  Biso   1.000  H
  O168     1.0000 0.87068  0.09890  0.50510  Biso   1.000  O
  C211     1.0000 0.77530  0.19630  0.53320  Biso   1.000  C
  H368     1.0000 0.79390  0.22180  0.56060  Biso   1.000  H
  H369     1.0000 0.73630  0.21040  0.53360  Biso   1.000  H
  O169     1.0000 0.79870  0.21820  0.48676  Biso   1.000  O
  C212     1.0000 0.75030  0.10540  0.59430  Biso   1.000  C
  H370     1.0000 0.75520  0.05650  0.60480  Biso   1.000  H
  H371     1.0000 0.76630  0.13670  0.61950  Biso   1.000  H
  H372     1.0000 0.71120  0.11550  0.59090  Biso   1.000  H
  C213     1.0000 0.81000  0.90860  0.48400  Biso   1.000  C
  C214     1.0000 0.81870  0.84510  0.51570  Biso   1.000  C
  H373     1.0000 0.78890  0.84120  0.54020  Biso   1.000  H
  H374     1.0000 0.81920  0.80310  0.49450  Biso   1.000  H
  H375     1.0000 0.85380  0.84910  0.53340  Biso   1.000  H
  O170     1.0000 0.84906  0.95432  0.48449  Biso   1.000  O
  O171     1.0000 0.76795  0.91520  0.45948  Biso   1.000  O
  C215     1.0000 0.05400  0.11200  0.33660  Biso   1.000  C
  C216     1.0000 0.11190  0.08780  0.33620  Biso   1.000  C
  H376     1.0000 0.13160  0.11070  0.30880  Biso   1.000  H
  H377     1.0000 0.12930  0.10000  0.36810  Biso   1.000  H
  H378     1.0000 0.11300  0.03680  0.33160  Biso   1.000  H
  O172     1.0000 0.02773  0.10090  0.37753  Biso   1.000  O
  O173     1.0000 0.03307  0.13900  0.29908  Biso   1.000  O
  C217     1.0000 0.86860  0.41670  0.35060  Biso   1.000  C
  C218     1.0000 0.89130  0.47800  0.32170  Biso   1.000  C
  H379     1.0000 0.88630  0.52120  0.34110  Biso   1.000  H
  H380     1.0000 0.93040  0.47040  0.31550  Biso   1.000  H
  H381     1.0000 0.87200  0.48210  0.28970  Biso   1.000  H
  O174     1.0000 0.88282  0.35580  0.33392  Biso   1.000  O
  O175     1.0000 0.83906  0.42680  0.38761  Biso   1.000  O
  C219     1.0000 0.77180  0.02030  0.26930  Biso   1.000  C
  C220     1.0000 0.76900  0.98910  0.22050  Biso   1.000  C
  H382     1.0000 0.74380  0.94900  0.22120  Biso   1.000  H
  H383     1.0000 0.75580  0.02400  0.19630  Biso   1.000  H
  H384     1.0000 0.80550  0.97300  0.21050  Biso   1.000  H
  O176     1.0000 0.81175  0.06610  0.27687  Biso   1.000  O
  O177     1.0000 0.73964  0.00190  0.30196  Biso   1.000  O
  C221     1.0000 0.94060  0.22160  0.58040  Biso   1.000  C
  C222     1.0000 0.95400  0.25800  0.62880  Biso   1.000  C
  H385     1.0000 0.94430  0.22740  0.65700  Biso   1.000  H
  H386     1.0000 0.99320  0.26860  0.63000  Biso   1.000  H
  H387     1.0000 0.93300  0.30180  0.63110  Biso   1.000  H
  O178     1.0000 0.90940  0.24670  0.54820  Biso   1.000  O
  O179     1.0000 0.96700  0.16060  0.57400  Biso   1.000  O
  C223     1.0000 0.65140  0.16290  0.42690  Biso   1.000  C
  C224     1.0000 0.59720  0.19980  0.42640  Biso   1.000  C
  H388     1.0000 0.56770  0.16510  0.42710  Biso   1.000  H
  H389     1.0000 0.59440  0.23040  0.45580  Biso   1.000  H
  H390     1.0000 0.59420  0.22820  0.39590  Biso   1.000  H
  O180     1.0000 0.69290  0.20250  0.43663  Biso   1.000  O
  O181     1.0000 0.65403  0.10070  0.41632  Biso   1.000  O
  Na25     1.0000 0.93910  0.18467  0.27456  Biso   1.000  Na
  Na26     1.0000 0.96809  0.07676  0.51192  Biso   1.000  Na
  Na27     1.0000 0.72500  0.01807  0.38983  Biso   1.000  Na
  Na28     1.0000 0.81052  0.35395  0.45665  Biso   1.000  Na
  O182     1.0000 0.94953  0.95718  0.52970  Biso   1.000  O
  H391     1.0000 0.95130  0.93920  0.55830  Biso   1.000  H
  H392     1.0000 0.91850  0.94710  0.51820  Biso   1.000  H
  Mn43     1.0000 0.63089  0.23950  0.87022  Biso   1.000  Mn
  Mn44     1.0000 0.72795  0.31987  0.92449  Biso   1.000  Mn
  Mn45     1.0000 0.65148  0.45066  0.94610  Biso   1.000  Mn
  Mn46     1.0000 0.66777  0.39114  0.83900  Biso   1.000  Mn
  Mn47     1.0000 0.55422  0.37106  0.89032  Biso   1.000  Mn
  Mn48     1.0000 0.61417  0.29640  0.98259  Biso   1.000  Mn
  O183     1.0000 0.64561  0.34770  0.90383  Biso   1.000  O
  C225     1.0000 0.50760  0.21040  0.92550  Biso   1.000  C
  C226     1.0000 0.55890  0.17010  0.94240  Biso   1.000  C
  H393     1.0000 0.56120  0.12570  0.92320  Biso   1.000  H
  H394     1.0000 0.55490  0.15780  0.97820  Biso   1.000  H
  O184     1.0000 0.60878  0.20843  0.93580  Biso   1.000  O
  C227     1.0000 0.51110  0.22890  0.87040  Biso   1.000  C
  H395     1.0000 0.47650  0.25180  0.86020  Biso   1.000  H
  H396     1.0000 0.51480  0.18510  0.85080  Biso   1.000  H
  O185     1.0000 0.55589  0.27462  0.85838  Biso   1.000  O
  C228     1.0000 0.49700  0.27570  0.95680  Biso   1.000  C
  H397     1.0000 0.49200  0.26130  0.99210  Biso   1.000  H
  H398     1.0000 0.46220  0.29720  0.94540  Biso   1.000  H
  O186     1.0000 0.53858  0.32743  0.95466  Biso   1.000  O
  C229     1.0000 0.45850  0.16020  0.93230  Biso   1.000  C
  H399     1.0000 0.42510  0.18300  0.92010  Biso   1.000  H
  H400     1.0000 0.46490  0.11700  0.91330  Biso   1.000  H
  H401     1.0000 0.45420  0.14890  0.96790  Biso   1.000  H
  C230     1.0000 0.58600  0.53800  0.85310  Biso   1.000  C
  C231     1.0000 0.57300  0.48140  0.81460  Biso   1.000  C
  H402     1.0000 0.59200  0.49330  0.78290  Biso   1.000  H
  H403     1.0000 0.53320  0.48230  0.80780  Biso   1.000  H
  O187     1.0000 0.58817  0.41134  0.82875  Biso   1.000  O
  C232     1.0000 0.64710  0.54540  0.86160  Biso   1.000  C
  H404     1.0000 0.65340  0.58550  0.88450  Biso   1.000  H
  H405     1.0000 0.66470  0.55700  0.82920  Biso   1.000  H
  O188     1.0000 0.67310  0.48498  0.88186  Biso   1.000  O
  C233     1.0000 0.55680  0.52430  0.90230  Biso   1.000  C
  H406     1.0000 0.51690  0.52220  0.89590  Biso   1.000  H
  H407     1.0000 0.56360  0.56440  0.92500  Biso   1.000  H
  O189     1.0000 0.57305  0.46067  0.92742  Biso   1.000  O
  C234     1.0000 0.56460  0.60820  0.83190  Biso   1.000  C
  H408     1.0000 0.58280  0.61810  0.79990  Biso   1.000  H
  H409     1.0000 0.52500  0.60490  0.82660  Biso   1.000  H
  H410     1.0000 0.57240  0.64610  0.85560  Biso   1.000  H
  C235     1.0000 0.75090  0.25030  0.80790  Biso   1.000  C
  C236     1.0000 0.74610  0.20270  0.85300  Biso   1.000  C
  H411     1.0000 0.78270  0.19770  0.86860  Biso   1.000  H
  H412     1.0000 0.73430  0.15560  0.84170  Biso   1.000  H
  O190     1.0000 0.70835  0.22760  0.89003  Biso   1.000  O
  C237     1.0000 0.77420  0.32150  0.82200  Biso   1.000  C
  H413     1.0000 0.77730  0.35040  0.79130  Biso   1.000  H
  H414     1.0000 0.81160  0.31470  0.83550  Biso   1.000  H
  O191     1.0000 0.74225  0.35998  0.85842  Biso   1.000  O
  C238     1.0000 0.69620  0.25750  0.78030  Biso   1.000  C
  H415     1.0000 0.68460  0.21050  0.76860  Biso   1.000  H
  H416     1.0000 0.70180  0.28730  0.75040  Biso   1.000  H
  O192     1.0000 0.65327  0.28712  0.80999  Biso   1.000  O
  C239     1.0000 0.79140  0.21580  0.77120  Biso   1.000  C
  H417     1.0000 0.82770  0.21320  0.78680  Biso   1.000  H
  H418     1.0000 0.77870  0.16840  0.76300  Biso   1.000  H
  H419     1.0000 0.79350  0.24400  0.74060  Biso   1.000  H
  C240     1.0000 0.72130  0.38300  0.04420  Biso   1.000  C
  C241     1.0000 0.75110  0.42470  0.00460  Biso   1.000  C
  H420     1.0000 0.78970  0.40890  0.00320  Biso   1.000  H
  H421     1.0000 0.75110  0.47490  0.01420  Biso   1.000  H
  O193     1.0000 0.72727  0.41780  0.95568  Biso   1.000  O
  C242     1.0000 0.66210  0.40840  0.04930  Biso   1.000  C
  H422     1.0000 0.66260  0.45850  0.05920  Biso   1.000  H
  H423     1.0000 0.64440  0.38180  0.07680  Biso   1.000  H
  O194     1.0000 0.62932  0.40110  0.00510  Biso   1.000  O
  C243     1.0000 0.72470  0.30370  0.03320  Biso   1.000  C
  H424     1.0000 0.70610  0.27820  0.06060  Biso   1.000  H
  H425     1.0000 0.76370  0.28960  0.03360  Biso   1.000  H
  O195     1.0000 0.70130  0.28180  0.98676  Biso   1.000  O
  C244     1.0000 0.74970  0.39460  0.09430  Biso   1.000  C
  H426     1.0000 0.74480  0.44350  0.10480  Biso   1.000  H
  H427     1.0000 0.73370  0.36330  0.11950  Biso   1.000  H
  H428     1.0000 0.78880  0.38450  0.09090  Biso   1.000  H
  C245     1.0000 0.69000  0.59140  0.98400  Biso   1.000  C
  C246     1.0000 0.68130  0.65490  0.01570  Biso   1.000  C
  H429     1.0000 0.71110  0.65880  0.04020  Biso   1.000  H
  H430     1.0000 0.68080  0.69690  0.99450  Biso   1.000  H
  H431     1.0000 0.64620  0.65090  0.03340  Biso   1.000  H
  O196     1.0000 0.65094  0.54568  0.98449  Biso   1.000  O
  O197     1.0000 0.73205  0.58480  0.95948  Biso   1.000  O
  C247     1.0000 0.44600  0.38800  0.83660  Biso   1.000  C
  C248     1.0000 0.38810  0.41220  0.83620  Biso   1.000  C
  H432     1.0000 0.36840  0.38930  0.80880  Biso   1.000  H
  H433     1.0000 0.37070  0.40000  0.86810  Biso   1.000  H
  H434     1.0000 0.38700  0.46320  0.83160  Biso   1.000  H
  O198     1.0000 0.47227  0.39910  0.87753  Biso   1.000  O
  O199     1.0000 0.46693  0.36100  0.79908  Biso   1.000  O
  C249     1.0000 0.63140  0.08330  0.85060  Biso   1.000  C
  C250     1.0000 0.60870  0.02200  0.82170  Biso   1.000  C
  H435     1.0000 0.61370  0.97880  0.84110  Biso   1.000  H
  H436     1.0000 0.56960  0.02960  0.81550  Biso   1.000  H
  H437     1.0000 0.62800  0.01790  0.78970  Biso   1.000  H
  O200     1.0000 0.61718  0.14420  0.83392  Biso   1.000  O
  O201     1.0000 0.66094  0.07320  0.88761  Biso   1.000  O
  C251     1.0000 0.72820  0.47970  0.76930  Biso   1.000  C
  C252     1.0000 0.73100  0.51090  0.72050  Biso   1.000  C
  H438     1.0000 0.75620  0.55100  0.72120  Biso   1.000  H
  H439     1.0000 0.74420  0.47600  0.69630  Biso   1.000  H
  H440     1.0000 0.69450  0.52700  0.71050  Biso   1.000  H
  O202     1.0000 0.68825  0.43390  0.77687  Biso   1.000  O
  O203     1.0000 0.76036  0.49810  0.80196  Biso   1.000  O
  C253     1.0000 0.55940  0.27840  0.08040  Biso   1.000  C
  C254     1.0000 0.54600  0.24200  0.12880  Biso   1.000  C
  H441     1.0000 0.55570  0.27260  0.15700  Biso   1.000  H
  H442     1.0000 0.50680  0.23140  0.13000  Biso   1.000  H
  H443     1.0000 0.56700  0.19820  0.13110  Biso   1.000  H
  O204     1.0000 0.59060  0.25330  0.04820  Biso   1.000  O
  O205     1.0000 0.53300  0.33940  0.07400  Biso   1.000  O
  C255     1.0000 0.84860  0.33710  0.92690  Biso   1.000  C
  C256     1.0000 0.90280  0.30020  0.92640  Biso   1.000  C
  H444     1.0000 0.93230  0.33490  0.92710  Biso   1.000  H
  H445     1.0000 0.90560  0.26960  0.95580  Biso   1.000  H
  H446     1.0000 0.90580  0.27180  0.89590  Biso   1.000  H
  O206     1.0000 0.80710  0.29750  0.93663  Biso   1.000  O
  O207     1.0000 0.84597  0.39930  0.91632  Biso   1.000  O
  Na29     1.0000 0.56090  0.31533  0.77456  Biso   1.000  Na
  Na30     1.0000 0.53191  0.42324  0.01192  Biso   1.000  Na
  Na31     1.0000 0.77500  0.48193  0.88983  Biso   1.000  Na
  Na32     1.0000 0.68948  0.14605  0.95665  Biso   1.000  Na
  O208     1.0000 0.55047  0.54282  0.02970  Biso   1.000  O
  H447     1.0000 0.54870  0.56080  0.05830  Biso   1.000  H
  H448     1.0000 0.58150  0.55290  0.01820  Biso   1.000  H
