data_image0
_cell_length_a       13.9325
_cell_length_b       26.873
_cell_length_c       27.147
_cell_angle_alpha    90
_cell_angle_beta     90
_cell_angle_gamma    90

_symmetry_space_group_name_H-M    "P 1"
_symmetry_int_tables_number       1

loop_
  _symmetry_equiv_pos_as_xyz
  'x, y, z'

loop_
  _atom_site_label
  _atom_site_occupancy
  _atom_site_fract_x
  _atom_site_fract_y
  _atom_site_fract_z
  _atom_site_thermal_displace_type
  _atom_site_B_iso_or_equiv
  _atom_site_type_symbol
  Cd1      1.0000 0.30793  0.62932  0.04194  Biso   1.000  Cd
  Cd2      1.0000 0.90765  0.78380  0.86201  Biso   1.000  Cd
  Ti1      1.0000 0.68726  0.44401  0.78086  Biso   1.000  Ti
  Ti2      1.0000 0.55557  0.52149  0.69699  Biso   1.000  Ti
  O1       1.0000 0.66320  0.37657  0.76810  Biso   1.000  O
  O2       1.0000 0.77680  0.42870  0.83250  Biso   1.000  O
  O3       1.0000 0.59530  0.51000  0.63180  Biso   1.000  O
  O4       1.0000 0.45910  0.57160  0.67990  Biso   1.000  O
  O5       1.0000 0.62200  0.47270  0.72860  Biso   1.000  O
  O6       1.0000 0.76750  0.82530  0.88950  Biso   1.000  O
  O7       1.0000 0.64450  0.82140  0.93500  Biso   1.000  O
  N1       1.0000 0.76830  0.51450  0.78370  Biso   1.000  N
  H1       1.0000 0.73120  0.53920  0.76380  Biso   1.000  H
  N2       1.0000 0.80890  0.43110  0.72720  Biso   1.000  N
  H2       1.0000 0.85660  0.40860  0.74340  Biso   1.000  H
  N3       1.0000 0.68250  0.18380  0.52230  Biso   1.000  N
  N4       1.0000 0.18750  0.58420  0.00160  Biso   1.000  N
  N5       1.0000 0.44490  0.46240  0.67730  Biso   1.000  N
  H3       1.0000 0.40040  0.47730  0.65240  Biso   1.000  H
  N6       1.0000 0.46160  0.51700  0.76270  Biso   1.000  N
  H4       1.0000 0.49490  0.49580  0.78770  Biso   1.000  H
  N7       1.0000 0.61090  0.27750  0.42200  Biso   1.000  N
  N8       1.0000 0.04000  0.73970  0.82950  Biso   1.000  N
  C1       1.0000 0.86250  0.51020  0.76070  Biso   1.000  C
  H5       1.0000 0.90520  0.49270  0.78470  Biso   1.000  H
  C2       1.0000 0.85890  0.47920  0.71520  Biso   1.000  C
  H6       1.0000 0.81840  0.49720  0.69060  Biso   1.000  H
  C3       1.0000 0.96200  0.47160  0.69150  Biso   1.000  C
  H7       1.0000 0.00380  0.45410  0.71530  Biso   1.000  H
  H8       1.0000 0.95600  0.45030  0.66180  Biso   1.000  H
  C4       1.0000 0.00870  0.52070  0.67710  Biso   1.000  C
  H9       1.0000 0.97130  0.53740  0.65090  Biso   1.000  H
  H10      1.0000 0.07490  0.51520  0.66510  Biso   1.000  H
  C5       1.0000 0.00920  0.55300  0.72540  Biso   1.000  C
  H11      1.0000 0.05180  0.53680  0.74980  Biso   1.000  H
  H12      1.0000 0.03730  0.58600  0.71760  Biso   1.000  H
  C6       1.0000 0.90950  0.56120  0.74950  Biso   1.000  C
  H13      1.0000 0.91680  0.58040  0.78040  Biso   1.000  H
  H14      1.0000 0.86790  0.58050  0.72690  Biso   1.000  H
  C7       1.0000 0.77570  0.40630  0.68110  Biso   1.000  C
  H15      1.0000 0.83230  0.39980  0.66010  Biso   1.000  H
  H16      1.0000 0.73350  0.42970  0.66310  Biso   1.000  H
  C8       1.0000 0.66780  0.34471  0.73025  Biso   1.000  C
  C9       1.0000 0.61740  0.30010  0.73205  Biso   1.000  C
  C10      1.0000 0.62000  0.26769  0.69220  Biso   1.000  C
  H17      1.0000 0.58560  0.23720  0.69340  Biso   1.000  H
  C11      1.0000 0.67290  0.27989  0.65048  Biso   1.000  C
  C12      1.0000 0.72330  0.32450  0.64868  Biso   1.000  C
  H18      1.0000 0.75950  0.33280  0.62020  Biso   1.000  H
  C13      1.0000 0.72080  0.35690  0.68860  Biso   1.000  C
  C14      1.0000 0.55580  0.28630  0.77750  Biso   1.000  C
  C15      1.0000 0.47520  0.32510  0.78560  Biso   1.000  C
  H19      1.0000 0.50380  0.35730  0.79440  Biso   1.000  H
  H20      1.0000 0.43310  0.31390  0.81230  Biso   1.000  H
  H21      1.0000 0.43780  0.32870  0.75520  Biso   1.000  H
  C16      1.0000 0.61960  0.28430  0.82420  Biso   1.000  C
  H22      1.0000 0.66030  0.25460  0.82290  Biso   1.000  H
  H23      1.0000 0.57870  0.28290  0.85350  Biso   1.000  H
  H24      1.0000 0.66000  0.31410  0.82560  Biso   1.000  H
  C17      1.0000 0.50220  0.23510  0.77240  Biso   1.000  C
  H25      1.0000 0.44490  0.23940  0.75190  Biso   1.000  H
  H26      1.0000 0.48310  0.22330  0.80520  Biso   1.000  H
  H27      1.0000 0.54500  0.21070  0.75710  Biso   1.000  H
  C18      1.0000 0.67690  0.24680  0.60620  Biso   1.000  C
  C19      1.0000 0.74210  0.25100  0.57000  Biso   1.000  C
  H28      1.0000 0.79040  0.27570  0.57330  Biso   1.000  H
  C20      1.0000 0.74320  0.22220  0.52960  Biso   1.000  C
  H29      1.0000 0.78920  0.22930  0.50470  Biso   1.000  H
  C21      1.0000 0.61460  0.17910  0.55850  Biso   1.000  C
  H30      1.0000 0.56670  0.15430  0.55460  Biso   1.000  H
  C22      1.0000 0.61200  0.20780  0.59940  Biso   1.000  C
  H31      1.0000 0.56510  0.20140  0.62400  Biso   1.000  H
  C23      1.0000 0.76990  0.53320  0.83390  Biso   1.000  C
  H32      1.0000 0.70520  0.53020  0.84880  Biso   1.000  H
  H33      1.0000 0.78850  0.56870  0.83410  Biso   1.000  H
  C24      1.0000 0.84160  0.50312  0.86370  Biso   1.000  C
  C25      1.0000 0.84040  0.45141  0.86280  Biso   1.000  C
  C26      1.0000 0.90760  0.42463  0.88980  Biso   1.000  C
  C27      1.0000 0.97610  0.44957  0.91770  Biso   1.000  C
  H34      1.0000 0.02210  0.43130  0.93610  Biso   1.000  H
  C28      1.0000 0.97730  0.50130  0.91860  Biso   1.000  C
  C29      1.0000 0.91000  0.52806  0.89160  Biso   1.000  C
  H35      1.0000 0.91090  0.56340  0.89220  Biso   1.000  H
  C30      1.0000 0.91190  0.36590  0.88750  Biso   1.000  C
  C31      1.0000 0.92490  0.34850  0.83330  Biso   1.000  C
  H36      1.0000 0.86310  0.35020  0.81620  Biso   1.000  H
  H37      1.0000 0.94870  0.31420  0.83280  Biso   1.000  H
  H38      1.0000 0.97120  0.37030  0.81670  Biso   1.000  H
  C32      1.0000 0.81870  0.34720  0.90750  Biso   1.000  C
  H39      1.0000 0.81430  0.35530  0.94260  Biso   1.000  H
  H40      1.0000 0.81510  0.31110  0.90310  Biso   1.000  H
  H41      1.0000 0.76560  0.36310  0.88970  Biso   1.000  H
  C33      1.0000 0.99920  0.34570  0.91310  Biso   1.000  C
  H42      1.0000 0.05380  0.36790  0.90710  Biso   1.000  H
  H43      1.0000 0.01380  0.31250  0.90020  Biso   1.000  H
  H44      1.0000 0.98680  0.34360  0.94860  Biso   1.000  H
  C34      1.0000 0.05130  0.52820  0.94910  Biso   1.000  C
  C35      1.0000 0.08350  0.57310  0.93270  Biso   1.000  C
  H45      1.0000 0.05990  0.58630  0.90260  Biso   1.000  H
  C36      1.0000 0.15190  0.60020  0.96060  Biso   1.000  C
  H46      1.0000 0.17260  0.63160  0.94850  Biso   1.000  H
  C37      1.0000 0.15050  0.54050  0.01900  Biso   1.000  C
  H47      1.0000 0.17170  0.52830  0.05000  Biso   1.000  H
  C38      1.0000 0.08380  0.51370  0.99310  Biso   1.000  C
  H48      1.0000 0.05970  0.48380  0.00700  Biso   1.000  H
  C39      1.0000 0.38740  0.44760  0.71950  Biso   1.000  C
  H49      1.0000 0.42620  0.42360  0.73940  Biso   1.000  H
  C40      1.0000 0.36900  0.49290  0.75090  Biso   1.000  C
  H50      1.0000 0.32870  0.51690  0.73180  Biso   1.000  H
  C41      1.0000 0.31360  0.47760  0.79840  Biso   1.000  C
  H51      1.0000 0.35320  0.45460  0.81840  Biso   1.000  H
  H52      1.0000 0.29910  0.50740  0.81850  Biso   1.000  H
  C42      1.0000 0.22020  0.45190  0.78270  Biso   1.000  C
  H53      1.0000 0.18340  0.44260  0.81250  Biso   1.000  H
  H54      1.0000 0.18080  0.47570  0.76360  Biso   1.000  H
  C43      1.0000 0.23750  0.40660  0.75240  Biso   1.000  C
  H55      1.0000 0.17560  0.39140  0.74270  Biso   1.000  H
  H56      1.0000 0.27440  0.38180  0.77170  Biso   1.000  H
  C44      1.0000 0.29520  0.42230  0.70560  Biso   1.000  C
  H57      1.0000 0.30940  0.39240  0.68560  Biso   1.000  H
  H58      1.0000 0.25570  0.44520  0.68540  Biso   1.000  H
  C45      1.0000 0.49190  0.41880  0.65390  Biso   1.000  C
  H59      1.0000 0.44190  0.39370  0.64660  Biso   1.000  H
  H60      1.0000 0.53660  0.40390  0.67810  Biso   1.000  H
  C46      1.0000 0.60840  0.39669  0.52939  Biso   1.000  C
  C47      1.0000 0.55320  0.39123  0.57171  Biso   1.000  C
  H61      1.0000 0.51890  0.36120  0.57730  Biso   1.000  H
  C48      1.0000 0.54830  0.42969  0.60586  Biso   1.000  C
  C49      1.0000 0.59850  0.47361  0.59768  Biso   1.000  C
  C50      1.0000 0.65370  0.47907  0.55536  Biso   1.000  C
  C51      1.0000 0.65860  0.44060  0.52121  Biso   1.000  C
  H62      1.0000 0.69630  0.44430  0.49230  Biso   1.000  H
  C52      1.0000 0.71050  0.52740  0.54570  Biso   1.000  C
  C53      1.0000 0.76770  0.52600  0.49660  Biso   1.000  C
  H63      1.0000 0.81720  0.50020  0.49850  Biso   1.000  H
  H64      1.0000 0.79810  0.55840  0.49100  Biso   1.000  H
  H65      1.0000 0.72390  0.51860  0.46940  Biso   1.000  H
  C54      1.0000 0.64760  0.57350  0.54510  Biso   1.000  C
  H66      1.0000 0.60610  0.57270  0.51600  Biso   1.000  H
  H67      1.0000 0.68810  0.60320  0.54410  Biso   1.000  H
  H68      1.0000 0.60780  0.57410  0.57490  Biso   1.000  H
  C55      1.0000 0.78630  0.53610  0.58670  Biso   1.000  C
  H69      1.0000 0.75410  0.53820  0.61870  Biso   1.000  H
  H70      1.0000 0.82060  0.56730  0.58020  Biso   1.000  H
  H71      1.0000 0.83210  0.50850  0.58700  Biso   1.000  H
  C56      1.0000 0.61070  0.35520  0.49330  Biso   1.000  C
  C57      1.0000 0.54520  0.31740  0.49360  Biso   1.000  C
  H72      1.0000 0.49650  0.31760  0.51810  Biso   1.000  H
  C58      1.0000 0.54660  0.27890  0.45980  Biso   1.000  C
  H73      1.0000 0.50140  0.25270  0.46310  Biso   1.000  H
  C59      1.0000 0.67130  0.31460  0.42050  Biso   1.000  C
  H74      1.0000 0.71470  0.31570  0.39350  Biso   1.000  H
  C60      1.0000 0.67750  0.35240  0.45510  Biso   1.000  C
  H75      1.0000 0.72720  0.37650  0.45280  Biso   1.000  H
  C61      1.0000 0.45090  0.56720  0.78390  Biso   1.000  C
  H76      1.0000 0.51500  0.58300  0.78650  Biso   1.000  H
  H77      1.0000 0.42390  0.56450  0.81750  Biso   1.000  H
  C62      1.0000 0.38650  0.59971  0.75305  Biso   1.000  C
  C63      1.0000 0.39230  0.60012  0.70194  Biso   1.000  C
  C64      1.0000 0.32780  0.62830  0.67460  Biso   1.000  C
  C65      1.0000 0.25750  0.65610  0.69838  Biso   1.000  C
  H78      1.0000 0.21340  0.67530  0.67970  Biso   1.000  H
  C66      1.0000 0.25170  0.65560  0.74949  Biso   1.000  C
  C67      1.0000 0.31630  0.62750  0.77683  Biso   1.000  C
  H79      1.0000 0.31230  0.62720  0.81180  Biso   1.000  H
  C68      1.0000 0.33400  0.62710  0.61800  Biso   1.000  C
  C69      1.0000 0.31730  0.57240  0.59940  Biso   1.000  C
  H80      1.0000 0.36680  0.55050  0.61320  Biso   1.000  H
  H81      1.0000 0.32100  0.57160  0.56330  Biso   1.000  H
  H82      1.0000 0.25380  0.56090  0.61000  Biso   1.000  H
  C70      1.0000 0.43050  0.65120  0.60000  Biso   1.000  C
  H83      1.0000 0.43640  0.68480  0.61380  Biso   1.000  H
  H84      1.0000 0.43070  0.65310  0.56400  Biso   1.000  H
  H85      1.0000 0.48470  0.63080  0.61110  Biso   1.000  H
  C71      1.0000 0.25090  0.66000  0.59590  Biso   1.000  C
  H86      1.0000 0.18880  0.64510  0.60420  Biso   1.000  H
  H87      1.0000 0.25780  0.66180  0.56000  Biso   1.000  H
  H88      1.0000 0.25450  0.69360  0.60980  Biso   1.000  H
  C72      1.0000 0.17760  0.68500  0.77550  Biso   1.000  C
  C73      1.0000 0.13460  0.66720  0.81870  Biso   1.000  C
  H89      1.0000 0.15420  0.63610  0.83190  Biso   1.000  H
  C74      1.0000 0.06550  0.69390  0.84180  Biso   1.000  C
  H90      1.0000 0.03300  0.67870  0.86870  Biso   1.000  H
  C75      1.0000 0.08240  0.75830  0.78860  Biso   1.000  C
  H91      1.0000 0.06510  0.79080  0.77790  Biso   1.000  H
  C76      1.0000 0.14780  0.73280  0.76240  Biso   1.000  C
  H92      1.0000 0.17480  0.74780  0.73390  Biso   1.000  H
  C77      1.0000 0.68610  0.81190  0.89650  Biso   1.000  C
  C78      1.0000 0.63170  0.78030  0.85450  Biso   1.000  C
  H93      1.0000 0.66050  0.78750  0.82240  Biso   1.000  H
  H94      1.0000 0.56370  0.78950  0.85400  Biso   1.000  H
  H95      1.0000 0.63790  0.74470  0.86170  Biso   1.000  H
  Cd3      1.0000 0.19207  0.37068  0.54194  Biso   1.000  Cd
  Cd4      1.0000 0.59235  0.21620  0.36201  Biso   1.000  Cd
  Ti3      1.0000 0.81274  0.55599  0.28086  Biso   1.000  Ti
  Ti4      1.0000 0.94443  0.47851  0.19699  Biso   1.000  Ti
  O8       1.0000 0.83680  0.62343  0.26810  Biso   1.000  O
  O9       1.0000 0.72320  0.57130  0.33250  Biso   1.000  O
  O10      1.0000 0.90470  0.49000  0.13180  Biso   1.000  O
  O11      1.0000 0.04090  0.42840  0.17990  Biso   1.000  O
  O12      1.0000 0.87800  0.52730  0.22860  Biso   1.000  O
  O13      1.0000 0.73250  0.17470  0.38950  Biso   1.000  O
  O14      1.0000 0.85550  0.17860  0.43500  Biso   1.000  O
  N9       1.0000 0.73170  0.48550  0.28370  Biso   1.000  N
  H96      1.0000 0.76880  0.46080  0.26380  Biso   1.000  H
  N10      1.0000 0.69110  0.56890  0.22720  Biso   1.000  N
  H97      1.0000 0.64340  0.59140  0.24340  Biso   1.000  H
  N11      1.0000 0.81750  0.81620  0.02230  Biso   1.000  N
  N12      1.0000 0.31250  0.41580  0.50160  Biso   1.000  N
  N13      1.0000 0.05510  0.53760  0.17730  Biso   1.000  N
  H98      1.0000 0.09960  0.52270  0.15240  Biso   1.000  H
  N14      1.0000 0.03840  0.48300  0.26270  Biso   1.000  N
  H99      1.0000 0.00510  0.50420  0.28770  Biso   1.000  H
  N15      1.0000 0.88910  0.72250  0.92200  Biso   1.000  N
  N16      1.0000 0.46000  0.26030  0.32950  Biso   1.000  N
  C79      1.0000 0.63750  0.48980  0.26070  Biso   1.000  C
  H100     1.0000 0.59480  0.50730  0.28470  Biso   1.000  H
  C80      1.0000 0.64110  0.52080  0.21520  Biso   1.000  C
  H101     1.0000 0.68160  0.50280  0.19060  Biso   1.000  H
  C81      1.0000 0.53800  0.52840  0.19150  Biso   1.000  C
  H102     1.0000 0.49620  0.54590  0.21530  Biso   1.000  H
  H103     1.0000 0.54400  0.54970  0.16180  Biso   1.000  H
  C82      1.0000 0.49130  0.47930  0.17710  Biso   1.000  C
  H104     1.0000 0.52870  0.46260  0.15090  Biso   1.000  H
  H105     1.0000 0.42510  0.48480  0.16510  Biso   1.000  H
  C83      1.0000 0.49080  0.44700  0.22540  Biso   1.000  C
  H106     1.0000 0.44820  0.46320  0.24980  Biso   1.000  H
  H107     1.0000 0.46270  0.41400  0.21760  Biso   1.000  H
  C84      1.0000 0.59050  0.43880  0.24950  Biso   1.000  C
  H108     1.0000 0.58320  0.41960  0.28040  Biso   1.000  H
  H109     1.0000 0.63210  0.41950  0.22690  Biso   1.000  H
  C85      1.0000 0.72430  0.59370  0.18110  Biso   1.000  C
  H110     1.0000 0.66770  0.60020  0.16010  Biso   1.000  H
  H111     1.0000 0.76650  0.57030  0.16310  Biso   1.000  H
  C86      1.0000 0.83220  0.65529  0.23025  Biso   1.000  C
  C87      1.0000 0.88260  0.69990  0.23205  Biso   1.000  C
  C88      1.0000 0.88000  0.73231  0.19220  Biso   1.000  C
  H112     1.0000 0.91440  0.76280  0.19340  Biso   1.000  H
  C89      1.0000 0.82710  0.72011  0.15048  Biso   1.000  C
  C90      1.0000 0.77670  0.67550  0.14868  Biso   1.000  C
  H113     1.0000 0.74050  0.66720  0.12020  Biso   1.000  H
  C91      1.0000 0.77920  0.64310  0.18860  Biso   1.000  C
  C92      1.0000 0.94420  0.71370  0.27750  Biso   1.000  C
  C93      1.0000 0.02480  0.67490  0.28560  Biso   1.000  C
  H114     1.0000 0.99620  0.64270  0.29440  Biso   1.000  H
  H115     1.0000 0.06690  0.68610  0.31230  Biso   1.000  H
  H116     1.0000 0.06220  0.67130  0.25520  Biso   1.000  H
  C94      1.0000 0.88040  0.71570  0.32420  Biso   1.000  C
  H117     1.0000 0.83970  0.74540  0.32290  Biso   1.000  H
  H118     1.0000 0.92130  0.71710  0.35350  Biso   1.000  H
  H119     1.0000 0.84000  0.68590  0.32560  Biso   1.000  H
  C95      1.0000 0.99780  0.76490  0.27240  Biso   1.000  C
  H120     1.0000 0.05510  0.76060  0.25190  Biso   1.000  H
  H121     1.0000 0.01690  0.77670  0.30520  Biso   1.000  H
  H122     1.0000 0.95500  0.78930  0.25710  Biso   1.000  H
  C96      1.0000 0.82310  0.75320  0.10620  Biso   1.000  C
  C97      1.0000 0.75790  0.74900  0.07000  Biso   1.000  C
  H123     1.0000 0.70960  0.72430  0.07330  Biso   1.000  H
  C98      1.0000 0.75680  0.77780  0.02960  Biso   1.000  C
  H124     1.0000 0.71080  0.77070  0.00470  Biso   1.000  H
  C99      1.0000 0.88540  0.82090  0.05850  Biso   1.000  C
  H125     1.0000 0.93330  0.84570  0.05460  Biso   1.000  H
  C100     1.0000 0.88800  0.79220  0.09940  Biso   1.000  C
  H126     1.0000 0.93490  0.79860  0.12400  Biso   1.000  H
  C101     1.0000 0.73010  0.46680  0.33390  Biso   1.000  C
  H127     1.0000 0.79480  0.46980  0.34880  Biso   1.000  H
  H128     1.0000 0.71150  0.43130  0.33410  Biso   1.000  H
  C102     1.0000 0.65840  0.49688  0.36370  Biso   1.000  C
  C103     1.0000 0.65960  0.54859  0.36280  Biso   1.000  C
  C104     1.0000 0.59240  0.57537  0.38980  Biso   1.000  C
  C105     1.0000 0.52390  0.55043  0.41770  Biso   1.000  C
  H129     1.0000 0.47790  0.56870  0.43610  Biso   1.000  H
  C106     1.0000 0.52270  0.49870  0.41860  Biso   1.000  C
  C107     1.0000 0.59000  0.47194  0.39160  Biso   1.000  C
  H130     1.0000 0.58910  0.43660  0.39220  Biso   1.000  H
  C108     1.0000 0.58810  0.63410  0.38750  Biso   1.000  C
  C109     1.0000 0.57510  0.65150  0.33330  Biso   1.000  C
  H131     1.0000 0.63690  0.64980  0.31620  Biso   1.000  H
  H132     1.0000 0.55130  0.68580  0.33280  Biso   1.000  H
  H133     1.0000 0.52880  0.62970  0.31670  Biso   1.000  H
  C110     1.0000 0.68130  0.65280  0.40750  Biso   1.000  C
  H134     1.0000 0.68570  0.64470  0.44260  Biso   1.000  H
  H135     1.0000 0.68490  0.68890  0.40310  Biso   1.000  H
  H136     1.0000 0.73440  0.63690  0.38970  Biso   1.000  H
  C111     1.0000 0.50080  0.65430  0.41310  Biso   1.000  C
  H137     1.0000 0.44620  0.63210  0.40710  Biso   1.000  H
  H138     1.0000 0.48620  0.68750  0.40020  Biso   1.000  H
  H139     1.0000 0.51320  0.65640  0.44860  Biso   1.000  H
  C112     1.0000 0.44870  0.47180  0.44910  Biso   1.000  C
  C113     1.0000 0.41650  0.42690  0.43270  Biso   1.000  C
  H140     1.0000 0.44010  0.41370  0.40260  Biso   1.000  H
  C114     1.0000 0.34810  0.39980  0.46060  Biso   1.000  C
  H141     1.0000 0.32740  0.36840  0.44850  Biso   1.000  H
  C115     1.0000 0.34950  0.45950  0.51900  Biso   1.000  C
  H142     1.0000 0.32830  0.47170  0.55000  Biso   1.000  H
  C116     1.0000 0.41620  0.48630  0.49310  Biso   1.000  C
  H143     1.0000 0.44030  0.51620  0.50700  Biso   1.000  H
  C117     1.0000 0.11260  0.55240  0.21950  Biso   1.000  C
  H144     1.0000 0.07380  0.57640  0.23940  Biso   1.000  H
  C118     1.0000 0.13100  0.50710  0.25090  Biso   1.000  C
  H145     1.0000 0.17130  0.48310  0.23180  Biso   1.000  H
  C119     1.0000 0.18640  0.52240  0.29840  Biso   1.000  C
  H146     1.0000 0.14680  0.54540  0.31840  Biso   1.000  H
  H147     1.0000 0.20090  0.49260  0.31850  Biso   1.000  H
  C120     1.0000 0.27980  0.54810  0.28270  Biso   1.000  C
  H148     1.0000 0.31660  0.55740  0.31250  Biso   1.000  H
  H149     1.0000 0.31920  0.52430  0.26360  Biso   1.000  H
  C121     1.0000 0.26250  0.59340  0.25240  Biso   1.000  C
  H150     1.0000 0.32440  0.60860  0.24270  Biso   1.000  H
  H151     1.0000 0.22560  0.61820  0.27170  Biso   1.000  H
  C122     1.0000 0.20480  0.57770  0.20560  Biso   1.000  C
  H152     1.0000 0.19060  0.60760  0.18560  Biso   1.000  H
  H153     1.0000 0.24430  0.55480  0.18540  Biso   1.000  H
  C123     1.0000 0.00810  0.58120  0.15390  Biso   1.000  C
  H154     1.0000 0.05810  0.60630  0.14660  Biso   1.000  H
  H155     1.0000 0.96340  0.59610  0.17810  Biso   1.000  H
  C124     1.0000 0.89160  0.60331  0.02939  Biso   1.000  C
  C125     1.0000 0.94680  0.60877  0.07171  Biso   1.000  C
  H156     1.0000 0.98110  0.63880  0.07730  Biso   1.000  H
  C126     1.0000 0.95170  0.57031  0.10586  Biso   1.000  C
  C127     1.0000 0.90150  0.52639  0.09768  Biso   1.000  C
  C128     1.0000 0.84630  0.52093  0.05536  Biso   1.000  C
  C129     1.0000 0.84140  0.55940  0.02121  Biso   1.000  C
  H157     1.0000 0.80370  0.55570  0.99230  Biso   1.000  H
  C130     1.0000 0.78950  0.47260  0.04570  Biso   1.000  C
  C131     1.0000 0.73230  0.47400  0.99660  Biso   1.000  C
  H158     1.0000 0.68280  0.49980  0.99850  Biso   1.000  H
  H159     1.0000 0.70190  0.44160  0.99100  Biso   1.000  H
  H160     1.0000 0.77610  0.48140  0.96940  Biso   1.000  H
  C132     1.0000 0.85240  0.42650  0.04510  Biso   1.000  C
  H161     1.0000 0.89390  0.42730  0.01600  Biso   1.000  H
  H162     1.0000 0.81190  0.39680  0.04410  Biso   1.000  H
  H163     1.0000 0.89220  0.42590  0.07490  Biso   1.000  H
  C133     1.0000 0.71370  0.46390  0.08670  Biso   1.000  C
  H164     1.0000 0.74590  0.46180  0.11870  Biso   1.000  H
  H165     1.0000 0.67940  0.43270  0.08020  Biso   1.000  H
  H166     1.0000 0.66790  0.49150  0.08700  Biso   1.000  H
  C134     1.0000 0.88930  0.64480  0.99330  Biso   1.000  C
  C135     1.0000 0.95480  0.68260  0.99360  Biso   1.000  C
  H167     1.0000 0.00350  0.68240  0.01810  Biso   1.000  H
  C136     1.0000 0.95340  0.72110  0.95980  Biso   1.000  C
  H168     1.0000 0.99860  0.74730  0.96310  Biso   1.000  H
  C137     1.0000 0.82870  0.68540  0.92050  Biso   1.000  C
  H169     1.0000 0.78530  0.68430  0.89350  Biso   1.000  H
  C138     1.0000 0.82250  0.64760  0.95510  Biso   1.000  C
  H170     1.0000 0.77280  0.62350  0.95280  Biso   1.000  H
  C139     1.0000 0.04910  0.43280  0.28390  Biso   1.000  C
  H171     1.0000 0.98500  0.41700  0.28650  Biso   1.000  H
  H172     1.0000 0.07610  0.43550  0.31750  Biso   1.000  H
  C140     1.0000 0.11350  0.40029  0.25305  Biso   1.000  C
  C141     1.0000 0.10770  0.39988  0.20194  Biso   1.000  C
  C142     1.0000 0.17220  0.37170  0.17460  Biso   1.000  C
  C143     1.0000 0.24250  0.34390  0.19838  Biso   1.000  C
  H173     1.0000 0.28660  0.32470  0.17970  Biso   1.000  H
  C144     1.0000 0.24830  0.34440  0.24949  Biso   1.000  C
  C145     1.0000 0.18370  0.37250  0.27683  Biso   1.000  C
  H174     1.0000 0.18770  0.37280  0.31180  Biso   1.000  H
  C146     1.0000 0.16600  0.37290  0.11800  Biso   1.000  C
  C147     1.0000 0.18270  0.42760  0.09940  Biso   1.000  C
  H175     1.0000 0.13320  0.44950  0.11320  Biso   1.000  H
  H176     1.0000 0.17900  0.42840  0.06330  Biso   1.000  H
  H177     1.0000 0.24620  0.43910  0.11000  Biso   1.000  H
  C148     1.0000 0.06950  0.34880  0.10000  Biso   1.000  C
  H178     1.0000 0.06360  0.31520  0.11380  Biso   1.000  H
  H179     1.0000 0.06930  0.34690  0.06400  Biso   1.000  H
  H180     1.0000 0.01530  0.36920  0.11110  Biso   1.000  H
  C149     1.0000 0.24910  0.34000  0.09590  Biso   1.000  C
  H181     1.0000 0.31120  0.35490  0.10420  Biso   1.000  H
  H182     1.0000 0.24220  0.33820  0.06000  Biso   1.000  H
  H183     1.0000 0.24550  0.30640  0.10980  Biso   1.000  H
  C150     1.0000 0.32240  0.31500  0.27550  Biso   1.000  C
  C151     1.0000 0.36540  0.33280  0.31870  Biso   1.000  C
  H184     1.0000 0.34580  0.36390  0.33190  Biso   1.000  H
  C152     1.0000 0.43450  0.30610  0.34180  Biso   1.000  C
  H185     1.0000 0.46700  0.32130  0.36870  Biso   1.000  H
  C153     1.0000 0.41760  0.24170  0.28860  Biso   1.000  C
  H186     1.0000 0.43490  0.20920  0.27790  Biso   1.000  H
  C154     1.0000 0.35220  0.26720  0.26240  Biso   1.000  C
  H187     1.0000 0.32520  0.25220  0.23390  Biso   1.000  H
  C155     1.0000 0.81390  0.18810  0.39650  Biso   1.000  C
  C156     1.0000 0.86830  0.21970  0.35450  Biso   1.000  C
  H188     1.0000 0.83950  0.21250  0.32240  Biso   1.000  H
  H189     1.0000 0.93630  0.21050  0.35400  Biso   1.000  H
  H190     1.0000 0.86210  0.25530  0.36170  Biso   1.000  H
  Cd5      1.0000 0.69207  0.12932  0.45806  Biso   1.000  Cd
  Cd6      1.0000 0.09235  0.28380  0.63799  Biso   1.000  Cd
  Ti5      1.0000 0.31274  0.94401  0.71914  Biso   1.000  Ti
  Ti6      1.0000 0.44443  0.02149  0.80301  Biso   1.000  Ti
  O15      1.0000 0.33680  0.87657  0.73190  Biso   1.000  O
  O16      1.0000 0.22320  0.92870  0.66750  Biso   1.000  O
  O17      1.0000 0.40470  0.01000  0.86820  Biso   1.000  O
  O18      1.0000 0.54090  0.07160  0.82010  Biso   1.000  O
  O19      1.0000 0.37800  0.97270  0.77140  Biso   1.000  O
  O20      1.0000 0.23250  0.32530  0.61050  Biso   1.000  O
  O21      1.0000 0.35550  0.32140  0.56500  Biso   1.000  O
  N17      1.0000 0.23170  0.01450  0.71630  Biso   1.000  N
  H191     1.0000 0.26880  0.03920  0.73620  Biso   1.000  H
  N18      1.0000 0.19110  0.93110  0.77280  Biso   1.000  N
  H192     1.0000 0.14340  0.90860  0.75660  Biso   1.000  H
  N19      1.0000 0.31750  0.68380  0.97770  Biso   1.000  N
  N20      1.0000 0.81250  0.08420  0.49840  Biso   1.000  N
  N21      1.0000 0.55510  0.96240  0.82270  Biso   1.000  N
  H193     1.0000 0.59960  0.97730  0.84760  Biso   1.000  H
  N22      1.0000 0.53840  0.01700  0.73730  Biso   1.000  N
  H194     1.0000 0.50510  0.99580  0.71230  Biso   1.000  H
  N23      1.0000 0.38910  0.77750  0.07800  Biso   1.000  N
  N24      1.0000 0.96000  0.23970  0.67050  Biso   1.000  N
  C157     1.0000 0.13750  0.01020  0.73930  Biso   1.000  C
  H195     1.0000 0.09480  0.99270  0.71530  Biso   1.000  H
  C158     1.0000 0.14110  0.97920  0.78480  Biso   1.000  C
  H196     1.0000 0.18160  0.99720  0.80940  Biso   1.000  H
  C159     1.0000 0.03800  0.97160  0.80850  Biso   1.000  C
  H197     1.0000 0.99620  0.95410  0.78470  Biso   1.000  H
  H198     1.0000 0.04400  0.95030  0.83820  Biso   1.000  H
  C160     1.0000 0.99130  0.02070  0.82290  Biso   1.000  C
  H199     1.0000 0.02870  0.03740  0.84910  Biso   1.000  H
  H200     1.0000 0.92510  0.01520  0.83490  Biso   1.000  H
  C161     1.0000 0.99080  0.05300  0.77460  Biso   1.000  C
  H201     1.0000 0.94820  0.03680  0.75020  Biso   1.000  H
  H202     1.0000 0.96270  0.08600  0.78240  Biso   1.000  H
  C162     1.0000 0.09050  0.06120  0.75050  Biso   1.000  C
  H203     1.0000 0.08320  0.08040  0.71960  Biso   1.000  H
  H204     1.0000 0.13210  0.08050  0.77310  Biso   1.000  H
  C163     1.0000 0.22430  0.90630  0.81890  Biso   1.000  C
  H205     1.0000 0.16770  0.89980  0.83990  Biso   1.000  H
  H206     1.0000 0.26650  0.92970  0.83690  Biso   1.000  H
  C164     1.0000 0.33220  0.84471  0.76975  Biso   1.000  C
  C165     1.0000 0.38260  0.80010  0.76795  Biso   1.000  C
  C166     1.0000 0.38000  0.76769  0.80780  Biso   1.000  C
  H207     1.0000 0.41440  0.73720  0.80660  Biso   1.000  H
  C167     1.0000 0.32710  0.77989  0.84952  Biso   1.000  C
  C168     1.0000 0.27670  0.82450  0.85132  Biso   1.000  C
  H208     1.0000 0.24050  0.83280  0.87980  Biso   1.000  H
  C169     1.0000 0.27920  0.85690  0.81140  Biso   1.000  C
  C170     1.0000 0.44420  0.78630  0.72250  Biso   1.000  C
  C171     1.0000 0.52480  0.82510  0.71440  Biso   1.000  C
  H209     1.0000 0.49620  0.85730  0.70560  Biso   1.000  H
  H210     1.0000 0.56690  0.81390  0.68770  Biso   1.000  H
  H211     1.0000 0.56220  0.82870  0.74480  Biso   1.000  H
  C172     1.0000 0.38040  0.78430  0.67580  Biso   1.000  C
  H212     1.0000 0.33970  0.75460  0.67710  Biso   1.000  H
  H213     1.0000 0.42130  0.78290  0.64650  Biso   1.000  H
  H214     1.0000 0.34000  0.81410  0.67440  Biso   1.000  H
  C173     1.0000 0.49780  0.73510  0.72760  Biso   1.000  C
  H215     1.0000 0.55510  0.73940  0.74810  Biso   1.000  H
  H216     1.0000 0.51690  0.72330  0.69480  Biso   1.000  H
  H217     1.0000 0.45500  0.71070  0.74290  Biso   1.000  H
  C174     1.0000 0.32310  0.74680  0.89380  Biso   1.000  C
  C175     1.0000 0.25790  0.75100  0.93000  Biso   1.000  C
  H218     1.0000 0.20960  0.77570  0.92670  Biso   1.000  H
  C176     1.0000 0.25680  0.72220  0.97040  Biso   1.000  C
  H219     1.0000 0.21080  0.72930  0.99530  Biso   1.000  H
  C177     1.0000 0.38540  0.67910  0.94150  Biso   1.000  C
  H220     1.0000 0.43330  0.65430  0.94540  Biso   1.000  H
  C178     1.0000 0.38800  0.70780  0.90060  Biso   1.000  C
  H221     1.0000 0.43490  0.70140  0.87600  Biso   1.000  H
  C179     1.0000 0.23010  0.03320  0.66610  Biso   1.000  C
  H222     1.0000 0.29480  0.03020  0.65120  Biso   1.000  H
  H223     1.0000 0.21150  0.06870  0.66590  Biso   1.000  H
  C180     1.0000 0.15840  0.00312  0.63630  Biso   1.000  C
  C181     1.0000 0.15960  0.95141  0.63720  Biso   1.000  C
  C182     1.0000 0.09240  0.92463  0.61020  Biso   1.000  C
  C183     1.0000 0.02390  0.94957  0.58230  Biso   1.000  C
  H224     1.0000 0.97790  0.93130  0.56390  Biso   1.000  H
  C184     1.0000 0.02270  0.00130  0.58140  Biso   1.000  C
  C185     1.0000 0.09000  0.02806  0.60840  Biso   1.000  C
  H225     1.0000 0.08910  0.06340  0.60780  Biso   1.000  H
  C186     1.0000 0.08810  0.86590  0.61250  Biso   1.000  C
  C187     1.0000 0.07510  0.84850  0.66670  Biso   1.000  C
  H226     1.0000 0.13690  0.85020  0.68380  Biso   1.000  H
  H227     1.0000 0.05130  0.81420  0.66720  Biso   1.000  H
  H228     1.0000 0.02880  0.87030  0.68330  Biso   1.000  H
  C188     1.0000 0.18130  0.84720  0.59250  Biso   1.000  C
  H229     1.0000 0.18570  0.85530  0.55740  Biso   1.000  H
  H230     1.0000 0.18490  0.81110  0.59690  Biso   1.000  H
  H231     1.0000 0.23440  0.86310  0.61030  Biso   1.000  H
  C189     1.0000 0.00080  0.84570  0.58690  Biso   1.000  C
  H232     1.0000 0.94620  0.86790  0.59290  Biso   1.000  H
  H233     1.0000 0.98620  0.81250  0.59980  Biso   1.000  H
  H234     1.0000 0.01320  0.84360  0.55140  Biso   1.000  H
  C190     1.0000 0.94870  0.02820  0.55090  Biso   1.000  C
  C191     1.0000 0.91650  0.07310  0.56730  Biso   1.000  C
  H235     1.0000 0.94010  0.08630  0.59740  Biso   1.000  H
  C192     1.0000 0.84810  0.10020  0.53940  Biso   1.000  C
  H236     1.0000 0.82740  0.13160  0.55150  Biso   1.000  H
  C193     1.0000 0.84950  0.04050  0.48100  Biso   1.000  C
  H237     1.0000 0.82830  0.02830  0.45000  Biso   1.000  H
  C194     1.0000 0.91620  0.01370  0.50690  Biso   1.000  C
  H238     1.0000 0.94030  0.98380  0.49300  Biso   1.000  H
  C195     1.0000 0.61260  0.94760  0.78050  Biso   1.000  C
  H239     1.0000 0.57380  0.92360  0.76060  Biso   1.000  H
  C196     1.0000 0.63100  0.99290  0.74910  Biso   1.000  C
  H240     1.0000 0.67130  0.01690  0.76820  Biso   1.000  H
  C197     1.0000 0.68640  0.97760  0.70160  Biso   1.000  C
  H241     1.0000 0.64680  0.95460  0.68160  Biso   1.000  H
  H242     1.0000 0.70090  0.00740  0.68150  Biso   1.000  H
  C198     1.0000 0.77980  0.95190  0.71730  Biso   1.000  C
  H243     1.0000 0.81660  0.94260  0.68750  Biso   1.000  H
  H244     1.0000 0.81920  0.97570  0.73640  Biso   1.000  H
  C199     1.0000 0.76250  0.90660  0.74760  Biso   1.000  C
  H245     1.0000 0.82440  0.89140  0.75730  Biso   1.000  H
  H246     1.0000 0.72560  0.88180  0.72830  Biso   1.000  H
  C200     1.0000 0.70480  0.92230  0.79440  Biso   1.000  C
  H247     1.0000 0.69060  0.89240  0.81440  Biso   1.000  H
  H248     1.0000 0.74430  0.94520  0.81460  Biso   1.000  H
  C201     1.0000 0.50810  0.91880  0.84610  Biso   1.000  C
  H249     1.0000 0.55810  0.89370  0.85340  Biso   1.000  H
  H250     1.0000 0.46340  0.90390  0.82190  Biso   1.000  H
  C202     1.0000 0.39160  0.89669  0.97061  Biso   1.000  C
  C203     1.0000 0.44680  0.89123  0.92829  Biso   1.000  C
  H251     1.0000 0.48110  0.86120  0.92270  Biso   1.000  H
  C204     1.0000 0.45170  0.92969  0.89414  Biso   1.000  C
  C205     1.0000 0.40150  0.97361  0.90232  Biso   1.000  C
  C206     1.0000 0.34630  0.97907  0.94464  Biso   1.000  C
  C207     1.0000 0.34140  0.94060  0.97879  Biso   1.000  C
  H252     1.0000 0.30370  0.94430  0.00770  Biso   1.000  H
  C208     1.0000 0.28950  0.02740  0.95430  Biso   1.000  C
  C209     1.0000 0.23230  0.02600  0.00340  Biso   1.000  C
  H253     1.0000 0.18280  0.00020  0.00150  Biso   1.000  H
  H254     1.0000 0.20190  0.05840  0.00900  Biso   1.000  H
  H255     1.0000 0.27610  0.01860  0.03060  Biso   1.000  H
  C210     1.0000 0.35240  0.07350  0.95490  Biso   1.000  C
  H256     1.0000 0.39390  0.07270  0.98400  Biso   1.000  H
  H257     1.0000 0.31190  0.10320  0.95590  Biso   1.000  H
  H258     1.0000 0.39220  0.07410  0.92510  Biso   1.000  H
  C211     1.0000 0.21370  0.03610  0.91330  Biso   1.000  C
  H259     1.0000 0.24590  0.03820  0.88130  Biso   1.000  H
  H260     1.0000 0.17940  0.06730  0.91980  Biso   1.000  H
  H261     1.0000 0.16790  0.00850  0.91300  Biso   1.000  H
  C212     1.0000 0.38930  0.85520  0.00670  Biso   1.000  C
  C213     1.0000 0.45480  0.81740  0.00640  Biso   1.000  C
  H262     1.0000 0.50350  0.81760  0.98190  Biso   1.000  H
  C214     1.0000 0.45340  0.77890  0.04020  Biso   1.000  C
  H263     1.0000 0.49860  0.75270  0.03690  Biso   1.000  H
  C215     1.0000 0.32870  0.81460  0.07950  Biso   1.000  C
  H264     1.0000 0.28530  0.81570  0.10650  Biso   1.000  H
  C216     1.0000 0.32250  0.85240  0.04490  Biso   1.000  C
  H265     1.0000 0.27280  0.87650  0.04720  Biso   1.000  H
  C217     1.0000 0.54910  0.06720  0.71610  Biso   1.000  C
  H266     1.0000 0.48500  0.08300  0.71350  Biso   1.000  H
  H267     1.0000 0.57610  0.06450  0.68250  Biso   1.000  H
  C218     1.0000 0.61350  0.09971  0.74695  Biso   1.000  C
  C219     1.0000 0.60770  0.10012  0.79806  Biso   1.000  C
  C220     1.0000 0.67220  0.12830  0.82540  Biso   1.000  C
  C221     1.0000 0.74250  0.15610  0.80162  Biso   1.000  C
  H268     1.0000 0.78660  0.17530  0.82030  Biso   1.000  H
  C222     1.0000 0.74830  0.15560  0.75051  Biso   1.000  C
  C223     1.0000 0.68370  0.12750  0.72317  Biso   1.000  C
  H269     1.0000 0.68770  0.12720  0.68820  Biso   1.000  H
  C224     1.0000 0.66600  0.12710  0.88200  Biso   1.000  C
  C225     1.0000 0.68270  0.07240  0.90060  Biso   1.000  C
  H270     1.0000 0.63320  0.05050  0.88680  Biso   1.000  H
  H271     1.0000 0.67900  0.07160  0.93670  Biso   1.000  H
  H272     1.0000 0.74620  0.06090  0.89000  Biso   1.000  H
  C226     1.0000 0.56950  0.15120  0.90000  Biso   1.000  C
  H273     1.0000 0.56360  0.18480  0.88620  Biso   1.000  H
  H274     1.0000 0.56930  0.15310  0.93600  Biso   1.000  H
  H275     1.0000 0.51530  0.13080  0.88890  Biso   1.000  H
  C227     1.0000 0.74910  0.16000  0.90410  Biso   1.000  C
  H276     1.0000 0.81120  0.14510  0.89580  Biso   1.000  H
  H277     1.0000 0.74220  0.16180  0.94000  Biso   1.000  H
  H278     1.0000 0.74550  0.19360  0.89020  Biso   1.000  H
  C228     1.0000 0.82240  0.18500  0.72450  Biso   1.000  C
  C229     1.0000 0.86540  0.16720  0.68130  Biso   1.000  C
  H279     1.0000 0.84580  0.13610  0.66810  Biso   1.000  H
  C230     1.0000 0.93450  0.19390  0.65820  Biso   1.000  C
  H280     1.0000 0.96700  0.17870  0.63130  Biso   1.000  H
  C231     1.0000 0.91760  0.25830  0.71140  Biso   1.000  C
  H281     1.0000 0.93490  0.29080  0.72210  Biso   1.000  H
  C232     1.0000 0.85220  0.23280  0.73760  Biso   1.000  C
  H282     1.0000 0.82520  0.24780  0.76610  Biso   1.000  H
  C233     1.0000 0.31390  0.31190  0.60350  Biso   1.000  C
  C234     1.0000 0.36830  0.28030  0.64550  Biso   1.000  C
  H283     1.0000 0.33950  0.28750  0.67760  Biso   1.000  H
  H284     1.0000 0.43630  0.28950  0.64600  Biso   1.000  H
  H285     1.0000 0.36210  0.24470  0.63830  Biso   1.000  H
  Cd7      1.0000 0.80793  0.87068  0.95806  Biso   1.000  Cd
  Cd8      1.0000 0.40765  0.71620  0.13799  Biso   1.000  Cd
  Ti7      1.0000 0.18726  0.05599  0.21914  Biso   1.000  Ti
  Ti8      1.0000 0.05557  0.97851  0.30301  Biso   1.000  Ti
  O22      1.0000 0.16320  0.12343  0.23190  Biso   1.000  O
  O23      1.0000 0.27680  0.07130  0.16750  Biso   1.000  O
  O24      1.0000 0.09530  0.99000  0.36820  Biso   1.000  O
  O25      1.0000 0.95910  0.92840  0.32010  Biso   1.000  O
  O26      1.0000 0.12200  0.02730  0.27140  Biso   1.000  O
  O27      1.0000 0.26750  0.67470  0.11050  Biso   1.000  O
  O28      1.0000 0.14450  0.67860  0.06500  Biso   1.000  O
  N25      1.0000 0.26830  0.98550  0.21630  Biso   1.000  N
  H286     1.0000 0.23120  0.96080  0.23620  Biso   1.000  H
  N26      1.0000 0.30890  0.06890  0.27280  Biso   1.000  N
  H287     1.0000 0.35660  0.09140  0.25660  Biso   1.000  H
  N27      1.0000 0.18250  0.31620  0.47770  Biso   1.000  N
  N28      1.0000 0.68750  0.91580  0.99840  Biso   1.000  N
  N29      1.0000 0.94490  0.03760  0.32270  Biso   1.000  N
  H288     1.0000 0.90040  0.02270  0.34760  Biso   1.000  H
  N30      1.0000 0.96160  0.98300  0.23730  Biso   1.000  N
  H289     1.0000 0.99490  0.00420  0.21230  Biso   1.000  H
  N31      1.0000 0.11090  0.22250  0.57800  Biso   1.000  N
  N32      1.0000 0.54000  0.76030  0.17050  Biso   1.000  N
  C235     1.0000 0.36250  0.98980  0.23930  Biso   1.000  C
  H290     1.0000 0.40520  0.00730  0.21530  Biso   1.000  H
  C236     1.0000 0.35890  0.02080  0.28480  Biso   1.000  C
  H291     1.0000 0.31840  0.00280  0.30940  Biso   1.000  H
  C237     1.0000 0.46200  0.02840  0.30850  Biso   1.000  C
  H292     1.0000 0.50380  0.04590  0.28470  Biso   1.000  H
  H293     1.0000 0.45600  0.04970  0.33820  Biso   1.000  H
  C238     1.0000 0.50870  0.97930  0.32290  Biso   1.000  C
  H294     1.0000 0.47130  0.96260  0.34910  Biso   1.000  H
  H295     1.0000 0.57490  0.98480  0.33490  Biso   1.000  H
  C239     1.0000 0.50920  0.94700  0.27460  Biso   1.000  C
  H296     1.0000 0.55180  0.96320  0.25020  Biso   1.000  H
  H297     1.0000 0.53730  0.91400  0.28240  Biso   1.000  H
  C240     1.0000 0.40950  0.93880  0.25050  Biso   1.000  C
  H298     1.0000 0.41680  0.91960  0.21960  Biso   1.000  H
  H299     1.0000 0.36790  0.91950  0.27310  Biso   1.000  H
  C241     1.0000 0.27570  0.09370  0.31890  Biso   1.000  C
  H300     1.0000 0.33230  0.10020  0.33990  Biso   1.000  H
  H301     1.0000 0.23350  0.07030  0.33690  Biso   1.000  H
  C242     1.0000 0.16780  0.15529  0.26975  Biso   1.000  C
  C243     1.0000 0.11740  0.19990  0.26795  Biso   1.000  C
  C244     1.0000 0.12000  0.23231  0.30780  Biso   1.000  C
  H302     1.0000 0.08560  0.26280  0.30660  Biso   1.000  H
  C245     1.0000 0.17290  0.22011  0.34952  Biso   1.000  C
  C246     1.0000 0.22330  0.17550  0.35132  Biso   1.000  C
  H303     1.0000 0.25950  0.16720  0.37980  Biso   1.000  H
  C247     1.0000 0.22080  0.14310  0.31140  Biso   1.000  C
  C248     1.0000 0.05580  0.21370  0.22250  Biso   1.000  C
  C249     1.0000 0.97520  0.17490  0.21440  Biso   1.000  C
  H304     1.0000 0.00380  0.14270  0.20560  Biso   1.000  H
  H305     1.0000 0.93310  0.18610  0.18770  Biso   1.000  H
  H306     1.0000 0.93780  0.17130  0.24480  Biso   1.000  H
  C250     1.0000 0.11960  0.21570  0.17580  Biso   1.000  C
  H307     1.0000 0.16030  0.24540  0.17710  Biso   1.000  H
  H308     1.0000 0.07870  0.21710  0.14650  Biso   1.000  H
  H309     1.0000 0.16000  0.18590  0.17440  Biso   1.000  H
  C251     1.0000 0.00220  0.26490  0.22760  Biso   1.000  C
  H310     1.0000 0.94490  0.26060  0.24810  Biso   1.000  H
  H311     1.0000 0.98310  0.27670  0.19480  Biso   1.000  H
  H312     1.0000 0.04500  0.28930  0.24290  Biso   1.000  H
  C252     1.0000 0.17690  0.25320  0.39380  Biso   1.000  C
  C253     1.0000 0.24210  0.24900  0.43000  Biso   1.000  C
  H313     1.0000 0.29040  0.22430  0.42670  Biso   1.000  H
  C254     1.0000 0.24320  0.27780  0.47040  Biso   1.000  C
  H314     1.0000 0.28920  0.27070  0.49530  Biso   1.000  H
  C255     1.0000 0.11460  0.32090  0.44150  Biso   1.000  C
  H315     1.0000 0.06670  0.34570  0.44540  Biso   1.000  H
  C256     1.0000 0.11200  0.29220  0.40060  Biso   1.000  C
  H316     1.0000 0.06510  0.29860  0.37600  Biso   1.000  H
  C257     1.0000 0.26990  0.96680  0.16610  Biso   1.000  C
  H317     1.0000 0.20520  0.96980  0.15120  Biso   1.000  H
  H318     1.0000 0.28850  0.93130  0.16590  Biso   1.000  H
  C258     1.0000 0.34160  0.99688  0.13630  Biso   1.000  C
  C259     1.0000 0.34040  0.04859  0.13720  Biso   1.000  C
  C260     1.0000 0.40760  0.07537  0.11020  Biso   1.000  C
  C261     1.0000 0.47610  0.05043  0.08230  Biso   1.000  C
  H319     1.0000 0.52210  0.06870  0.06390  Biso   1.000  H
  C262     1.0000 0.47730  0.99870  0.08140  Biso   1.000  C
  C263     1.0000 0.41000  0.97194  0.10840  Biso   1.000  C
  H320     1.0000 0.41090  0.93660  0.10780  Biso   1.000  H
  C264     1.0000 0.41190  0.13410  0.11250  Biso   1.000  C
  C265     1.0000 0.42490  0.15150  0.16670  Biso   1.000  C
  H321     1.0000 0.36310  0.14980  0.18380  Biso   1.000  H
  H322     1.0000 0.44870  0.18580  0.16720  Biso   1.000  H
  H323     1.0000 0.47120  0.12970  0.18330  Biso   1.000  H
  C266     1.0000 0.31870  0.15280  0.09250  Biso   1.000  C
  H324     1.0000 0.31430  0.14470  0.05740  Biso   1.000  H
  H325     1.0000 0.31510  0.18890  0.09690  Biso   1.000  H
  H326     1.0000 0.26560  0.13690  0.11030  Biso   1.000  H
  C267     1.0000 0.49920  0.15430  0.08690  Biso   1.000  C
  H327     1.0000 0.55380  0.13210  0.09290  Biso   1.000  H
  H328     1.0000 0.51380  0.18750  0.09980  Biso   1.000  H
  H329     1.0000 0.48680  0.15640  0.05140  Biso   1.000  H
  C268     1.0000 0.55130  0.97180  0.05090  Biso   1.000  C
  C269     1.0000 0.58350  0.92690  0.06730  Biso   1.000  C
  H330     1.0000 0.55990  0.91370  0.09740  Biso   1.000  H
  C270     1.0000 0.65190  0.89980  0.03940  Biso   1.000  C
  H331     1.0000 0.67260  0.86840  0.05150  Biso   1.000  H
  C271     1.0000 0.65050  0.95950  0.98100  Biso   1.000  C
  H332     1.0000 0.67170  0.97170  0.95000  Biso   1.000  H
  C272     1.0000 0.58380  0.98630  0.00690  Biso   1.000  C
  H333     1.0000 0.55970  0.01620  0.99300  Biso   1.000  H
  C273     1.0000 0.88740  0.05240  0.28050  Biso   1.000  C
  H334     1.0000 0.92620  0.07640  0.26060  Biso   1.000  H
  C274     1.0000 0.86900  0.00710  0.24910  Biso   1.000  C
  H335     1.0000 0.82870  0.98310  0.26820  Biso   1.000  H
  C275     1.0000 0.81360  0.02240  0.20160  Biso   1.000  C
  H336     1.0000 0.85320  0.04540  0.18160  Biso   1.000  H
  H337     1.0000 0.79910  0.99260  0.18150  Biso   1.000  H
  C276     1.0000 0.72020  0.04810  0.21730  Biso   1.000  C
  H338     1.0000 0.68340  0.05740  0.18750  Biso   1.000  H
  H339     1.0000 0.68080  0.02430  0.23640  Biso   1.000  H
  C277     1.0000 0.73750  0.09340  0.24760  Biso   1.000  C
  H340     1.0000 0.67560  0.10860  0.25730  Biso   1.000  H
  H341     1.0000 0.77440  0.11820  0.22830  Biso   1.000  H
  C278     1.0000 0.79520  0.07770  0.29440  Biso   1.000  C
  H342     1.0000 0.80940  0.10760  0.31440  Biso   1.000  H
  H343     1.0000 0.75570  0.05480  0.31460  Biso   1.000  H
  C279     1.0000 0.99190  0.08120  0.34610  Biso   1.000  C
  H344     1.0000 0.94190  0.10630  0.35340  Biso   1.000  H
  H345     1.0000 0.03660  0.09610  0.32190  Biso   1.000  H
  C280     1.0000 0.10840  0.10331  0.47061  Biso   1.000  C
  C281     1.0000 0.05320  0.10877  0.42829  Biso   1.000  C
  H346     1.0000 0.01890  0.13880  0.42270  Biso   1.000  H
  C282     1.0000 0.04830  0.07031  0.39414  Biso   1.000  C
  C283     1.0000 0.09850  0.02639  0.40232  Biso   1.000  C
  C284     1.0000 0.15370  0.02093  0.44464  Biso   1.000  C
  C285     1.0000 0.15860  0.05940  0.47879  Biso   1.000  C
  H347     1.0000 0.19630  0.05570  0.50770  Biso   1.000  H
  C286     1.0000 0.21050  0.97260  0.45430  Biso   1.000  C
  C287     1.0000 0.26770  0.97400  0.50340  Biso   1.000  C
  H348     1.0000 0.31720  0.99980  0.50150  Biso   1.000  H
  H349     1.0000 0.29810  0.94160  0.50900  Biso   1.000  H
  H350     1.0000 0.22390  0.98140  0.53060  Biso   1.000  H
  C288     1.0000 0.14760  0.92650  0.45490  Biso   1.000  C
  H351     1.0000 0.10610  0.92730  0.48400  Biso   1.000  H
  H352     1.0000 0.18810  0.89680  0.45590  Biso   1.000  H
  H353     1.0000 0.10780  0.92590  0.42510  Biso   1.000  H
  C289     1.0000 0.28630  0.96390  0.41330  Biso   1.000  C
  H354     1.0000 0.25410  0.96180  0.38130  Biso   1.000  H
  H355     1.0000 0.32060  0.93270  0.41980  Biso   1.000  H
  H356     1.0000 0.33210  0.99150  0.41300  Biso   1.000  H
  C290     1.0000 0.11070  0.14480  0.50670  Biso   1.000  C
  C291     1.0000 0.04520  0.18260  0.50640  Biso   1.000  C
  H357     1.0000 0.99650  0.18240  0.48190  Biso   1.000  H
  C292     1.0000 0.04660  0.22110  0.54020  Biso   1.000  C
  H358     1.0000 0.00140  0.24730  0.53690  Biso   1.000  H
  C293     1.0000 0.17130  0.18540  0.57950  Biso   1.000  C
  H359     1.0000 0.21470  0.18430  0.60650  Biso   1.000  H
  C294     1.0000 0.17750  0.14760  0.54490  Biso   1.000  C
  H360     1.0000 0.22720  0.12350  0.54720  Biso   1.000  H
  C295     1.0000 0.95090  0.93280  0.21610  Biso   1.000  C
  H361     1.0000 0.01500  0.91700  0.21350  Biso   1.000  H
  H362     1.0000 0.92390  0.93550  0.18250  Biso   1.000  H
  C296     1.0000 0.88650  0.90029  0.24695  Biso   1.000  C
  C297     1.0000 0.89230  0.89988  0.29806  Biso   1.000  C
  C298     1.0000 0.82780  0.87170  0.32540  Biso   1.000  C
  C299     1.0000 0.75750  0.84390  0.30162  Biso   1.000  C
  H363     1.0000 0.71340  0.82470  0.32030  Biso   1.000  H
  C300     1.0000 0.75170  0.84440  0.25051  Biso   1.000  C
  C301     1.0000 0.81630  0.87250  0.22317  Biso   1.000  C
  H364     1.0000 0.81230  0.87280  0.18820  Biso   1.000  H
  C302     1.0000 0.83400  0.87290  0.38200  Biso   1.000  C
  C303     1.0000 0.81730  0.92760  0.40060  Biso   1.000  C
  H365     1.0000 0.86680  0.94950  0.38680  Biso   1.000  H
  H366     1.0000 0.82100  0.92840  0.43670  Biso   1.000  H
  H367     1.0000 0.75380  0.93910  0.39000  Biso   1.000  H
  C304     1.0000 0.93050  0.84880  0.40000  Biso   1.000  C
  H368     1.0000 0.93640  0.81520  0.38620  Biso   1.000  H
  H369     1.0000 0.93070  0.84690  0.43600  Biso   1.000  H
  H370     1.0000 0.98470  0.86920  0.38890  Biso   1.000  H
  C305     1.0000 0.75090  0.84000  0.40410  Biso   1.000  C
  H371     1.0000 0.68880  0.85490  0.39580  Biso   1.000  H
  H372     1.0000 0.75780  0.83820  0.44000  Biso   1.000  H
  H373     1.0000 0.75450  0.80640  0.39020  Biso   1.000  H
  C306     1.0000 0.67760  0.81500  0.22450  Biso   1.000  C
  C307     1.0000 0.63460  0.83280  0.18130  Biso   1.000  C
  H374     1.0000 0.65420  0.86390  0.16810  Biso   1.000  H
  C308     1.0000 0.56550  0.80610  0.15820  Biso   1.000  C
  H375     1.0000 0.53300  0.82130  0.13130  Biso   1.000  H
  C309     1.0000 0.58240  0.74170  0.21140  Biso   1.000  C
  H376     1.0000 0.56510  0.70920  0.22210  Biso   1.000  H
  C310     1.0000 0.64780  0.76720  0.23760  Biso   1.000  C
  H377     1.0000 0.67480  0.75220  0.26610  Biso   1.000  H
  C311     1.0000 0.18610  0.68810  0.10350  Biso   1.000  C
  C312     1.0000 0.13170  0.71970  0.14550  Biso   1.000  C
  H378     1.0000 0.16050  0.71250  0.17760  Biso   1.000  H
  H379     1.0000 0.06370  0.71050  0.14600  Biso   1.000  H
  H380     1.0000 0.13790  0.75530  0.13830  Biso   1.000  H
