data_HUKQUZ_charged
_audit_creation_date              2014-07-02
_audit_creation_method            'Materials Studio'
_symmetry_space_group_name_H-M    'P1'
_symmetry_Int_Tables_number       1
_symmetry_cell_setting            triclinic
loop_
_symmetry_equiv_pos_as_xyz
  x,y,z
_cell_length_a                    20.7830
_cell_length_b                    20.7830
_cell_length_c                    23.1350
_cell_angle_alpha                 63.3096
_cell_angle_beta                  63.3097
_cell_angle_gamma                 60.0000
loop_
_atom_site_label
_atom_site_type_symbol
_atom_site_fract_x
_atom_site_fract_y
_atom_site_fract_z
_atom_site_U_iso_or_equiv
_atom_site_adp_type
_atom_site_occupancy
Cd1    Cd    0.00000   0.00000   0.00000   0.01267  Uiso   1.00
Cd2    Cd    0.50000   0.50000   0.50000   0.01267  Uiso   1.00
H1     H     0.82200   0.09910   0.96880   0.01267  Uiso   1.00
H2     H     0.99780   0.16710   0.86350   0.01267  Uiso   1.00
H3     H     0.88930   0.26430   0.81760   0.01267  Uiso   1.00
H4     H     0.72520   0.28220   0.89380   0.01267  Uiso   1.00
H5     H     0.72240   0.20020   0.90970   0.01267  Uiso   1.00
H6     H     0.81500   0.14290   0.80290   0.01267  Uiso   1.00
H7     H     0.69900   0.36900   0.78940   0.01267  Uiso   1.00
H8     H     0.82100   0.16970   0.69310   0.01267  Uiso   1.00
H9     H     0.70690   0.39740   0.67810   0.01267  Uiso   1.00
H10    H     0.78920   0.34700   0.57400   0.01267  Uiso   1.00
H11    H     0.80370   0.25920   0.58630   0.01267  Uiso   1.00
H12    H     0.67540   0.43880   0.52630   0.01267  Uiso   1.00
H13    H     0.65200   0.24080   0.66190   0.01267  Uiso   1.00
H14    H     0.53450   0.32580   0.62470   0.01267  Uiso   1.00
H15    H     0.09910   0.11010   0.96880   0.01267  Uiso   1.00
H16    H     0.16710   0.97160   0.86350   0.01267  Uiso   1.00
H17    H     0.26430   0.02880   0.81760   0.01267  Uiso   1.00
H18    H     0.28220   0.09880   0.89380   0.01267  Uiso   1.00
H19    H     0.20020   0.16770   0.90970   0.01267  Uiso   1.00
H20    H     0.14290   0.23920   0.80290   0.01267  Uiso   1.00
H21    H     0.36900   0.14260   0.78940   0.01267  Uiso   1.00
H22    H     0.16970   0.31620   0.69310   0.01267  Uiso   1.00
H23    H     0.39740   0.21760   0.67810   0.01267  Uiso   1.00
H24    H     0.34700   0.28980   0.57400   0.01267  Uiso   1.00
H25    H     0.25920   0.35080   0.58630   0.01267  Uiso   1.00
H26    H     0.43880   0.35950   0.52630   0.01267  Uiso   1.00
H27    H     0.24080   0.44530   0.66190   0.01267  Uiso   1.00
H28    H     0.32580   0.51500   0.62470   0.01267  Uiso   1.00
H29    H     0.11010   0.82200   0.96880   0.01267  Uiso   1.00
H30    H     0.97160   0.99780   0.86350   0.01267  Uiso   1.00
H31    H     0.02880   0.88930   0.81760   0.01267  Uiso   1.00
H32    H     0.09880   0.72520   0.89380   0.01267  Uiso   1.00
H33    H     0.16770   0.72240   0.90970   0.01267  Uiso   1.00
H34    H     0.23920   0.81500   0.80290   0.01267  Uiso   1.00
H35    H     0.14260   0.69900   0.78940   0.01267  Uiso   1.00
H36    H     0.31620   0.82100   0.69310   0.01267  Uiso   1.00
H37    H     0.21760   0.70690   0.67810   0.01267  Uiso   1.00
H38    H     0.28980   0.78920   0.57400   0.01267  Uiso   1.00
H39    H     0.35080   0.80370   0.58630   0.01267  Uiso   1.00
H40    H     0.35950   0.67540   0.52630   0.01267  Uiso   1.00
H41    H     0.44530   0.65200   0.66190   0.01267  Uiso   1.00
H42    H     0.51500   0.53450   0.62470   0.01267  Uiso   1.00
H43    H     0.17800   0.90090   0.03120   0.01267  Uiso   1.00
H44    H     0.00220   0.83290   0.13650   0.01267  Uiso   1.00
H45    H     0.11070   0.73570   0.18240   0.01267  Uiso   1.00
H46    H     0.27480   0.71780   0.10620   0.01267  Uiso   1.00
H47    H     0.27760   0.79980   0.09030   0.01267  Uiso   1.00
H48    H     0.18500   0.85710   0.19710   0.01267  Uiso   1.00
H49    H     0.30100   0.63100   0.21060   0.01267  Uiso   1.00
H50    H     0.17900   0.83030   0.30690   0.01267  Uiso   1.00
H51    H     0.29310   0.60260   0.32190   0.01267  Uiso   1.00
H52    H     0.21080   0.65300   0.42600   0.01267  Uiso   1.00
H53    H     0.19630   0.74080   0.41370   0.01267  Uiso   1.00
H54    H     0.32460   0.56120   0.47370   0.01267  Uiso   1.00
H55    H     0.34800   0.75920   0.33810   0.01267  Uiso   1.00
H56    H     0.46550   0.67420   0.37530   0.01267  Uiso   1.00
H57    H     0.90090   0.88990   0.03120   0.01267  Uiso   1.00
H58    H     0.83290   0.02840   0.13650   0.01267  Uiso   1.00
H59    H     0.73570   0.97120   0.18240   0.01267  Uiso   1.00
H60    H     0.71780   0.90120   0.10620   0.01267  Uiso   1.00
H61    H     0.79980   0.83230   0.09030   0.01267  Uiso   1.00
H62    H     0.85710   0.76080   0.19710   0.01267  Uiso   1.00
H63    H     0.63100   0.85740   0.21060   0.01267  Uiso   1.00
H64    H     0.83030   0.68380   0.30690   0.01267  Uiso   1.00
H65    H     0.60260   0.78240   0.32190   0.01267  Uiso   1.00
H66    H     0.65300   0.71020   0.42600   0.01267  Uiso   1.00
H67    H     0.74080   0.64920   0.41370   0.01267  Uiso   1.00
H68    H     0.56120   0.64050   0.47370   0.01267  Uiso   1.00
H69    H     0.75920   0.55470   0.33810   0.01267  Uiso   1.00
H70    H     0.67420   0.48500   0.37530   0.01267  Uiso   1.00
H71    H     0.88990   0.17800   0.03120   0.01267  Uiso   1.00
H72    H     0.02840   0.00220   0.13650   0.01267  Uiso   1.00
H73    H     0.97120   0.11070   0.18240   0.01267  Uiso   1.00
H74    H     0.90120   0.27480   0.10620   0.01267  Uiso   1.00
H75    H     0.83230   0.27760   0.09030   0.01267  Uiso   1.00
H76    H     0.76080   0.18500   0.19710   0.01267  Uiso   1.00
H77    H     0.85740   0.30100   0.21060   0.01267  Uiso   1.00
H78    H     0.68380   0.17900   0.30690   0.01267  Uiso   1.00
H79    H     0.78240   0.29310   0.32190   0.01267  Uiso   1.00
H80    H     0.71020   0.21080   0.42600   0.01267  Uiso   1.00
H81    H     0.64920   0.19630   0.41370   0.01267  Uiso   1.00
H82    H     0.64050   0.32460   0.47370   0.01267  Uiso   1.00
H83    H     0.55470   0.34800   0.33810   0.01267  Uiso   1.00
H84    H     0.48500   0.46550   0.37530   0.01267  Uiso   1.00
C1     C     0.85305   0.12865   0.93655   0.01267  Uiso   1.00
C2     C     0.94770   0.16520   0.88000   0.01267  Uiso   1.00
C3     C     0.88870   0.21850   0.85420   0.01267  Uiso   1.00
C4     C     0.75260   0.23390   0.88030   0.01267  Uiso   1.00
C5     C     0.75625   0.25385   0.80755   0.01267  Uiso   1.00
C6     C     0.79260   0.19500   0.77770   0.01267  Uiso   1.00
C7     C     0.72470   0.32790   0.76960   0.01267  Uiso   1.00
C8     C     0.79640   0.21100   0.71260   0.01267  Uiso   1.00
C9     C     0.72898   0.34518   0.70336   0.01267  Uiso   1.00
C10    C     0.76559   0.28559   0.67453   0.01267  Uiso   1.00
C11    C     0.76825   0.30545   0.60265   0.01267  Uiso   1.00
C12    C     0.65369   0.40059   0.55663   0.01267  Uiso   1.00
C13    C     0.64258   0.29128   0.63046   0.01267  Uiso   1.00
C14    C     0.57820   0.33890   0.61000   0.01267  Uiso   1.00
C15    C     0.12865   0.08175   0.93655   0.01267  Uiso   1.00
C16    C     0.16520   0.00710   0.88000   0.01267  Uiso   1.00
C17    C     0.21850   0.03860   0.85420   0.01267  Uiso   1.00
C18    C     0.23390   0.13320   0.88030   0.01267  Uiso   1.00
C19    C     0.25385   0.18235   0.80755   0.01267  Uiso   1.00
C20    C     0.19500   0.23470   0.77770   0.01267  Uiso   1.00
C21    C     0.32790   0.17780   0.76960   0.01267  Uiso   1.00
C22    C     0.21100   0.28000   0.71260   0.01267  Uiso   1.00
C23    C     0.34518   0.22248   0.70336   0.01267  Uiso   1.00
C24    C     0.28559   0.27429   0.67453   0.01267  Uiso   1.00
C25    C     0.30545   0.32365   0.60265   0.01267  Uiso   1.00
C26    C     0.40059   0.38909   0.55663   0.01267  Uiso   1.00
C27    C     0.29128   0.43568   0.63046   0.01267  Uiso   1.00
C28    C     0.33890   0.47290   0.61000   0.01267  Uiso   1.00
C29    C     0.08175   0.85305   0.93655   0.01267  Uiso   1.00
C30    C     0.00710   0.94770   0.88000   0.01267  Uiso   1.00
C31    C     0.03860   0.88870   0.85420   0.01267  Uiso   1.00
C32    C     0.13320   0.75260   0.88030   0.01267  Uiso   1.00
C33    C     0.18235   0.75625   0.80755   0.01267  Uiso   1.00
C34    C     0.23470   0.79260   0.77770   0.01267  Uiso   1.00
C35    C     0.17780   0.72470   0.76960   0.01267  Uiso   1.00
C36    C     0.28000   0.79640   0.71260   0.01267  Uiso   1.00
C37    C     0.22248   0.72898   0.70336   0.01267  Uiso   1.00
C38    C     0.27429   0.76559   0.67453   0.01267  Uiso   1.00
C39    C     0.32365   0.76825   0.60265   0.01267  Uiso   1.00
C40    C     0.38909   0.65369   0.55663   0.01267  Uiso   1.00
C41    C     0.43568   0.64258   0.63046   0.01267  Uiso   1.00
C42    C     0.47290   0.57820   0.61000   0.01267  Uiso   1.00
C43    C     0.14695   0.87135   0.06345   0.01267  Uiso   1.00
C44    C     0.05230   0.83480   0.12000   0.01267  Uiso   1.00
C45    C     0.11130   0.78150   0.14580   0.01267  Uiso   1.00
C46    C     0.24740   0.76610   0.11970   0.01267  Uiso   1.00
C47    C     0.24375   0.74615   0.19245   0.01267  Uiso   1.00
C48    C     0.20740   0.80500   0.22230   0.01267  Uiso   1.00
C49    C     0.27530   0.67210   0.23040   0.01267  Uiso   1.00
C50    C     0.20360   0.78900   0.28740   0.01267  Uiso   1.00
C51    C     0.27102   0.65482   0.29664   0.01267  Uiso   1.00
C52    C     0.23441   0.71441   0.32547   0.01267  Uiso   1.00
C53    C     0.23175   0.69455   0.39735   0.01267  Uiso   1.00
C54    C     0.34631   0.59941   0.44337   0.01267  Uiso   1.00
C55    C     0.35742   0.70872   0.36954   0.01267  Uiso   1.00
C56    C     0.42180   0.66110   0.39000   0.01267  Uiso   1.00
C57    C     0.87135   0.91825   0.06345   0.01267  Uiso   1.00
C58    C     0.83480   0.99290   0.12000   0.01267  Uiso   1.00
C59    C     0.78150   0.96140   0.14580   0.01267  Uiso   1.00
C60    C     0.76610   0.86680   0.11970   0.01267  Uiso   1.00
C61    C     0.74615   0.81765   0.19245   0.01267  Uiso   1.00
C62    C     0.80500   0.76530   0.22230   0.01267  Uiso   1.00
C63    C     0.67210   0.82220   0.23040   0.01267  Uiso   1.00
C64    C     0.78900   0.72000   0.28740   0.01267  Uiso   1.00
C65    C     0.65482   0.77752   0.29664   0.01267  Uiso   1.00
C66    C     0.71441   0.72571   0.32547   0.01267  Uiso   1.00
C67    C     0.69455   0.67635   0.39735   0.01267  Uiso   1.00
C68    C     0.59941   0.61091   0.44337   0.01267  Uiso   1.00
C69    C     0.70872   0.56432   0.36954   0.01267  Uiso   1.00
C70    C     0.66110   0.52710   0.39000   0.01267  Uiso   1.00
C71    C     0.91825   0.14695   0.06345   0.01267  Uiso   1.00
C72    C     0.99290   0.05230   0.12000   0.01267  Uiso   1.00
C73    C     0.96140   0.11130   0.14580   0.01267  Uiso   1.00
C74    C     0.86680   0.24740   0.11970   0.01267  Uiso   1.00
C75    C     0.81765   0.24375   0.19245   0.01267  Uiso   1.00
C76    C     0.76530   0.20740   0.22230   0.01267  Uiso   1.00
C77    C     0.82220   0.27530   0.23040   0.01267  Uiso   1.00
C78    C     0.72000   0.20360   0.28740   0.01267  Uiso   1.00
C79    C     0.77752   0.27102   0.29664   0.01267  Uiso   1.00
C80    C     0.72571   0.23441   0.32547   0.01267  Uiso   1.00
C81    C     0.67635   0.23175   0.39735   0.01267  Uiso   1.00
C82    C     0.61091   0.34631   0.44337   0.01267  Uiso   1.00
C83    C     0.56432   0.35742   0.36954   0.01267  Uiso   1.00
C84    C     0.52710   0.42180   0.39000   0.01267  Uiso   1.00
N1     N     0.92618   0.10848   0.93256   0.01267  Uiso   1.00
N2     N     0.82805   0.19525   0.89005   0.01267  Uiso   1.00
N3     N     0.69129   0.33119   0.59653   0.01267  Uiso   1.00
N4     N     0.58356   0.40766   0.56572   0.01267  Uiso   1.00
N5     N     0.10848   0.03278   0.93256   0.01267  Uiso   1.00
N6     N     0.19525   0.08665   0.89005   0.01267  Uiso   1.00
N7     N     0.33119   0.38099   0.59653   0.01267  Uiso   1.00
N8     N     0.40766   0.44306   0.56572   0.01267  Uiso   1.00
N9     N     0.03278   0.92618   0.93256   0.01267  Uiso   1.00
N10    N     0.08665   0.82805   0.89005   0.01267  Uiso   1.00
N11    N     0.38099   0.69129   0.59653   0.01267  Uiso   1.00
N12    N     0.44306   0.58356   0.56572   0.01267  Uiso   1.00
N13    N     0.07382   0.89152   0.06744   0.01267  Uiso   1.00
N14    N     0.17195   0.80475   0.10995   0.01267  Uiso   1.00
N15    N     0.30871   0.66881   0.40347   0.01267  Uiso   1.00
N16    N     0.41644   0.59234   0.43428   0.01267  Uiso   1.00
N17    N     0.89152   0.96722   0.06744   0.01267  Uiso   1.00
N18    N     0.80475   0.91335   0.10995   0.01267  Uiso   1.00
N19    N     0.66881   0.61901   0.40347   0.01267  Uiso   1.00
N20    N     0.59234   0.55694   0.43428   0.01267  Uiso   1.00
N21    N     0.96722   0.07382   0.06744   0.01267  Uiso   1.00
N22    N     0.91335   0.17195   0.10995   0.01267  Uiso   1.00
N23    N     0.61901   0.30871   0.40347   0.01267  Uiso   1.00
N24    N     0.55694   0.41644   0.43428   0.01267  Uiso   1.00
Cd3    Cd    0.15655   0.15655   0.53035   0.01267  Uiso   1.00
Cd4    Cd    0.65611   0.65611   0.03167   0.01267  Uiso   1.00
H85    H     0.98410   0.29820   0.50320   0.01267  Uiso   1.00
H86    H     0.01600   0.23570   0.35020   0.01267  Uiso   1.00
H87    H     0.13050   0.15700   0.39190   0.01267  Uiso   1.00
H88    H     0.87360   0.37600   0.45280   0.01267  Uiso   1.00
H89    H     0.86070   0.31810   0.43480   0.01267  Uiso   1.00
H90    H     0.94310   0.46440   0.35230   0.01267  Uiso   1.00
H91    H     0.84300   0.35670   0.33010   0.01267  Uiso   1.00
H92    H     0.94290   0.54910   0.24430   0.01267  Uiso   1.00
H93    H     0.84780   0.44030   0.21910   0.01267  Uiso   1.00
H94    H     0.91300   0.59810   0.14350   0.01267  Uiso   1.00
H95    H     0.93120   0.52860   0.11890   0.01267  Uiso   1.00
H96    H     0.74880   0.65930   0.21280   0.01267  Uiso   1.00
H97    H     0.83300   0.56340   0.06490   0.01267  Uiso   1.00
H98    H     0.64530   0.70310   0.16180   0.01267  Uiso   1.00
H99    H     0.32700   0.00770   0.56140   0.01267  Uiso   1.00
H100   H     0.19940   0.17540   0.65080   0.01267  Uiso   1.00
H101   H     0.32310   0.10250   0.68080   0.01267  Uiso   1.00
H102   H     0.44640   0.93780   0.60160   0.01267  Uiso   1.00
H103   H     0.46680   0.99660   0.61120   0.01267  Uiso   1.00
H104   H     0.31780   0.92360   0.73180   0.01267  Uiso   1.00
H105   H     0.53220   0.90570   0.69340   0.01267  Uiso   1.00
H106   H     0.31340   0.85220   0.84250   0.01267  Uiso   1.00
H107   H     0.53490   0.81870   0.79990   0.01267  Uiso   1.00
H108   H     0.38870   0.82360   0.93520   0.01267  Uiso   1.00
H109   H     0.38080   0.75750   0.92410   0.01267  Uiso   1.00
H110   H     0.48770   0.76910   0.98930   0.01267  Uiso   1.00
H111   H     0.54750   0.65900   0.85840   0.01267  Uiso   1.00
H112   H     0.65080   0.59940   0.91130   0.01267  Uiso   1.00
H113   H     0.29820   0.21450   0.50320   0.01267  Uiso   1.00
H114   H     0.23570   0.39810   0.35020   0.01267  Uiso   1.00
H115   H     0.15700   0.32060   0.39190   0.01267  Uiso   1.00
H116   H     0.37600   0.29760   0.45280   0.01267  Uiso   1.00
H117   H     0.31810   0.38640   0.43480   0.01267  Uiso   1.00
H118   H     0.46440   0.24020   0.35230   0.01267  Uiso   1.00
H119   H     0.35670   0.47020   0.33010   0.01267  Uiso   1.00
H120   H     0.54910   0.26370   0.24430   0.01267  Uiso   1.00
H121   H     0.44030   0.49280   0.21910   0.01267  Uiso   1.00
H122   H     0.59810   0.34540   0.14350   0.01267  Uiso   1.00
H123   H     0.52860   0.42130   0.11890   0.01267  Uiso   1.00
H124   H     0.65930   0.37910   0.21280   0.01267  Uiso   1.00
H125   H     0.56340   0.53870   0.06490   0.01267  Uiso   1.00
H126   H     0.70310   0.48980   0.16180   0.01267  Uiso   1.00
H127   H     0.00770   0.10390   0.56140   0.01267  Uiso   1.00
H128   H     0.17540   0.97440   0.65080   0.01267  Uiso   1.00
H129   H     0.10250   0.89360   0.68080   0.01267  Uiso   1.00
H130   H     0.93780   0.01420   0.60160   0.01267  Uiso   1.00
H131   H     0.99660   0.92540   0.61120   0.01267  Uiso   1.00
H132   H     0.92360   0.02680   0.73180   0.01267  Uiso   1.00
H133   H     0.90570   0.86870   0.69340   0.01267  Uiso   1.00
H134   H     0.85220   0.99190   0.84250   0.01267  Uiso   1.00
H135   H     0.81870   0.84650   0.79990   0.01267  Uiso   1.00
H136   H     0.82360   0.85250   0.93520   0.01267  Uiso   1.00
H137   H     0.75750   0.93760   0.92410   0.01267  Uiso   1.00
H138   H     0.76910   0.75390   0.98930   0.01267  Uiso   1.00
H139   H     0.65900   0.93510   0.85840   0.01267  Uiso   1.00
H140   H     0.59940   0.83850   0.91130   0.01267  Uiso   1.00
H141   H     0.21450   0.98410   0.50320   0.01267  Uiso   1.00
H142   H     0.39810   0.01600   0.35020   0.01267  Uiso   1.00
H143   H     0.32060   0.13050   0.39190   0.01267  Uiso   1.00
H144   H     0.29760   0.87360   0.45280   0.01267  Uiso   1.00
H145   H     0.38640   0.86070   0.43480   0.01267  Uiso   1.00
H146   H     0.24020   0.94310   0.35230   0.01267  Uiso   1.00
H147   H     0.47020   0.84300   0.33010   0.01267  Uiso   1.00
H148   H     0.26370   0.94290   0.24430   0.01267  Uiso   1.00
H149   H     0.49280   0.84780   0.21910   0.01267  Uiso   1.00
H150   H     0.34540   0.91300   0.14350   0.01267  Uiso   1.00
H151   H     0.42130   0.93120   0.11890   0.01267  Uiso   1.00
H152   H     0.37910   0.74880   0.21280   0.01267  Uiso   1.00
H153   H     0.53870   0.83300   0.06490   0.01267  Uiso   1.00
H154   H     0.48980   0.64530   0.16180   0.01267  Uiso   1.00
H155   H     0.10390   0.32700   0.56140   0.01267  Uiso   1.00
H156   H     0.97440   0.19940   0.65080   0.01267  Uiso   1.00
H157   H     0.89360   0.32310   0.68080   0.01267  Uiso   1.00
H158   H     0.01420   0.44640   0.60160   0.01267  Uiso   1.00
H159   H     0.92540   0.46680   0.61120   0.01267  Uiso   1.00
H160   H     0.02680   0.31780   0.73180   0.01267  Uiso   1.00
H161   H     0.86870   0.53220   0.69340   0.01267  Uiso   1.00
H162   H     0.99190   0.31340   0.84250   0.01267  Uiso   1.00
H163   H     0.84650   0.53490   0.79990   0.01267  Uiso   1.00
H164   H     0.85250   0.38870   0.93520   0.01267  Uiso   1.00
H165   H     0.93760   0.38080   0.92410   0.01267  Uiso   1.00
H166   H     0.75390   0.48770   0.98930   0.01267  Uiso   1.00
H167   H     0.93510   0.54750   0.85840   0.01267  Uiso   1.00
H168   H     0.83850   0.65080   0.91130   0.01267  Uiso   1.00
C85    C     0.00644   0.27244   0.46978   0.01267  Uiso   1.00
C86    C     0.02300   0.23930   0.38650   0.01267  Uiso   1.00
C87    C     0.08530   0.19610   0.40960   0.01267  Uiso   1.00
C88    C     0.89503   0.34573   0.42091   0.01267  Uiso   1.00
C89    C     0.89549   0.40139   0.34993   0.01267  Uiso   1.00
C90    C     0.92343   0.45933   0.32521   0.01267  Uiso   1.00
C91    C     0.86480   0.39500   0.31210   0.01267  Uiso   1.00
C92    C     0.92300   0.50970   0.26110   0.01267  Uiso   1.00
C93    C     0.86640   0.44570   0.24670   0.01267  Uiso   1.00
C94    C     0.89480   0.50410   0.22210   0.01267  Uiso   1.00
C95    C     0.89430   0.55820   0.15220   0.01267  Uiso   1.00
C96    C     0.75330   0.64520   0.17710   0.01267  Uiso   1.00
C97    C     0.79830   0.59270   0.09610   0.01267  Uiso   1.00
C98    C     0.69706   0.66806   0.14902   0.01267  Uiso   1.00
C99    C     0.30983   0.04073   0.58771   0.01267  Uiso   1.00
C100   C     0.24100   0.13180   0.63640   0.01267  Uiso   1.00
C101   C     0.30850   0.09230   0.65320   0.01267  Uiso   1.00
C102   C     0.42842   0.97232   0.62884   0.01267  Uiso   1.00
C103   C     0.42310   0.92620   0.70060   0.01267  Uiso   1.00
C104   C     0.36150   0.90620   0.74620   0.01267  Uiso   1.00
C105   C     0.48740   0.89380   0.72310   0.01267  Uiso   1.00
C106   C     0.35928   0.86198   0.81226   0.01267  Uiso   1.00
C107   C     0.48820   0.84470   0.78730   0.01267  Uiso   1.00
C108   C     0.42060   0.83240   0.83470   0.01267  Uiso   1.00
C109   C     0.41420   0.78680   0.90820   0.01267  Uiso   1.00
C110   C     0.51600   0.73350   0.96320   0.01267  Uiso   1.00
C111   C     0.54790   0.67380   0.89140   0.01267  Uiso   1.00
C112   C     0.60370   0.64200   0.92060   0.01267  Uiso   1.00
C113   C     0.27244   0.25134   0.46978   0.01267  Uiso   1.00
C114   C     0.23930   0.35120   0.38650   0.01267  Uiso   1.00
C115   C     0.19610   0.30900   0.40960   0.01267  Uiso   1.00
C116   C     0.34573   0.33833   0.42091   0.01267  Uiso   1.00
C117   C     0.40139   0.35319   0.34993   0.01267  Uiso   1.00
C118   C     0.45933   0.29203   0.32521   0.01267  Uiso   1.00
C119   C     0.39500   0.42810   0.31210   0.01267  Uiso   1.00
C120   C     0.50970   0.30620   0.26110   0.01267  Uiso   1.00
C121   C     0.44570   0.44120   0.24670   0.01267  Uiso   1.00
C122   C     0.50410   0.37900   0.22210   0.01267  Uiso   1.00
C123   C     0.55820   0.39530   0.15220   0.01267  Uiso   1.00
C124   C     0.64520   0.42440   0.17710   0.01267  Uiso   1.00
C125   C     0.59270   0.51290   0.09610   0.01267  Uiso   1.00
C126   C     0.66806   0.48586   0.14902   0.01267  Uiso   1.00
C127   C     0.04073   0.06173   0.58771   0.01267  Uiso   1.00
C128   C     0.13180   0.99080   0.63640   0.01267  Uiso   1.00
C129   C     0.09230   0.94600   0.65320   0.01267  Uiso   1.00
C130   C     0.97232   0.97042   0.62884   0.01267  Uiso   1.00
C131   C     0.92620   0.95010   0.70060   0.01267  Uiso   1.00
C132   C     0.90620   0.98610   0.74620   0.01267  Uiso   1.00
C133   C     0.89380   0.89570   0.72310   0.01267  Uiso   1.00
C134   C     0.86198   0.96648   0.81226   0.01267  Uiso   1.00
C135   C     0.84470   0.87980   0.78730   0.01267  Uiso   1.00
C136   C     0.83240   0.91230   0.83470   0.01267  Uiso   1.00
C137   C     0.78680   0.89080   0.90820   0.01267  Uiso   1.00
C138   C     0.73350   0.78730   0.96320   0.01267  Uiso   1.00
C139   C     0.67380   0.88690   0.89140   0.01267  Uiso   1.00
C140   C     0.64200   0.83370   0.92060   0.01267  Uiso   1.00
C141   C     0.25134   0.00644   0.46978   0.01267  Uiso   1.00
C142   C     0.35120   0.02300   0.38650   0.01267  Uiso   1.00
C143   C     0.30900   0.08530   0.40960   0.01267  Uiso   1.00
C144   C     0.33833   0.89503   0.42091   0.01267  Uiso   1.00
C145   C     0.35319   0.89549   0.34993   0.01267  Uiso   1.00
C146   C     0.29203   0.92343   0.32521   0.01267  Uiso   1.00
C147   C     0.42810   0.86480   0.31210   0.01267  Uiso   1.00
C148   C     0.30620   0.92300   0.26110   0.01267  Uiso   1.00
C149   C     0.44120   0.86640   0.24670   0.01267  Uiso   1.00
C150   C     0.37900   0.89480   0.22210   0.01267  Uiso   1.00
C151   C     0.39530   0.89430   0.15220   0.01267  Uiso   1.00
C152   C     0.42440   0.75330   0.17710   0.01267  Uiso   1.00
C153   C     0.51290   0.79830   0.09610   0.01267  Uiso   1.00
C154   C     0.48586   0.69706   0.14902   0.01267  Uiso   1.00
C155   C     0.06173   0.30983   0.58771   0.01267  Uiso   1.00
C156   C     0.99080   0.24100   0.63640   0.01267  Uiso   1.00
C157   C     0.94600   0.30850   0.65320   0.01267  Uiso   1.00
C158   C     0.97042   0.42842   0.62884   0.01267  Uiso   1.00
C159   C     0.95010   0.42310   0.70060   0.01267  Uiso   1.00
C160   C     0.98610   0.36150   0.74620   0.01267  Uiso   1.00
C161   C     0.89570   0.48740   0.72310   0.01267  Uiso   1.00
C162   C     0.96648   0.35928   0.81226   0.01267  Uiso   1.00
C163   C     0.87980   0.48820   0.78730   0.01267  Uiso   1.00
C164   C     0.91230   0.42060   0.83470   0.01267  Uiso   1.00
C165   C     0.89080   0.41420   0.90820   0.01267  Uiso   1.00
C166   C     0.78730   0.51600   0.96320   0.01267  Uiso   1.00
C167   C     0.88690   0.54790   0.89140   0.01267  Uiso   1.00
C168   C     0.83370   0.60370   0.92060   0.01267  Uiso   1.00
N25    N     0.07423   0.21603   0.46231   0.01267  Uiso   1.00
N26    N     0.97135   0.29005   0.42445   0.01267  Uiso   1.00
N27    N     0.81858   0.59678   0.14116   0.01267  Uiso   1.00
N28    N     0.72572   0.63362   0.09994   0.01267  Uiso   1.00
N29    N     0.24168   0.09938   0.59506   0.01267  Uiso   1.00
N30    N     0.35138   0.03388   0.62236   0.01267  Uiso   1.00
N31    N     0.49079   0.73179   0.91993   0.01267  Uiso   1.00
N32    N     0.58376   0.67996   0.96512   0.01267  Uiso   1.00
N33    N     0.21603   0.24743   0.46231   0.01267  Uiso   1.00
N34    N     0.29005   0.31415   0.42445   0.01267  Uiso   1.00
N35    N     0.59678   0.44348   0.14116   0.01267  Uiso   1.00
N36    N     0.63362   0.54072   0.09994   0.01267  Uiso   1.00
N37    N     0.09938   0.06388   0.59506   0.01267  Uiso   1.00
N38    N     0.03388   0.99238   0.62236   0.01267  Uiso   1.00
N39    N     0.73179   0.85749   0.91993   0.01267  Uiso   1.00
N40    N     0.67996   0.77116   0.96512   0.01267  Uiso   1.00
N41    N     0.24743   0.07423   0.46231   0.01267  Uiso   1.00
N42    N     0.31415   0.97135   0.42445   0.01267  Uiso   1.00
N43    N     0.44348   0.81858   0.14116   0.01267  Uiso   1.00
N44    N     0.54072   0.72572   0.09994   0.01267  Uiso   1.00
N45    N     0.06388   0.24168   0.59506   0.01267  Uiso   1.00
N46    N     0.99238   0.35138   0.62236   0.01267  Uiso   1.00
N47    N     0.85749   0.49079   0.91993   0.01267  Uiso   1.00
N48    N     0.77116   0.58376   0.96512   0.01267  Uiso   1.00
Cd5    Cd    0.84345   0.84345   0.46965   0.01267  Uiso   1.00
Cd6    Cd    0.34389   0.34389   0.96833   0.01267  Uiso   1.00
H169   H     0.01590   0.70180   0.49680   0.01267  Uiso   1.00
H170   H     0.98400   0.76430   0.64980   0.01267  Uiso   1.00
H171   H     0.86950   0.84300   0.60810   0.01267  Uiso   1.00
H172   H     0.12640   0.62400   0.54720   0.01267  Uiso   1.00
H173   H     0.13930   0.68190   0.56520   0.01267  Uiso   1.00
H174   H     0.05690   0.53560   0.64770   0.01267  Uiso   1.00
H175   H     0.15700   0.64330   0.66990   0.01267  Uiso   1.00
H176   H     0.05710   0.45090   0.75570   0.01267  Uiso   1.00
H177   H     0.15220   0.55970   0.78090   0.01267  Uiso   1.00
H178   H     0.08700   0.40190   0.85650   0.01267  Uiso   1.00
H179   H     0.06880   0.47140   0.88110   0.01267  Uiso   1.00
H180   H     0.25120   0.34070   0.78720   0.01267  Uiso   1.00
H181   H     0.16700   0.43660   0.93510   0.01267  Uiso   1.00
H182   H     0.35470   0.29690   0.83820   0.01267  Uiso   1.00
H183   H     0.67300   0.99230   0.43860   0.01267  Uiso   1.00
H184   H     0.80060   0.82460   0.34920   0.01267  Uiso   1.00
H185   H     0.67690   0.89750   0.31920   0.01267  Uiso   1.00
H186   H     0.55360   0.06220   0.39840   0.01267  Uiso   1.00
H187   H     0.53320   0.00340   0.38880   0.01267  Uiso   1.00
H188   H     0.68220   0.07640   0.26820   0.01267  Uiso   1.00
H189   H     0.46780   0.09430   0.30660   0.01267  Uiso   1.00
H190   H     0.68660   0.14780   0.15750   0.01267  Uiso   1.00
H191   H     0.46510   0.18130   0.20010   0.01267  Uiso   1.00
H192   H     0.61130   0.17640   0.06480   0.01267  Uiso   1.00
H193   H     0.61920   0.24250   0.07590   0.01267  Uiso   1.00
H194   H     0.51230   0.23090   0.01070   0.01267  Uiso   1.00
H195   H     0.45250   0.34100   0.14160   0.01267  Uiso   1.00
H196   H     0.34920   0.40060   0.08870   0.01267  Uiso   1.00
H197   H     0.70180   0.78550   0.49680   0.01267  Uiso   1.00
H198   H     0.76430   0.60190   0.64980   0.01267  Uiso   1.00
H199   H     0.84300   0.67940   0.60810   0.01267  Uiso   1.00
H200   H     0.62400   0.70240   0.54720   0.01267  Uiso   1.00
H201   H     0.68190   0.61360   0.56520   0.01267  Uiso   1.00
H202   H     0.53560   0.75980   0.64770   0.01267  Uiso   1.00
H203   H     0.64330   0.52980   0.66990   0.01267  Uiso   1.00
H204   H     0.45090   0.73630   0.75570   0.01267  Uiso   1.00
H205   H     0.55970   0.50720   0.78090   0.01267  Uiso   1.00
H206   H     0.40190   0.65460   0.85650   0.01267  Uiso   1.00
H207   H     0.47140   0.57870   0.88110   0.01267  Uiso   1.00
H208   H     0.34070   0.62090   0.78720   0.01267  Uiso   1.00
H209   H     0.43660   0.46130   0.93510   0.01267  Uiso   1.00
H210   H     0.29690   0.51020   0.83820   0.01267  Uiso   1.00
H211   H     0.99230   0.89610   0.43860   0.01267  Uiso   1.00
H212   H     0.82460   0.02560   0.34920   0.01267  Uiso   1.00
H213   H     0.89750   0.10640   0.31920   0.01267  Uiso   1.00
H214   H     0.06220   0.98580   0.39840   0.01267  Uiso   1.00
H215   H     0.00340   0.07460   0.38880   0.01267  Uiso   1.00
H216   H     0.07640   0.97320   0.26820   0.01267  Uiso   1.00
H217   H     0.09430   0.13130   0.30660   0.01267  Uiso   1.00
H218   H     0.14780   0.00810   0.15750   0.01267  Uiso   1.00
H219   H     0.18130   0.15350   0.20010   0.01267  Uiso   1.00
H220   H     0.17640   0.14750   0.06480   0.01267  Uiso   1.00
H221   H     0.24250   0.06240   0.07590   0.01267  Uiso   1.00
H222   H     0.23090   0.24610   0.01070   0.01267  Uiso   1.00
H223   H     0.34100   0.06490   0.14160   0.01267  Uiso   1.00
H224   H     0.40060   0.16150   0.08870   0.01267  Uiso   1.00
H225   H     0.78550   0.01590   0.49680   0.01267  Uiso   1.00
H226   H     0.60190   0.98400   0.64980   0.01267  Uiso   1.00
H227   H     0.67940   0.86950   0.60810   0.01267  Uiso   1.00
H228   H     0.70240   0.12640   0.54720   0.01267  Uiso   1.00
H229   H     0.61360   0.13930   0.56520   0.01267  Uiso   1.00
H230   H     0.75980   0.05690   0.64770   0.01267  Uiso   1.00
H231   H     0.52980   0.15700   0.66990   0.01267  Uiso   1.00
H232   H     0.73630   0.05710   0.75570   0.01267  Uiso   1.00
H233   H     0.50720   0.15220   0.78090   0.01267  Uiso   1.00
H234   H     0.65460   0.08700   0.85650   0.01267  Uiso   1.00
H235   H     0.57870   0.06880   0.88110   0.01267  Uiso   1.00
H236   H     0.62090   0.25120   0.78720   0.01267  Uiso   1.00
H237   H     0.46130   0.16700   0.93510   0.01267  Uiso   1.00
H238   H     0.51020   0.35470   0.83820   0.01267  Uiso   1.00
H239   H     0.89610   0.67300   0.43860   0.01267  Uiso   1.00
H240   H     0.02560   0.80060   0.34920   0.01267  Uiso   1.00
H241   H     0.10640   0.67690   0.31920   0.01267  Uiso   1.00
H242   H     0.98580   0.55360   0.39840   0.01267  Uiso   1.00
H243   H     0.07460   0.53320   0.38880   0.01267  Uiso   1.00
H244   H     0.97320   0.68220   0.26820   0.01267  Uiso   1.00
H245   H     0.13130   0.46780   0.30660   0.01267  Uiso   1.00
H246   H     0.00810   0.68660   0.15750   0.01267  Uiso   1.00
H247   H     0.15350   0.46510   0.20010   0.01267  Uiso   1.00
H248   H     0.14750   0.61130   0.06480   0.01267  Uiso   1.00
H249   H     0.06240   0.61920   0.07590   0.01267  Uiso   1.00
H250   H     0.24610   0.51230   0.01070   0.01267  Uiso   1.00
H251   H     0.06490   0.45250   0.14160   0.01267  Uiso   1.00
H252   H     0.16150   0.34920   0.08870   0.01267  Uiso   1.00
C169   C     0.99356   0.72756   0.53022   0.01267  Uiso   1.00
C170   C     0.97700   0.76070   0.61350   0.01267  Uiso   1.00
C171   C     0.91470   0.80390   0.59040   0.01267  Uiso   1.00
C172   C     0.10497   0.65427   0.57909   0.01267  Uiso   1.00
C173   C     0.10451   0.59861   0.65007   0.01267  Uiso   1.00
C174   C     0.07657   0.54067   0.67479   0.01267  Uiso   1.00
C175   C     0.13520   0.60500   0.68790   0.01267  Uiso   1.00
C176   C     0.07700   0.49030   0.73890   0.01267  Uiso   1.00
C177   C     0.13360   0.55430   0.75330   0.01267  Uiso   1.00
C178   C     0.10520   0.49590   0.77790   0.01267  Uiso   1.00
C179   C     0.10570   0.44180   0.84780   0.01267  Uiso   1.00
C180   C     0.24670   0.35480   0.82290   0.01267  Uiso   1.00
C181   C     0.20170   0.40730   0.90390   0.01267  Uiso   1.00
C182   C     0.30294   0.33194   0.85098   0.01267  Uiso   1.00
C183   C     0.69017   0.95927   0.41229   0.01267  Uiso   1.00
C184   C     0.75900   0.86820   0.36360   0.01267  Uiso   1.00
C185   C     0.69150   0.90770   0.34680   0.01267  Uiso   1.00
C186   C     0.57158   0.02768   0.37116   0.01267  Uiso   1.00
C187   C     0.57690   0.07380   0.29940   0.01267  Uiso   1.00
C188   C     0.63850   0.09380   0.25380   0.01267  Uiso   1.00
C189   C     0.51260   0.10620   0.27690   0.01267  Uiso   1.00
C190   C     0.64072   0.13802   0.18774   0.01267  Uiso   1.00
C191   C     0.51180   0.15530   0.21270   0.01267  Uiso   1.00
C192   C     0.57940   0.16760   0.16530   0.01267  Uiso   1.00
C193   C     0.58580   0.21320   0.09180   0.01267  Uiso   1.00
C194   C     0.48400   0.26650   0.03680   0.01267  Uiso   1.00
C195   C     0.45210   0.32620   0.10860   0.01267  Uiso   1.00
C196   C     0.39630   0.35800   0.07940   0.01267  Uiso   1.00
C197   C     0.72756   0.74866   0.53022   0.01267  Uiso   1.00
C198   C     0.76070   0.64880   0.61350   0.01267  Uiso   1.00
C199   C     0.80390   0.69100   0.59040   0.01267  Uiso   1.00
C200   C     0.65427   0.66167   0.57909   0.01267  Uiso   1.00
C201   C     0.59861   0.64681   0.65007   0.01267  Uiso   1.00
C202   C     0.54067   0.70797   0.67479   0.01267  Uiso   1.00
C203   C     0.60500   0.57190   0.68790   0.01267  Uiso   1.00
C204   C     0.49030   0.69380   0.73890   0.01267  Uiso   1.00
C205   C     0.55430   0.55880   0.75330   0.01267  Uiso   1.00
C206   C     0.49590   0.62100   0.77790   0.01267  Uiso   1.00
C207   C     0.44180   0.60470   0.84780   0.01267  Uiso   1.00
C208   C     0.35480   0.57560   0.82290   0.01267  Uiso   1.00
C209   C     0.40730   0.48710   0.90390   0.01267  Uiso   1.00
C210   C     0.33194   0.51414   0.85098   0.01267  Uiso   1.00
C211   C     0.95927   0.93827   0.41229   0.01267  Uiso   1.00
C212   C     0.86820   0.00920   0.36360   0.01267  Uiso   1.00
C213   C     0.90770   0.05400   0.34680   0.01267  Uiso   1.00
C214   C     0.02768   0.02958   0.37116   0.01267  Uiso   1.00
C215   C     0.07380   0.04990   0.29940   0.01267  Uiso   1.00
C216   C     0.09380   0.01390   0.25380   0.01267  Uiso   1.00
C217   C     0.10620   0.10430   0.27690   0.01267  Uiso   1.00
C218   C     0.13802   0.03352   0.18774   0.01267  Uiso   1.00
C219   C     0.15530   0.12020   0.21270   0.01267  Uiso   1.00
C220   C     0.16760   0.08770   0.16530   0.01267  Uiso   1.00
C221   C     0.21320   0.10920   0.09180   0.01267  Uiso   1.00
C222   C     0.26650   0.21270   0.03680   0.01267  Uiso   1.00
C223   C     0.32620   0.11310   0.10860   0.01267  Uiso   1.00
C224   C     0.35800   0.16630   0.07940   0.01267  Uiso   1.00
C225   C     0.74866   0.99356   0.53022   0.01267  Uiso   1.00
C226   C     0.64880   0.97700   0.61350   0.01267  Uiso   1.00
C227   C     0.69100   0.91470   0.59040   0.01267  Uiso   1.00
C228   C     0.66167   0.10497   0.57909   0.01267  Uiso   1.00
C229   C     0.64681   0.10451   0.65007   0.01267  Uiso   1.00
C230   C     0.70797   0.07657   0.67479   0.01267  Uiso   1.00
C231   C     0.57190   0.13520   0.68790   0.01267  Uiso   1.00
C232   C     0.69380   0.07700   0.73890   0.01267  Uiso   1.00
C233   C     0.55880   0.13360   0.75330   0.01267  Uiso   1.00
C234   C     0.62100   0.10520   0.77790   0.01267  Uiso   1.00
C235   C     0.60470   0.10570   0.84780   0.01267  Uiso   1.00
C236   C     0.57560   0.24670   0.82290   0.01267  Uiso   1.00
C237   C     0.48710   0.20170   0.90390   0.01267  Uiso   1.00
C238   C     0.51414   0.30294   0.85098   0.01267  Uiso   1.00
C239   C     0.93827   0.69017   0.41229   0.01267  Uiso   1.00
C240   C     0.00920   0.75900   0.36360   0.01267  Uiso   1.00
C241   C     0.05400   0.69150   0.34680   0.01267  Uiso   1.00
C242   C     0.02958   0.57158   0.37116   0.01267  Uiso   1.00
C243   C     0.04990   0.57690   0.29940   0.01267  Uiso   1.00
C244   C     0.01390   0.63850   0.25380   0.01267  Uiso   1.00
C245   C     0.10430   0.51260   0.27690   0.01267  Uiso   1.00
C246   C     0.03352   0.64072   0.18774   0.01267  Uiso   1.00
C247   C     0.12020   0.51180   0.21270   0.01267  Uiso   1.00
C248   C     0.08770   0.57940   0.16530   0.01267  Uiso   1.00
C249   C     0.10920   0.58580   0.09180   0.01267  Uiso   1.00
C250   C     0.21270   0.48400   0.03680   0.01267  Uiso   1.00
C251   C     0.11310   0.45210   0.10860   0.01267  Uiso   1.00
C252   C     0.16630   0.39630   0.07940   0.01267  Uiso   1.00
N49    N     0.92577   0.78397   0.53769   0.01267  Uiso   1.00
N50    N     0.02865   0.70995   0.57555   0.01267  Uiso   1.00
N51    N     0.18142   0.40322   0.85884   0.01267  Uiso   1.00
N52    N     0.27428   0.36638   0.90006   0.01267  Uiso   1.00
N53    N     0.75832   0.90062   0.40494   0.01267  Uiso   1.00
N54    N     0.64862   0.96612   0.37764   0.01267  Uiso   1.00
N55    N     0.50921   0.26821   0.08007   0.01267  Uiso   1.00
N56    N     0.41624   0.32004   0.03488   0.01267  Uiso   1.00
N57    N     0.78397   0.75257   0.53769   0.01267  Uiso   1.00
N58    N     0.70995   0.68585   0.57555   0.01267  Uiso   1.00
N59    N     0.40322   0.55652   0.85884   0.01267  Uiso   1.00
N60    N     0.36638   0.45928   0.90006   0.01267  Uiso   1.00
N61    N     0.90062   0.93612   0.40494   0.01267  Uiso   1.00
N62    N     0.96612   0.00762   0.37764   0.01267  Uiso   1.00
N63    N     0.26821   0.14251   0.08007   0.01267  Uiso   1.00
N64    N     0.32004   0.22884   0.03488   0.01267  Uiso   1.00
N65    N     0.75257   0.92577   0.53769   0.01267  Uiso   1.00
N66    N     0.68585   0.02865   0.57555   0.01267  Uiso   1.00
N67    N     0.55652   0.18142   0.85884   0.01267  Uiso   1.00
N68    N     0.45928   0.27428   0.90006   0.01267  Uiso   1.00
N69    N     0.93612   0.75832   0.40494   0.01267  Uiso   1.00
N70    N     0.00762   0.64862   0.37764   0.01267  Uiso   1.00
N71    N     0.14251   0.50921   0.08007   0.01267  Uiso   1.00
N72    N     0.22884   0.41624   0.03488   0.01267  Uiso   1.00
Cl1    Cl    0.84959   0.16360   0.48544   0.01267  Uiso   1.00
O1     O     0.88354   0.18944   0.41368   0.01267  Uiso   1.00
O2     O     0.89198   0.16338   0.52006   0.01267  Uiso   1.00
O3     O     0.85122   0.08702   0.50374   0.01267  Uiso   1.00
O4     O     0.77099   0.21619   0.50353   0.01267  Uiso   1.00
Cl2    Cl    0.67355   0.05915   0.99295   0.01267  Uiso   1.00
O5     O     0.65630   0.99730   0.00750   0.01267  Uiso   1.00
O6     O     0.61890   0.13380   0.97330   0.01267  Uiso   1.00
O7     O     0.69440   0.05740   0.04260   0.01267  Uiso   1.00
O8     O     0.74230   0.05670   0.93400   0.01267  Uiso   1.00
Cl3    Cl    0.16360   0.50137   0.48544   0.01267  Uiso   1.00
O9     O     0.18944   0.51334   0.41368   0.01267  Uiso   1.00
O10    O     0.16338   0.42458   0.52006   0.01267  Uiso   1.00
O11    O     0.08702   0.55802   0.50374   0.01267  Uiso   1.00
O12    O     0.21619   0.50929   0.50353   0.01267  Uiso   1.00
Cl4    Cl    0.05915   0.27435   0.99295   0.01267  Uiso   1.00
O13    O     0.99730   0.33890   0.00750   0.01267  Uiso   1.00
O14    O     0.13380   0.27400   0.97330   0.01267  Uiso   1.00
O15    O     0.05740   0.20560   0.04260   0.01267  Uiso   1.00
O16    O     0.05670   0.26700   0.93400   0.01267  Uiso   1.00
Cl5    Cl    0.50137   0.84959   0.48544   0.01267  Uiso   1.00
O17    O     0.51334   0.88354   0.41368   0.01267  Uiso   1.00
O18    O     0.42458   0.89198   0.52006   0.01267  Uiso   1.00
O19    O     0.55802   0.85122   0.50374   0.01267  Uiso   1.00
O20    O     0.50929   0.77099   0.50353   0.01267  Uiso   1.00
Cl6    Cl    0.27435   0.67355   0.99295   0.01267  Uiso   1.00
O21    O     0.33890   0.65630   0.00750   0.01267  Uiso   1.00
O22    O     0.27400   0.61890   0.97330   0.01267  Uiso   1.00
O23    O     0.20560   0.69440   0.04260   0.01267  Uiso   1.00
O24    O     0.26700   0.74230   0.93400   0.01267  Uiso   1.00
Cl7    Cl    0.15041   0.83640   0.51456   0.01267  Uiso   1.00
O25    O     0.11646   0.81056   0.58632   0.01267  Uiso   1.00
O26    O     0.10802   0.83662   0.47994   0.01267  Uiso   1.00
O27    O     0.14878   0.91298   0.49626   0.01267  Uiso   1.00
O28    O     0.22901   0.78381   0.49647   0.01267  Uiso   1.00
Cl8    Cl    0.32645   0.94085   0.00705   0.01267  Uiso   1.00
O29    O     0.34370   0.00270   0.99250   0.01267  Uiso   1.00
O30    O     0.38110   0.86620   0.02670   0.01267  Uiso   1.00
O31    O     0.30560   0.94260   0.95740   0.01267  Uiso   1.00
O32    O     0.25770   0.94330   0.06600   0.01267  Uiso   1.00
Cl9    Cl    0.83640   0.49863   0.51456   0.01267  Uiso   1.00
O33    O     0.81056   0.48666   0.58632   0.01267  Uiso   1.00
O34    O     0.83662   0.57542   0.47994   0.01267  Uiso   1.00
O35    O     0.91298   0.44198   0.49626   0.01267  Uiso   1.00
O36    O     0.78381   0.49071   0.49647   0.01267  Uiso   1.00
Cl10   Cl    0.94085   0.72565   0.00705   0.01267  Uiso   1.00
O37    O     0.00270   0.66110   0.99250   0.01267  Uiso   1.00
O38    O     0.86620   0.72600   0.02670   0.01267  Uiso   1.00
O39    O     0.94260   0.79440   0.95740   0.01267  Uiso   1.00
O40    O     0.94330   0.73300   0.06600   0.01267  Uiso   1.00
Cl11   Cl    0.49863   0.15041   0.51456   0.01267  Uiso   1.00
O41    O     0.48666   0.11646   0.58632   0.01267  Uiso   1.00
O42    O     0.57542   0.10802   0.47994   0.01267  Uiso   1.00
O43    O     0.44198   0.14878   0.49626   0.01267  Uiso   1.00
O44    O     0.49071   0.22901   0.49647   0.01267  Uiso   1.00
Cl12   Cl    0.72565   0.32645   0.00705   0.01267  Uiso   1.00
O45    O     0.66110   0.34370   0.99250   0.01267  Uiso   1.00
O46    O     0.72600   0.38110   0.02670   0.01267  Uiso   1.00
O47    O     0.79440   0.30560   0.95740   0.01267  Uiso   1.00
O48    O     0.73300   0.25770   0.06600   0.01267  Uiso   1.00
