data_image0
_cell_length_a       31.0865
_cell_length_b       31.0865
_cell_length_c       44.596
_cell_angle_alpha    90
_cell_angle_beta     90
_cell_angle_gamma    90

_symmetry_space_group_name_H-M    "P 1"
_symmetry_int_tables_number       1

loop_
  _symmetry_equiv_pos_as_xyz
  'x, y, z'

loop_
  _atom_site_label
  _atom_site_occupancy
  _atom_site_fract_x
  _atom_site_fract_y
  _atom_site_fract_z
  _atom_site_thermal_displace_type
  _atom_site_B_iso_or_equiv
  _atom_site_type_symbol
  C1       1.0000 0.30120  0.95600  0.14410  Biso   1.000  C
  C2       1.0000 0.32620  0.98260  0.12620  Biso   1.000  C
  H1       1.0000 0.33870  0.97190  0.10880  Biso   1.000  H
  C3       1.0000 0.33240  0.02540  0.13420  Biso   1.000  C
  C4       1.0000 0.31370  0.04150  0.16020  Biso   1.000  C
  H2       1.0000 0.31780  0.07010  0.16560  Biso   1.000  H
  C5       1.0000 0.28860  0.01480  0.17810  Biso   1.000  C
  C6       1.0000 0.28240  0.97200  0.17010  Biso   1.000  C
  H3       1.0000 0.26570  0.95420  0.18210  Biso   1.000  H
  O1       1.0000 0.30680  0.69000  0.14470  Biso   1.000  O
  N1       1.0000 0.30290  0.84480  0.12040  Biso   1.000  N
  H4       1.0000 0.27920  0.83910  0.12950  Biso   1.000  H
  C7       1.0000 0.17830  0.99350  0.31020  Biso   1.000  C
  C8       1.0000 0.36410  0.77930  0.06680  Biso   1.000  C
  C9       1.0000 0.31960  0.88910  0.12210  Biso   1.000  C
  O2       1.0000 0.34450  0.90000  0.10120  Biso   1.000  O
  N2       1.0000 0.29330  0.91340  0.13760  Biso   1.000  N
  H5       1.0000 0.26980  0.90210  0.14410  Biso   1.000  H
  Cu1      1.0000 0.36244  0.30144  0.16855  Biso   1.000  Cu
  Cu2      1.0000 0.39676  0.35074  0.12684  Biso   1.000  Cu
  O3       1.0000 0.38150  0.25400  0.14210  Biso   1.000  O
  O4       1.0000 0.15260  0.14380  0.31200  Biso   1.000  O
  O5       1.0000 0.51320  0.16080  0.03060  Biso   1.000  O
  O6       1.0000 0.12450  0.10130  0.34830  Biso   1.000  O
  O7       1.0000 0.41250  0.29640  0.10760  Biso   1.000  O
  C10      1.0000 0.40330  0.26220  0.12080  Biso   1.000  C
  O8       1.0000 0.15190  0.94830  0.34710  Biso   1.000  O
  O9       1.0000 0.34620  0.65980  0.10690  Biso   1.000  O
  O10      1.0000 0.41070  0.75120  0.03130  Biso   1.000  O
  O11      1.0000 0.50230  0.23240  0.03000  Biso   1.000  O
  C11      1.0000 0.14550  0.10950  0.32600  Biso   1.000  C
  O12      1.0000 0.19650  0.91990  0.31220  Biso   1.000  O
  O13      1.0000 0.39980  0.82040  0.03140  Biso   1.000  O
  C12      1.0000 0.32930  0.69030  0.12200  Biso   1.000  C
  C13      1.0000 0.17560  0.94940  0.32560  Biso   1.000  C
  C14      1.0000 0.49680  0.19360  0.03950  Biso   1.000  C
  O14      1.0000 0.35210  0.11570  0.13810  Biso   1.000  O
  C15      1.0000 0.41790  0.22160  0.10340  Biso   1.000  C
  C16      1.0000 0.39450  0.78450  0.04070  Biso   1.000  C
  C17      1.0000 0.16340  0.06940  0.30960  Biso   1.000  C
  C18      1.0000 0.33420  0.73350  0.10640  Biso   1.000  C
  C19      1.0000 0.46380  0.19050  0.06350  Biso   1.000  C
  C20      1.0000 0.34760  0.81520  0.07990  Biso   1.000  C
  H6       1.0000 0.35300  0.84230  0.07180  Biso   1.000  H
  O15      1.0000 0.33490  0.25900  0.20340  Biso   1.000  O
  H7       1.0000 0.34200  0.26770  0.22000  Biso   1.000  H
  N3       1.0000 0.26550  0.03520  0.20220  Biso   1.000  N
  H8       1.0000 0.26700  0.06280  0.20290  Biso   1.000  H
  C21      1.0000 0.44620  0.22610  0.07840  Biso   1.000  C
  H9       1.0000 0.45310  0.25360  0.07170  Biso   1.000  H
  C22      1.0000 0.18430  0.07440  0.28210  Biso   1.000  C
  H10      1.0000 0.18550  0.10130  0.27300  Biso   1.000  H
  O16      1.0000 0.23890  0.97790  0.22640  Biso   1.000  O
  C23      1.0000 0.44800  0.15050  0.07250  Biso   1.000  C
  H11      1.0000 0.45890  0.12590  0.06330  Biso   1.000  H
  C24      1.0000 0.35840  0.73840  0.08060  Biso   1.000  C
  H12      1.0000 0.37110  0.71430  0.07190  Biso   1.000  H
  N4       1.0000 0.40320  0.10400  0.09980  Biso   1.000  N
  H13      1.0000 0.41500  0.08360  0.08970  Biso   1.000  H
  C25      1.0000 0.31550  0.76980  0.11800  Biso   1.000  C
  H14      1.0000 0.29760  0.76780  0.13460  Biso   1.000  H
  C26      1.0000 0.15910  0.02980  0.32170  Biso   1.000  C
  H15      1.0000 0.14200  0.02680  0.33870  Biso   1.000  H
  N5       1.0000 0.22890  0.04610  0.24630  Biso   1.000  N
  H16      1.0000 0.23900  0.07180  0.24530  Biso   1.000  H
  C27      1.0000 0.20390  0.03820  0.26770  Biso   1.000  C
  O17      1.0000 0.42510  0.39060  0.09110  Biso   1.000  O
  H17      1.0000 0.44760  0.37960  0.08540  Biso   1.000  H
  C28      1.0000 0.32360  0.81110  0.10450  Biso   1.000  C
  C29      1.0000 0.40340  0.18180  0.10940  Biso   1.000  C
  H18      1.0000 0.38300  0.17800  0.12450  Biso   1.000  H
  C30      1.0000 0.19950  0.99770  0.28080  Biso   1.000  C
  H19      1.0000 0.21000  0.97340  0.27110  Biso   1.000  H
  C31      1.0000 0.24240  0.01660  0.22320  Biso   1.000  C
  C32      1.0000 0.37160  0.09150  0.12020  Biso   1.000  C
  C33      1.0000 0.41830  0.14590  0.09340  Biso   1.000  C
  N6       1.0000 0.36600  0.04780  0.11720  Biso   1.000  N
  H20      1.0000 0.38230  0.03360  0.10520  Biso   1.000  H
  C34      1.0000 0.80120  0.45600  0.64410  Biso   1.000  C
  C35      1.0000 0.82620  0.48260  0.62620  Biso   1.000  C
  H21      1.0000 0.83870  0.47190  0.60880  Biso   1.000  H
  C36      1.0000 0.83240  0.52540  0.63420  Biso   1.000  C
  C37      1.0000 0.81370  0.54150  0.66020  Biso   1.000  C
  H22      1.0000 0.81780  0.57010  0.66560  Biso   1.000  H
  C38      1.0000 0.78860  0.51480  0.67810  Biso   1.000  C
  C39      1.0000 0.78240  0.47200  0.67010  Biso   1.000  C
  H23      1.0000 0.76570  0.45420  0.68210  Biso   1.000  H
  O18      1.0000 0.80680  0.19000  0.64470  Biso   1.000  O
  N7       1.0000 0.80290  0.34480  0.62040  Biso   1.000  N
  H24      1.0000 0.77920  0.33910  0.62950  Biso   1.000  H
  C40      1.0000 0.67830  0.49350  0.81020  Biso   1.000  C
  C41      1.0000 0.86410  0.27930  0.56680  Biso   1.000  C
  C42      1.0000 0.81960  0.38910  0.62210  Biso   1.000  C
  O19      1.0000 0.84450  0.40000  0.60120  Biso   1.000  O
  N8       1.0000 0.79330  0.41340  0.63760  Biso   1.000  N
  H25      1.0000 0.76980  0.40210  0.64410  Biso   1.000  H
  Cu3      1.0000 0.86244  0.80144  0.66855  Biso   1.000  Cu
  Cu4      1.0000 0.89676  0.85074  0.62684  Biso   1.000  Cu
  O20      1.0000 0.88150  0.75400  0.64210  Biso   1.000  O
  O21      1.0000 0.65260  0.64380  0.81200  Biso   1.000  O
  O22      1.0000 0.01320  0.66080  0.53060  Biso   1.000  O
  O23      1.0000 0.62450  0.60130  0.84830  Biso   1.000  O
  O24      1.0000 0.91250  0.79640  0.60760  Biso   1.000  O
  C43      1.0000 0.90330  0.76220  0.62080  Biso   1.000  C
  O25      1.0000 0.65190  0.44830  0.84710  Biso   1.000  O
  O26      1.0000 0.84620  0.15980  0.60690  Biso   1.000  O
  O27      1.0000 0.91070  0.25120  0.53130  Biso   1.000  O
  O28      1.0000 0.00230  0.73240  0.53000  Biso   1.000  O
  C44      1.0000 0.64550  0.60950  0.82600  Biso   1.000  C
  O29      1.0000 0.69650  0.41990  0.81220  Biso   1.000  O
  O30      1.0000 0.89980  0.32040  0.53140  Biso   1.000  O
  C45      1.0000 0.82930  0.19030  0.62200  Biso   1.000  C
  C46      1.0000 0.67560  0.44940  0.82560  Biso   1.000  C
  C47      1.0000 0.99680  0.69360  0.53950  Biso   1.000  C
  O31      1.0000 0.85210  0.61570  0.63810  Biso   1.000  O
  C48      1.0000 0.91790  0.72160  0.60340  Biso   1.000  C
  C49      1.0000 0.89450  0.28450  0.54070  Biso   1.000  C
  C50      1.0000 0.66340  0.56940  0.80960  Biso   1.000  C
  C51      1.0000 0.83420  0.23350  0.60640  Biso   1.000  C
  C52      1.0000 0.96380  0.69050  0.56350  Biso   1.000  C
  C53      1.0000 0.84760  0.31520  0.57990  Biso   1.000  C
  H26      1.0000 0.85300  0.34230  0.57180  Biso   1.000  H
  O32      1.0000 0.83490  0.75900  0.70340  Biso   1.000  O
  H27      1.0000 0.84200  0.76770  0.72000  Biso   1.000  H
  N9       1.0000 0.76550  0.53520  0.70220  Biso   1.000  N
  H28      1.0000 0.76700  0.56280  0.70290  Biso   1.000  H
  C54      1.0000 0.94620  0.72610  0.57840  Biso   1.000  C
  H29      1.0000 0.95310  0.75360  0.57170  Biso   1.000  H
  C55      1.0000 0.68430  0.57440  0.78210  Biso   1.000  C
  H30      1.0000 0.68550  0.60130  0.77300  Biso   1.000  H
  O33      1.0000 0.73890  0.47790  0.72640  Biso   1.000  O
  C56      1.0000 0.94800  0.65050  0.57250  Biso   1.000  C
  H31      1.0000 0.95890  0.62590  0.56330  Biso   1.000  H
  C57      1.0000 0.85840  0.23840  0.58060  Biso   1.000  C
  H32      1.0000 0.87110  0.21430  0.57190  Biso   1.000  H
  N10      1.0000 0.90320  0.60400  0.59980  Biso   1.000  N
  H33      1.0000 0.91500  0.58360  0.58970  Biso   1.000  H
  C58      1.0000 0.81550  0.26980  0.61800  Biso   1.000  C
  H34      1.0000 0.79760  0.26780  0.63460  Biso   1.000  H
  C59      1.0000 0.65910  0.52980  0.82170  Biso   1.000  C
  H35      1.0000 0.64200  0.52680  0.83870  Biso   1.000  H
  N11      1.0000 0.72890  0.54610  0.74630  Biso   1.000  N
  H36      1.0000 0.73900  0.57180  0.74530  Biso   1.000  H
  C60      1.0000 0.70390  0.53820  0.76770  Biso   1.000  C
  O34      1.0000 0.92510  0.89060  0.59110  Biso   1.000  O
  H37      1.0000 0.94760  0.87960  0.58540  Biso   1.000  H
  C61      1.0000 0.82360  0.31110  0.60450  Biso   1.000  C
  C62      1.0000 0.90340  0.68180  0.60940  Biso   1.000  C
  H38      1.0000 0.88300  0.67800  0.62450  Biso   1.000  H
  C63      1.0000 0.69950  0.49770  0.78080  Biso   1.000  C
  H39      1.0000 0.71000  0.47340  0.77110  Biso   1.000  H
  C64      1.0000 0.74240  0.51660  0.72320  Biso   1.000  C
  C65      1.0000 0.87160  0.59150  0.62020  Biso   1.000  C
  C66      1.0000 0.91830  0.64590  0.59340  Biso   1.000  C
  N12      1.0000 0.86600  0.54780  0.61720  Biso   1.000  N
  H40      1.0000 0.88230  0.53360  0.60520  Biso   1.000  H
  C67      1.0000 0.69880  0.04400  0.14410  Biso   1.000  C
  C68      1.0000 0.67380  0.01740  0.12620  Biso   1.000  C
  H41      1.0000 0.66130  0.02810  0.10880  Biso   1.000  H
  C69      1.0000 0.66760  0.97460  0.13420  Biso   1.000  C
  C70      1.0000 0.68630  0.95850  0.16020  Biso   1.000  C
  H42      1.0000 0.68220  0.92990  0.16560  Biso   1.000  H
  C71      1.0000 0.71140  0.98520  0.17810  Biso   1.000  C
  C72      1.0000 0.71760  0.02800  0.17010  Biso   1.000  C
  H43      1.0000 0.73430  0.04580  0.18210  Biso   1.000  H
  O35      1.0000 0.69320  0.31000  0.14470  Biso   1.000  O
  N13      1.0000 0.69710  0.15520  0.12040  Biso   1.000  N
  H44      1.0000 0.72080  0.16090  0.12950  Biso   1.000  H
  C73      1.0000 0.82170  0.00650  0.31020  Biso   1.000  C
  C74      1.0000 0.63590  0.22070  0.06680  Biso   1.000  C
  C75      1.0000 0.68040  0.11090  0.12210  Biso   1.000  C
  O36      1.0000 0.65550  0.10000  0.10120  Biso   1.000  O
  N14      1.0000 0.70670  0.08660  0.13760  Biso   1.000  N
  H45      1.0000 0.73020  0.09790  0.14410  Biso   1.000  H
  Cu5      1.0000 0.63756  0.69856  0.16855  Biso   1.000  Cu
  Cu6      1.0000 0.60324  0.64926  0.12684  Biso   1.000  Cu
  O37      1.0000 0.61850  0.74600  0.14210  Biso   1.000  O
  O38      1.0000 0.84740  0.85620  0.31200  Biso   1.000  O
  O39      1.0000 0.48680  0.83920  0.03060  Biso   1.000  O
  O40      1.0000 0.87550  0.89870  0.34830  Biso   1.000  O
  O41      1.0000 0.58750  0.70360  0.10760  Biso   1.000  O
  C76      1.0000 0.59670  0.73780  0.12080  Biso   1.000  C
  O42      1.0000 0.84810  0.05170  0.34710  Biso   1.000  O
  O43      1.0000 0.65380  0.34020  0.10690  Biso   1.000  O
  O44      1.0000 0.58930  0.24880  0.03130  Biso   1.000  O
  O45      1.0000 0.49770  0.76760  0.03000  Biso   1.000  O
  C77      1.0000 0.85450  0.89050  0.32600  Biso   1.000  C
  O46      1.0000 0.80350  0.08010  0.31220  Biso   1.000  O
  O47      1.0000 0.60020  0.17960  0.03140  Biso   1.000  O
  C78      1.0000 0.67070  0.30970  0.12200  Biso   1.000  C
  C79      1.0000 0.82440  0.05060  0.32560  Biso   1.000  C
  C80      1.0000 0.50320  0.80640  0.03950  Biso   1.000  C
  O48      1.0000 0.64790  0.88430  0.13810  Biso   1.000  O
  C81      1.0000 0.58210  0.77840  0.10340  Biso   1.000  C
  C82      1.0000 0.60550  0.21550  0.04070  Biso   1.000  C
  C83      1.0000 0.83660  0.93060  0.30960  Biso   1.000  C
  C84      1.0000 0.66580  0.26650  0.10640  Biso   1.000  C
  C85      1.0000 0.53620  0.80950  0.06350  Biso   1.000  C
  C86      1.0000 0.65240  0.18480  0.07990  Biso   1.000  C
  H46      1.0000 0.64700  0.15770  0.07180  Biso   1.000  H
  O49      1.0000 0.66510  0.74100  0.20340  Biso   1.000  O
  H47      1.0000 0.65800  0.73230  0.22000  Biso   1.000  H
  N15      1.0000 0.73450  0.96480  0.20220  Biso   1.000  N
  H48      1.0000 0.73300  0.93720  0.20290  Biso   1.000  H
  C87      1.0000 0.55380  0.77390  0.07840  Biso   1.000  C
  H49      1.0000 0.54690  0.74640  0.07170  Biso   1.000  H
  C88      1.0000 0.81570  0.92560  0.28210  Biso   1.000  C
  H50      1.0000 0.81450  0.89870  0.27300  Biso   1.000  H
  O50      1.0000 0.76110  0.02210  0.22640  Biso   1.000  O
  C89      1.0000 0.55200  0.84950  0.07250  Biso   1.000  C
  H51      1.0000 0.54110  0.87410  0.06330  Biso   1.000  H
  C90      1.0000 0.64160  0.26160  0.08060  Biso   1.000  C
  H52      1.0000 0.62890  0.28570  0.07190  Biso   1.000  H
  N16      1.0000 0.59680  0.89600  0.09980  Biso   1.000  N
  H53      1.0000 0.58500  0.91640  0.08970  Biso   1.000  H
  C91      1.0000 0.68450  0.23020  0.11800  Biso   1.000  C
  H54      1.0000 0.70240  0.23220  0.13460  Biso   1.000  H
  C92      1.0000 0.84090  0.97020  0.32170  Biso   1.000  C
  H55      1.0000 0.85800  0.97320  0.33870  Biso   1.000  H
  N17      1.0000 0.77110  0.95390  0.24630  Biso   1.000  N
  H56      1.0000 0.76100  0.92820  0.24530  Biso   1.000  H
  C93      1.0000 0.79610  0.96180  0.26770  Biso   1.000  C
  O51      1.0000 0.57490  0.60940  0.09110  Biso   1.000  O
  H57      1.0000 0.55240  0.62040  0.08540  Biso   1.000  H
  C94      1.0000 0.67640  0.18890  0.10450  Biso   1.000  C
  C95      1.0000 0.59660  0.81820  0.10940  Biso   1.000  C
  H58      1.0000 0.61700  0.82200  0.12450  Biso   1.000  H
  C96      1.0000 0.80050  0.00230  0.28080  Biso   1.000  C
  H59      1.0000 0.79000  0.02660  0.27110  Biso   1.000  H
  C97      1.0000 0.75760  0.98340  0.22320  Biso   1.000  C
  C98      1.0000 0.62840  0.90850  0.12020  Biso   1.000  C
  C99      1.0000 0.58170  0.85410  0.09340  Biso   1.000  C
  N18      1.0000 0.63400  0.95220  0.11720  Biso   1.000  N
  H60      1.0000 0.61770  0.96640  0.10520  Biso   1.000  H
  C100     1.0000 0.19880  0.54400  0.64410  Biso   1.000  C
  C101     1.0000 0.17380  0.51740  0.62620  Biso   1.000  C
  H61      1.0000 0.16130  0.52810  0.60880  Biso   1.000  H
  C102     1.0000 0.16760  0.47460  0.63420  Biso   1.000  C
  C103     1.0000 0.18630  0.45850  0.66020  Biso   1.000  C
  H62      1.0000 0.18220  0.42990  0.66560  Biso   1.000  H
  C104     1.0000 0.21140  0.48520  0.67810  Biso   1.000  C
  C105     1.0000 0.21760  0.52800  0.67010  Biso   1.000  C
  H63      1.0000 0.23430  0.54580  0.68210  Biso   1.000  H
  O52      1.0000 0.19320  0.81000  0.64470  Biso   1.000  O
  N19      1.0000 0.19710  0.65520  0.62040  Biso   1.000  N
  H64      1.0000 0.22080  0.66090  0.62950  Biso   1.000  H
  C106     1.0000 0.32170  0.50650  0.81020  Biso   1.000  C
  C107     1.0000 0.13590  0.72070  0.56680  Biso   1.000  C
  C108     1.0000 0.18040  0.61090  0.62210  Biso   1.000  C
  O53      1.0000 0.15550  0.60000  0.60120  Biso   1.000  O
  N20      1.0000 0.20670  0.58660  0.63760  Biso   1.000  N
  H65      1.0000 0.23020  0.59790  0.64410  Biso   1.000  H
  Cu7      1.0000 0.13756  0.19856  0.66855  Biso   1.000  Cu
  Cu8      1.0000 0.10324  0.14926  0.62684  Biso   1.000  Cu
  O54      1.0000 0.11850  0.24600  0.64210  Biso   1.000  O
  O55      1.0000 0.34740  0.35620  0.81200  Biso   1.000  O
  O56      1.0000 0.98680  0.33920  0.53060  Biso   1.000  O
  O57      1.0000 0.37550  0.39870  0.84830  Biso   1.000  O
  O58      1.0000 0.08750  0.20360  0.60760  Biso   1.000  O
  C109     1.0000 0.09670  0.23780  0.62080  Biso   1.000  C
  O59      1.0000 0.34810  0.55170  0.84710  Biso   1.000  O
  O60      1.0000 0.15380  0.84020  0.60690  Biso   1.000  O
  O61      1.0000 0.08930  0.74880  0.53130  Biso   1.000  O
  O62      1.0000 0.99770  0.26760  0.53000  Biso   1.000  O
  C110     1.0000 0.35450  0.39050  0.82600  Biso   1.000  C
  O63      1.0000 0.30350  0.58010  0.81220  Biso   1.000  O
  O64      1.0000 0.10020  0.67960  0.53140  Biso   1.000  O
  C111     1.0000 0.17070  0.80970  0.62200  Biso   1.000  C
  C112     1.0000 0.32440  0.55060  0.82560  Biso   1.000  C
  C113     1.0000 0.00320  0.30640  0.53950  Biso   1.000  C
  O65      1.0000 0.14790  0.38430  0.63810  Biso   1.000  O
  C114     1.0000 0.08210  0.27840  0.60340  Biso   1.000  C
  C115     1.0000 0.10550  0.71550  0.54070  Biso   1.000  C
  C116     1.0000 0.33660  0.43060  0.80960  Biso   1.000  C
  C117     1.0000 0.16580  0.76650  0.60640  Biso   1.000  C
  C118     1.0000 0.03620  0.30950  0.56350  Biso   1.000  C
  C119     1.0000 0.15240  0.68480  0.57990  Biso   1.000  C
  H66      1.0000 0.14700  0.65770  0.57180  Biso   1.000  H
  O66      1.0000 0.16510  0.24100  0.70340  Biso   1.000  O
  H67      1.0000 0.15800  0.23230  0.72000  Biso   1.000  H
  N21      1.0000 0.23450  0.46480  0.70220  Biso   1.000  N
  H68      1.0000 0.23300  0.43720  0.70290  Biso   1.000  H
  C120     1.0000 0.05380  0.27390  0.57840  Biso   1.000  C
  H69      1.0000 0.04690  0.24640  0.57170  Biso   1.000  H
  C121     1.0000 0.31570  0.42560  0.78210  Biso   1.000  C
  H70      1.0000 0.31450  0.39870  0.77300  Biso   1.000  H
  O67      1.0000 0.26110  0.52210  0.72640  Biso   1.000  O
  C122     1.0000 0.05200  0.34950  0.57250  Biso   1.000  C
  H71      1.0000 0.04110  0.37410  0.56330  Biso   1.000  H
  C123     1.0000 0.14160  0.76160  0.58060  Biso   1.000  C
  H72      1.0000 0.12890  0.78570  0.57190  Biso   1.000  H
  N22      1.0000 0.09680  0.39600  0.59980  Biso   1.000  N
  H73      1.0000 0.08500  0.41640  0.58970  Biso   1.000  H
  C124     1.0000 0.18450  0.73020  0.61800  Biso   1.000  C
  H74      1.0000 0.20240  0.73220  0.63460  Biso   1.000  H
  C125     1.0000 0.34090  0.47020  0.82170  Biso   1.000  C
  H75      1.0000 0.35800  0.47320  0.83870  Biso   1.000  H
  N23      1.0000 0.27110  0.45390  0.74630  Biso   1.000  N
  H76      1.0000 0.26100  0.42820  0.74530  Biso   1.000  H
  C126     1.0000 0.29610  0.46180  0.76770  Biso   1.000  C
  O68      1.0000 0.07490  0.10940  0.59110  Biso   1.000  O
  H77      1.0000 0.05240  0.12040  0.58540  Biso   1.000  H
  C127     1.0000 0.17640  0.68890  0.60450  Biso   1.000  C
  C128     1.0000 0.09660  0.31820  0.60940  Biso   1.000  C
  H78      1.0000 0.11700  0.32200  0.62450  Biso   1.000  H
  C129     1.0000 0.30050  0.50230  0.78080  Biso   1.000  C
  H79      1.0000 0.29000  0.52660  0.77110  Biso   1.000  H
  C130     1.0000 0.25760  0.48340  0.72320  Biso   1.000  C
  C131     1.0000 0.12840  0.40850  0.62020  Biso   1.000  C
  C132     1.0000 0.08170  0.35410  0.59340  Biso   1.000  C
  N24      1.0000 0.13400  0.45220  0.61720  Biso   1.000  N
  H80      1.0000 0.11770  0.46640  0.60520  Biso   1.000  H
  C133     1.0000 0.04400  0.30120  0.14410  Biso   1.000  C
  C134     1.0000 0.01740  0.32620  0.12620  Biso   1.000  C
  H81      1.0000 0.02810  0.33870  0.10880  Biso   1.000  H
  C135     1.0000 0.97460  0.33240  0.13420  Biso   1.000  C
  C136     1.0000 0.95850  0.31370  0.16020  Biso   1.000  C
  H82      1.0000 0.92990  0.31780  0.16560  Biso   1.000  H
  C137     1.0000 0.98520  0.28860  0.17810  Biso   1.000  C
  C138     1.0000 0.02800  0.28240  0.17010  Biso   1.000  C
  H83      1.0000 0.04580  0.26570  0.18210  Biso   1.000  H
  O69      1.0000 0.31000  0.30680  0.14470  Biso   1.000  O
  N25      1.0000 0.15520  0.30290  0.12040  Biso   1.000  N
  H84      1.0000 0.16090  0.27920  0.12950  Biso   1.000  H
  C139     1.0000 0.00650  0.17830  0.31020  Biso   1.000  C
  C140     1.0000 0.22070  0.36410  0.06680  Biso   1.000  C
  C141     1.0000 0.11090  0.31960  0.12210  Biso   1.000  C
  O70      1.0000 0.10000  0.34450  0.10120  Biso   1.000  O
  N26      1.0000 0.08660  0.29330  0.13760  Biso   1.000  N
  H85      1.0000 0.09790  0.26980  0.14410  Biso   1.000  H
  Cu9      1.0000 0.69856  0.36244  0.16855  Biso   1.000  Cu
  Cu10     1.0000 0.64926  0.39676  0.12684  Biso   1.000  Cu
  O71      1.0000 0.74600  0.38150  0.14210  Biso   1.000  O
  O72      1.0000 0.85620  0.15260  0.31200  Biso   1.000  O
  O73      1.0000 0.83920  0.51320  0.03060  Biso   1.000  O
  O74      1.0000 0.89870  0.12450  0.34830  Biso   1.000  O
  O75      1.0000 0.70360  0.41250  0.10760  Biso   1.000  O
  C142     1.0000 0.73780  0.40330  0.12080  Biso   1.000  C
  O76      1.0000 0.05170  0.15190  0.34710  Biso   1.000  O
  O77      1.0000 0.34020  0.34620  0.10690  Biso   1.000  O
  O78      1.0000 0.24880  0.41070  0.03130  Biso   1.000  O
  O79      1.0000 0.76760  0.50230  0.03000  Biso   1.000  O
  C143     1.0000 0.89050  0.14550  0.32600  Biso   1.000  C
  O80      1.0000 0.08010  0.19650  0.31220  Biso   1.000  O
  O81      1.0000 0.17960  0.39980  0.03140  Biso   1.000  O
  C144     1.0000 0.30970  0.32930  0.12200  Biso   1.000  C
  C145     1.0000 0.05060  0.17560  0.32560  Biso   1.000  C
  C146     1.0000 0.80640  0.49680  0.03950  Biso   1.000  C
  O82      1.0000 0.88430  0.35210  0.13810  Biso   1.000  O
  C147     1.0000 0.77840  0.41790  0.10340  Biso   1.000  C
  C148     1.0000 0.21550  0.39450  0.04070  Biso   1.000  C
  C149     1.0000 0.93060  0.16340  0.30960  Biso   1.000  C
  C150     1.0000 0.26650  0.33420  0.10640  Biso   1.000  C
  C151     1.0000 0.80950  0.46380  0.06350  Biso   1.000  C
  C152     1.0000 0.18480  0.34760  0.07990  Biso   1.000  C
  H86      1.0000 0.15770  0.35300  0.07180  Biso   1.000  H
  O83      1.0000 0.74100  0.33490  0.20340  Biso   1.000  O
  H87      1.0000 0.73230  0.34200  0.22000  Biso   1.000  H
  N27      1.0000 0.96480  0.26550  0.20220  Biso   1.000  N
  H88      1.0000 0.93720  0.26700  0.20290  Biso   1.000  H
  C153     1.0000 0.77390  0.44620  0.07840  Biso   1.000  C
  H89      1.0000 0.74640  0.45310  0.07170  Biso   1.000  H
  C154     1.0000 0.92560  0.18430  0.28210  Biso   1.000  C
  H90      1.0000 0.89870  0.18550  0.27300  Biso   1.000  H
  O84      1.0000 0.02210  0.23890  0.22640  Biso   1.000  O
  C155     1.0000 0.84950  0.44800  0.07250  Biso   1.000  C
  H91      1.0000 0.87410  0.45890  0.06330  Biso   1.000  H
  C156     1.0000 0.26160  0.35840  0.08060  Biso   1.000  C
  H92      1.0000 0.28570  0.37110  0.07190  Biso   1.000  H
  N28      1.0000 0.89600  0.40320  0.09980  Biso   1.000  N
  H93      1.0000 0.91640  0.41500  0.08970  Biso   1.000  H
  C157     1.0000 0.23020  0.31550  0.11800  Biso   1.000  C
  H94      1.0000 0.23220  0.29760  0.13460  Biso   1.000  H
  C158     1.0000 0.97020  0.15910  0.32170  Biso   1.000  C
  H95      1.0000 0.97320  0.14200  0.33870  Biso   1.000  H
  N29      1.0000 0.95390  0.22890  0.24630  Biso   1.000  N
  H96      1.0000 0.92820  0.23900  0.24530  Biso   1.000  H
  C159     1.0000 0.96180  0.20390  0.26770  Biso   1.000  C
  O85      1.0000 0.60940  0.42510  0.09110  Biso   1.000  O
  H97      1.0000 0.62040  0.44760  0.08540  Biso   1.000  H
  C160     1.0000 0.18890  0.32360  0.10450  Biso   1.000  C
  C161     1.0000 0.81820  0.40340  0.10940  Biso   1.000  C
  H98      1.0000 0.82200  0.38300  0.12450  Biso   1.000  H
  C162     1.0000 0.00230  0.19950  0.28080  Biso   1.000  C
  H99      1.0000 0.02660  0.21000  0.27110  Biso   1.000  H
  C163     1.0000 0.98340  0.24240  0.22320  Biso   1.000  C
  C164     1.0000 0.90850  0.37160  0.12020  Biso   1.000  C
  C165     1.0000 0.85410  0.41830  0.09340  Biso   1.000  C
  N30      1.0000 0.95220  0.36600  0.11720  Biso   1.000  N
  H100     1.0000 0.96640  0.38230  0.10520  Biso   1.000  H
  C166     1.0000 0.54400  0.80120  0.64410  Biso   1.000  C
  C167     1.0000 0.51740  0.82620  0.62620  Biso   1.000  C
  H101     1.0000 0.52810  0.83870  0.60880  Biso   1.000  H
  C168     1.0000 0.47460  0.83240  0.63420  Biso   1.000  C
  C169     1.0000 0.45850  0.81370  0.66020  Biso   1.000  C
  H102     1.0000 0.42990  0.81780  0.66560  Biso   1.000  H
  C170     1.0000 0.48520  0.78860  0.67810  Biso   1.000  C
  C171     1.0000 0.52800  0.78240  0.67010  Biso   1.000  C
  H103     1.0000 0.54580  0.76570  0.68210  Biso   1.000  H
  O86      1.0000 0.81000  0.80680  0.64470  Biso   1.000  O
  N31      1.0000 0.65520  0.80290  0.62040  Biso   1.000  N
  H104     1.0000 0.66090  0.77920  0.62950  Biso   1.000  H
  C172     1.0000 0.50650  0.67830  0.81020  Biso   1.000  C
  C173     1.0000 0.72070  0.86410  0.56680  Biso   1.000  C
  C174     1.0000 0.61090  0.81960  0.62210  Biso   1.000  C
  O87      1.0000 0.60000  0.84450  0.60120  Biso   1.000  O
  N32      1.0000 0.58660  0.79330  0.63760  Biso   1.000  N
  H105     1.0000 0.59790  0.76980  0.64410  Biso   1.000  H
  Cu11     1.0000 0.19856  0.86244  0.66855  Biso   1.000  Cu
  Cu12     1.0000 0.14926  0.89676  0.62684  Biso   1.000  Cu
  O88      1.0000 0.24600  0.88150  0.64210  Biso   1.000  O
  O89      1.0000 0.35620  0.65260  0.81200  Biso   1.000  O
  O90      1.0000 0.33920  0.01320  0.53060  Biso   1.000  O
  O91      1.0000 0.39870  0.62450  0.84830  Biso   1.000  O
  O92      1.0000 0.20360  0.91250  0.60760  Biso   1.000  O
  C175     1.0000 0.23780  0.90330  0.62080  Biso   1.000  C
  O93      1.0000 0.55170  0.65190  0.84710  Biso   1.000  O
  O94      1.0000 0.84020  0.84620  0.60690  Biso   1.000  O
  O95      1.0000 0.74880  0.91070  0.53130  Biso   1.000  O
  O96      1.0000 0.26760  0.00230  0.53000  Biso   1.000  O
  C176     1.0000 0.39050  0.64550  0.82600  Biso   1.000  C
  O97      1.0000 0.58010  0.69650  0.81220  Biso   1.000  O
  O98      1.0000 0.67960  0.89980  0.53140  Biso   1.000  O
  C177     1.0000 0.80970  0.82930  0.62200  Biso   1.000  C
  C178     1.0000 0.55060  0.67560  0.82560  Biso   1.000  C
  C179     1.0000 0.30640  0.99680  0.53950  Biso   1.000  C
  O99      1.0000 0.38430  0.85210  0.63810  Biso   1.000  O
  C180     1.0000 0.27840  0.91790  0.60340  Biso   1.000  C
  C181     1.0000 0.71550  0.89450  0.54070  Biso   1.000  C
  C182     1.0000 0.43060  0.66340  0.80960  Biso   1.000  C
  C183     1.0000 0.76650  0.83420  0.60640  Biso   1.000  C
  C184     1.0000 0.30950  0.96380  0.56350  Biso   1.000  C
  C185     1.0000 0.68480  0.84760  0.57990  Biso   1.000  C
  H106     1.0000 0.65770  0.85300  0.57180  Biso   1.000  H
  O100     1.0000 0.24100  0.83490  0.70340  Biso   1.000  O
  H107     1.0000 0.23230  0.84200  0.72000  Biso   1.000  H
  N33      1.0000 0.46480  0.76550  0.70220  Biso   1.000  N
  H108     1.0000 0.43720  0.76700  0.70290  Biso   1.000  H
  C186     1.0000 0.27390  0.94620  0.57840  Biso   1.000  C
  H109     1.0000 0.24640  0.95310  0.57170  Biso   1.000  H
  C187     1.0000 0.42560  0.68430  0.78210  Biso   1.000  C
  H110     1.0000 0.39870  0.68550  0.77300  Biso   1.000  H
  O101     1.0000 0.52210  0.73890  0.72640  Biso   1.000  O
  C188     1.0000 0.34950  0.94800  0.57250  Biso   1.000  C
  H111     1.0000 0.37410  0.95890  0.56330  Biso   1.000  H
  C189     1.0000 0.76160  0.85840  0.58060  Biso   1.000  C
  H112     1.0000 0.78570  0.87110  0.57190  Biso   1.000  H
  N34      1.0000 0.39600  0.90320  0.59980  Biso   1.000  N
  H113     1.0000 0.41640  0.91500  0.58970  Biso   1.000  H
  C190     1.0000 0.73020  0.81550  0.61800  Biso   1.000  C
  H114     1.0000 0.73220  0.79760  0.63460  Biso   1.000  H
  C191     1.0000 0.47020  0.65910  0.82170  Biso   1.000  C
  H115     1.0000 0.47320  0.64200  0.83870  Biso   1.000  H
  N35      1.0000 0.45390  0.72890  0.74630  Biso   1.000  N
  H116     1.0000 0.42820  0.73900  0.74530  Biso   1.000  H
  C192     1.0000 0.46180  0.70390  0.76770  Biso   1.000  C
  O102     1.0000 0.10940  0.92510  0.59110  Biso   1.000  O
  H117     1.0000 0.12040  0.94760  0.58540  Biso   1.000  H
  C193     1.0000 0.68890  0.82360  0.60450  Biso   1.000  C
  C194     1.0000 0.31820  0.90340  0.60940  Biso   1.000  C
  H118     1.0000 0.32200  0.88300  0.62450  Biso   1.000  H
  C195     1.0000 0.50230  0.69950  0.78080  Biso   1.000  C
  H119     1.0000 0.52660  0.71000  0.77110  Biso   1.000  H
  C196     1.0000 0.48340  0.74240  0.72320  Biso   1.000  C
  C197     1.0000 0.40850  0.87160  0.62020  Biso   1.000  C
  C198     1.0000 0.35410  0.91830  0.59340  Biso   1.000  C
  N36      1.0000 0.45220  0.86600  0.61720  Biso   1.000  N
  H120     1.0000 0.46640  0.88230  0.60520  Biso   1.000  H
  C199     1.0000 0.95600  0.69880  0.14410  Biso   1.000  C
  C200     1.0000 0.98260  0.67380  0.12620  Biso   1.000  C
  H121     1.0000 0.97190  0.66130  0.10880  Biso   1.000  H
  C201     1.0000 0.02540  0.66760  0.13420  Biso   1.000  C
  C202     1.0000 0.04150  0.68630  0.16020  Biso   1.000  C
  H122     1.0000 0.07010  0.68220  0.16560  Biso   1.000  H
  C203     1.0000 0.01480  0.71140  0.17810  Biso   1.000  C
  C204     1.0000 0.97200  0.71760  0.17010  Biso   1.000  C
  H123     1.0000 0.95420  0.73430  0.18210  Biso   1.000  H
  O103     1.0000 0.69000  0.69320  0.14470  Biso   1.000  O
  N37      1.0000 0.84480  0.69710  0.12040  Biso   1.000  N
  H124     1.0000 0.83910  0.72080  0.12950  Biso   1.000  H
  C205     1.0000 0.99350  0.82170  0.31020  Biso   1.000  C
  C206     1.0000 0.77930  0.63590  0.06680  Biso   1.000  C
  C207     1.0000 0.88910  0.68040  0.12210  Biso   1.000  C
  O104     1.0000 0.90000  0.65550  0.10120  Biso   1.000  O
  N38      1.0000 0.91340  0.70670  0.13760  Biso   1.000  N
  H125     1.0000 0.90210  0.73020  0.14410  Biso   1.000  H
  Cu13     1.0000 0.30144  0.63756  0.16855  Biso   1.000  Cu
  Cu14     1.0000 0.35074  0.60324  0.12684  Biso   1.000  Cu
  O105     1.0000 0.25400  0.61850  0.14210  Biso   1.000  O
  O106     1.0000 0.14380  0.84740  0.31200  Biso   1.000  O
  O107     1.0000 0.16080  0.48680  0.03060  Biso   1.000  O
  O108     1.0000 0.10130  0.87550  0.34830  Biso   1.000  O
  O109     1.0000 0.29640  0.58750  0.10760  Biso   1.000  O
  C208     1.0000 0.26220  0.59670  0.12080  Biso   1.000  C
  O110     1.0000 0.94830  0.84810  0.34710  Biso   1.000  O
  O111     1.0000 0.65980  0.65380  0.10690  Biso   1.000  O
  O112     1.0000 0.75120  0.58930  0.03130  Biso   1.000  O
  O113     1.0000 0.23240  0.49770  0.03000  Biso   1.000  O
  C209     1.0000 0.10950  0.85450  0.32600  Biso   1.000  C
  O114     1.0000 0.91990  0.80350  0.31220  Biso   1.000  O
  O115     1.0000 0.82040  0.60020  0.03140  Biso   1.000  O
  C210     1.0000 0.69030  0.67070  0.12200  Biso   1.000  C
  C211     1.0000 0.94940  0.82440  0.32560  Biso   1.000  C
  C212     1.0000 0.19360  0.50320  0.03950  Biso   1.000  C
  O116     1.0000 0.11570  0.64790  0.13810  Biso   1.000  O
  C213     1.0000 0.22160  0.58210  0.10340  Biso   1.000  C
  C214     1.0000 0.78450  0.60550  0.04070  Biso   1.000  C
  C215     1.0000 0.06940  0.83660  0.30960  Biso   1.000  C
  C216     1.0000 0.73350  0.66580  0.10640  Biso   1.000  C
  C217     1.0000 0.19050  0.53620  0.06350  Biso   1.000  C
  C218     1.0000 0.81520  0.65240  0.07990  Biso   1.000  C
  H126     1.0000 0.84230  0.64700  0.07180  Biso   1.000  H
  O117     1.0000 0.25900  0.66510  0.20340  Biso   1.000  O
  H127     1.0000 0.26770  0.65800  0.22000  Biso   1.000  H
  N39      1.0000 0.03520  0.73450  0.20220  Biso   1.000  N
  H128     1.0000 0.06280  0.73300  0.20290  Biso   1.000  H
  C219     1.0000 0.22610  0.55380  0.07840  Biso   1.000  C
  H129     1.0000 0.25360  0.54690  0.07170  Biso   1.000  H
  C220     1.0000 0.07440  0.81570  0.28210  Biso   1.000  C
  H130     1.0000 0.10130  0.81450  0.27300  Biso   1.000  H
  O118     1.0000 0.97790  0.76110  0.22640  Biso   1.000  O
  C221     1.0000 0.15050  0.55200  0.07250  Biso   1.000  C
  H131     1.0000 0.12590  0.54110  0.06330  Biso   1.000  H
  C222     1.0000 0.73840  0.64160  0.08060  Biso   1.000  C
  H132     1.0000 0.71430  0.62890  0.07190  Biso   1.000  H
  N40      1.0000 0.10400  0.59680  0.09980  Biso   1.000  N
  H133     1.0000 0.08360  0.58500  0.08970  Biso   1.000  H
  C223     1.0000 0.76980  0.68450  0.11800  Biso   1.000  C
  H134     1.0000 0.76780  0.70240  0.13460  Biso   1.000  H
  C224     1.0000 0.02980  0.84090  0.32170  Biso   1.000  C
  H135     1.0000 0.02680  0.85800  0.33870  Biso   1.000  H
  N41      1.0000 0.04610  0.77110  0.24630  Biso   1.000  N
  H136     1.0000 0.07180  0.76100  0.24530  Biso   1.000  H
  C225     1.0000 0.03820  0.79610  0.26770  Biso   1.000  C
  O119     1.0000 0.39060  0.57490  0.09110  Biso   1.000  O
  H137     1.0000 0.37960  0.55240  0.08540  Biso   1.000  H
  C226     1.0000 0.81110  0.67640  0.10450  Biso   1.000  C
  C227     1.0000 0.18180  0.59660  0.10940  Biso   1.000  C
  H138     1.0000 0.17800  0.61700  0.12450  Biso   1.000  H
  C228     1.0000 0.99770  0.80050  0.28080  Biso   1.000  C
  H139     1.0000 0.97340  0.79000  0.27110  Biso   1.000  H
  C229     1.0000 0.01660  0.75760  0.22320  Biso   1.000  C
  C230     1.0000 0.09150  0.62840  0.12020  Biso   1.000  C
  C231     1.0000 0.14590  0.58170  0.09340  Biso   1.000  C
  N42      1.0000 0.04780  0.63400  0.11720  Biso   1.000  N
  H140     1.0000 0.03360  0.61770  0.10520  Biso   1.000  H
  C232     1.0000 0.45600  0.19880  0.64410  Biso   1.000  C
  C233     1.0000 0.48260  0.17380  0.62620  Biso   1.000  C
  H141     1.0000 0.47190  0.16130  0.60880  Biso   1.000  H
  C234     1.0000 0.52540  0.16760  0.63420  Biso   1.000  C
  C235     1.0000 0.54150  0.18630  0.66020  Biso   1.000  C
  H142     1.0000 0.57010  0.18220  0.66560  Biso   1.000  H
  C236     1.0000 0.51480  0.21140  0.67810  Biso   1.000  C
  C237     1.0000 0.47200  0.21760  0.67010  Biso   1.000  C
  H143     1.0000 0.45420  0.23430  0.68210  Biso   1.000  H
  O120     1.0000 0.19000  0.19320  0.64470  Biso   1.000  O
  N43      1.0000 0.34480  0.19710  0.62040  Biso   1.000  N
  H144     1.0000 0.33910  0.22080  0.62950  Biso   1.000  H
  C238     1.0000 0.49350  0.32170  0.81020  Biso   1.000  C
  C239     1.0000 0.27930  0.13590  0.56680  Biso   1.000  C
  C240     1.0000 0.38910  0.18040  0.62210  Biso   1.000  C
  O121     1.0000 0.40000  0.15550  0.60120  Biso   1.000  O
  N44      1.0000 0.41340  0.20670  0.63760  Biso   1.000  N
  H145     1.0000 0.40210  0.23020  0.64410  Biso   1.000  H
  Cu15     1.0000 0.80144  0.13756  0.66855  Biso   1.000  Cu
  Cu16     1.0000 0.85074  0.10324  0.62684  Biso   1.000  Cu
  O122     1.0000 0.75400  0.11850  0.64210  Biso   1.000  O
  O123     1.0000 0.64380  0.34740  0.81200  Biso   1.000  O
  O124     1.0000 0.66080  0.98680  0.53060  Biso   1.000  O
  O125     1.0000 0.60130  0.37550  0.84830  Biso   1.000  O
  O126     1.0000 0.79640  0.08750  0.60760  Biso   1.000  O
  C241     1.0000 0.76220  0.09670  0.62080  Biso   1.000  C
  O127     1.0000 0.44830  0.34810  0.84710  Biso   1.000  O
  O128     1.0000 0.15980  0.15380  0.60690  Biso   1.000  O
  O129     1.0000 0.25120  0.08930  0.53130  Biso   1.000  O
  O130     1.0000 0.73240  0.99770  0.53000  Biso   1.000  O
  C242     1.0000 0.60950  0.35450  0.82600  Biso   1.000  C
  O131     1.0000 0.41990  0.30350  0.81220  Biso   1.000  O
  O132     1.0000 0.32040  0.10020  0.53140  Biso   1.000  O
  C243     1.0000 0.19030  0.17070  0.62200  Biso   1.000  C
  C244     1.0000 0.44940  0.32440  0.82560  Biso   1.000  C
  C245     1.0000 0.69360  0.00320  0.53950  Biso   1.000  C
  O133     1.0000 0.61570  0.14790  0.63810  Biso   1.000  O
  C246     1.0000 0.72160  0.08210  0.60340  Biso   1.000  C
  C247     1.0000 0.28450  0.10550  0.54070  Biso   1.000  C
  C248     1.0000 0.56940  0.33660  0.80960  Biso   1.000  C
  C249     1.0000 0.23350  0.16580  0.60640  Biso   1.000  C
  C250     1.0000 0.69050  0.03620  0.56350  Biso   1.000  C
  C251     1.0000 0.31520  0.15240  0.57990  Biso   1.000  C
  H146     1.0000 0.34230  0.14700  0.57180  Biso   1.000  H
  O134     1.0000 0.75900  0.16510  0.70340  Biso   1.000  O
  H147     1.0000 0.76770  0.15800  0.72000  Biso   1.000  H
  N45      1.0000 0.53520  0.23450  0.70220  Biso   1.000  N
  H148     1.0000 0.56280  0.23300  0.70290  Biso   1.000  H
  C252     1.0000 0.72610  0.05380  0.57840  Biso   1.000  C
  H149     1.0000 0.75360  0.04690  0.57170  Biso   1.000  H
  C253     1.0000 0.57440  0.31570  0.78210  Biso   1.000  C
  H150     1.0000 0.60130  0.31450  0.77300  Biso   1.000  H
  O135     1.0000 0.47790  0.26110  0.72640  Biso   1.000  O
  C254     1.0000 0.65050  0.05200  0.57250  Biso   1.000  C
  H151     1.0000 0.62590  0.04110  0.56330  Biso   1.000  H
  C255     1.0000 0.23840  0.14160  0.58060  Biso   1.000  C
  H152     1.0000 0.21430  0.12890  0.57190  Biso   1.000  H
  N46      1.0000 0.60400  0.09680  0.59980  Biso   1.000  N
  H153     1.0000 0.58360  0.08500  0.58970  Biso   1.000  H
  C256     1.0000 0.26980  0.18450  0.61800  Biso   1.000  C
  H154     1.0000 0.26780  0.20240  0.63460  Biso   1.000  H
  C257     1.0000 0.52980  0.34090  0.82170  Biso   1.000  C
  H155     1.0000 0.52680  0.35800  0.83870  Biso   1.000  H
  N47      1.0000 0.54610  0.27110  0.74630  Biso   1.000  N
  H156     1.0000 0.57180  0.26100  0.74530  Biso   1.000  H
  C258     1.0000 0.53820  0.29610  0.76770  Biso   1.000  C
  O136     1.0000 0.89060  0.07490  0.59110  Biso   1.000  O
  H157     1.0000 0.87960  0.05240  0.58540  Biso   1.000  H
  C259     1.0000 0.31110  0.17640  0.60450  Biso   1.000  C
  C260     1.0000 0.68180  0.09660  0.60940  Biso   1.000  C
  H158     1.0000 0.67800  0.11700  0.62450  Biso   1.000  H
  C261     1.0000 0.49770  0.30050  0.78080  Biso   1.000  C
  H159     1.0000 0.47340  0.29000  0.77110  Biso   1.000  H
  C262     1.0000 0.51660  0.25760  0.72320  Biso   1.000  C
  C263     1.0000 0.59150  0.12840  0.62020  Biso   1.000  C
  C264     1.0000 0.64590  0.08170  0.59340  Biso   1.000  C
  N48      1.0000 0.54780  0.13400  0.61720  Biso   1.000  N
  H160     1.0000 0.53360  0.11770  0.60520  Biso   1.000  H
  C265     1.0000 0.69880  0.04400  0.85590  Biso   1.000  C
  C266     1.0000 0.67380  0.01740  0.87380  Biso   1.000  C
  H161     1.0000 0.66130  0.02810  0.89120  Biso   1.000  H
  C267     1.0000 0.66760  0.97460  0.86580  Biso   1.000  C
  C268     1.0000 0.68630  0.95850  0.83980  Biso   1.000  C
  H162     1.0000 0.68220  0.92990  0.83440  Biso   1.000  H
  C269     1.0000 0.71140  0.98520  0.82190  Biso   1.000  C
  C270     1.0000 0.71760  0.02800  0.82990  Biso   1.000  C
  H163     1.0000 0.73430  0.04580  0.81790  Biso   1.000  H
  O137     1.0000 0.69320  0.31000  0.85530  Biso   1.000  O
  N49      1.0000 0.69710  0.15520  0.87960  Biso   1.000  N
  H164     1.0000 0.72080  0.16090  0.87050  Biso   1.000  H
  C271     1.0000 0.82170  0.00650  0.68980  Biso   1.000  C
  C272     1.0000 0.63590  0.22070  0.93320  Biso   1.000  C
  C273     1.0000 0.68040  0.11090  0.87790  Biso   1.000  C
  O138     1.0000 0.65550  0.10000  0.89880  Biso   1.000  O
  N50      1.0000 0.70670  0.08660  0.86240  Biso   1.000  N
  H165     1.0000 0.73020  0.09790  0.85590  Biso   1.000  H
  Cu17     1.0000 0.63756  0.69856  0.83145  Biso   1.000  Cu
  Cu18     1.0000 0.60324  0.64926  0.87316  Biso   1.000  Cu
  O139     1.0000 0.61850  0.74600  0.85790  Biso   1.000  O
  O140     1.0000 0.84740  0.85620  0.68800  Biso   1.000  O
  O141     1.0000 0.48680  0.83920  0.96940  Biso   1.000  O
  O142     1.0000 0.87550  0.89870  0.65170  Biso   1.000  O
  O143     1.0000 0.58750  0.70360  0.89240  Biso   1.000  O
  C274     1.0000 0.59670  0.73780  0.87920  Biso   1.000  C
  O144     1.0000 0.84810  0.05170  0.65290  Biso   1.000  O
  O145     1.0000 0.65380  0.34020  0.89310  Biso   1.000  O
  O146     1.0000 0.58930  0.24880  0.96870  Biso   1.000  O
  O147     1.0000 0.49770  0.76760  0.97000  Biso   1.000  O
  C275     1.0000 0.85450  0.89050  0.67400  Biso   1.000  C
  O148     1.0000 0.80350  0.08010  0.68780  Biso   1.000  O
  O149     1.0000 0.60020  0.17960  0.96860  Biso   1.000  O
  C276     1.0000 0.67070  0.30970  0.87800  Biso   1.000  C
  C277     1.0000 0.82440  0.05060  0.67440  Biso   1.000  C
  C278     1.0000 0.50320  0.80640  0.96050  Biso   1.000  C
  O150     1.0000 0.64790  0.88430  0.86190  Biso   1.000  O
  C279     1.0000 0.58210  0.77840  0.89660  Biso   1.000  C
  C280     1.0000 0.60550  0.21550  0.95930  Biso   1.000  C
  C281     1.0000 0.83660  0.93060  0.69040  Biso   1.000  C
  C282     1.0000 0.66580  0.26650  0.89360  Biso   1.000  C
  C283     1.0000 0.53620  0.80950  0.93650  Biso   1.000  C
  C284     1.0000 0.65240  0.18480  0.92010  Biso   1.000  C
  H166     1.0000 0.64700  0.15770  0.92820  Biso   1.000  H
  O151     1.0000 0.66510  0.74100  0.79660  Biso   1.000  O
  H167     1.0000 0.65800  0.73230  0.78000  Biso   1.000  H
  N51      1.0000 0.73450  0.96480  0.79780  Biso   1.000  N
  H168     1.0000 0.73300  0.93720  0.79710  Biso   1.000  H
  C285     1.0000 0.55380  0.77390  0.92160  Biso   1.000  C
  H169     1.0000 0.54690  0.74640  0.92830  Biso   1.000  H
  C286     1.0000 0.81570  0.92560  0.71790  Biso   1.000  C
  H170     1.0000 0.81450  0.89870  0.72700  Biso   1.000  H
  O152     1.0000 0.76110  0.02210  0.77360  Biso   1.000  O
  C287     1.0000 0.55200  0.84950  0.92750  Biso   1.000  C
  H171     1.0000 0.54110  0.87410  0.93670  Biso   1.000  H
  C288     1.0000 0.64160  0.26160  0.91940  Biso   1.000  C
  H172     1.0000 0.62890  0.28570  0.92810  Biso   1.000  H
  N52      1.0000 0.59680  0.89600  0.90020  Biso   1.000  N
  H173     1.0000 0.58500  0.91640  0.91030  Biso   1.000  H
  C289     1.0000 0.68450  0.23020  0.88200  Biso   1.000  C
  H174     1.0000 0.70240  0.23220  0.86540  Biso   1.000  H
  C290     1.0000 0.84090  0.97020  0.67830  Biso   1.000  C
  H175     1.0000 0.85800  0.97320  0.66130  Biso   1.000  H
  N53      1.0000 0.77110  0.95390  0.75370  Biso   1.000  N
  H176     1.0000 0.76100  0.92820  0.75470  Biso   1.000  H
  C291     1.0000 0.79610  0.96180  0.73230  Biso   1.000  C
  O153     1.0000 0.57490  0.60940  0.90890  Biso   1.000  O
  H177     1.0000 0.55240  0.62040  0.91460  Biso   1.000  H
  C292     1.0000 0.67640  0.18890  0.89550  Biso   1.000  C
  C293     1.0000 0.59660  0.81820  0.89060  Biso   1.000  C
  H178     1.0000 0.61700  0.82200  0.87550  Biso   1.000  H
  C294     1.0000 0.80050  0.00230  0.71920  Biso   1.000  C
  H179     1.0000 0.79000  0.02660  0.72890  Biso   1.000  H
  C295     1.0000 0.75760  0.98340  0.77680  Biso   1.000  C
  C296     1.0000 0.62840  0.90850  0.87980  Biso   1.000  C
  C297     1.0000 0.58170  0.85410  0.90660  Biso   1.000  C
  N54      1.0000 0.63400  0.95220  0.88280  Biso   1.000  N
  H180     1.0000 0.61770  0.96640  0.89480  Biso   1.000  H
  C298     1.0000 0.19880  0.54400  0.35590  Biso   1.000  C
  C299     1.0000 0.17380  0.51740  0.37380  Biso   1.000  C
  H181     1.0000 0.16130  0.52810  0.39120  Biso   1.000  H
  C300     1.0000 0.16760  0.47460  0.36580  Biso   1.000  C
  C301     1.0000 0.18630  0.45850  0.33980  Biso   1.000  C
  H182     1.0000 0.18220  0.42990  0.33440  Biso   1.000  H
  C302     1.0000 0.21140  0.48520  0.32190  Biso   1.000  C
  C303     1.0000 0.21760  0.52800  0.32990  Biso   1.000  C
  H183     1.0000 0.23430  0.54580  0.31790  Biso   1.000  H
  O154     1.0000 0.19320  0.81000  0.35530  Biso   1.000  O
  N55      1.0000 0.19710  0.65520  0.37960  Biso   1.000  N
  H184     1.0000 0.22080  0.66090  0.37050  Biso   1.000  H
  C304     1.0000 0.32170  0.50650  0.18980  Biso   1.000  C
  C305     1.0000 0.13590  0.72070  0.43320  Biso   1.000  C
  C306     1.0000 0.18040  0.61090  0.37790  Biso   1.000  C
  O155     1.0000 0.15550  0.60000  0.39880  Biso   1.000  O
  N56      1.0000 0.20670  0.58660  0.36240  Biso   1.000  N
  H185     1.0000 0.23020  0.59790  0.35590  Biso   1.000  H
  Cu19     1.0000 0.13756  0.19856  0.33145  Biso   1.000  Cu
  Cu20     1.0000 0.10324  0.14926  0.37316  Biso   1.000  Cu
  O156     1.0000 0.11850  0.24600  0.35790  Biso   1.000  O
  O157     1.0000 0.34740  0.35620  0.18800  Biso   1.000  O
  O158     1.0000 0.98680  0.33920  0.46940  Biso   1.000  O
  O159     1.0000 0.37550  0.39870  0.15170  Biso   1.000  O
  O160     1.0000 0.08750  0.20360  0.39240  Biso   1.000  O
  C307     1.0000 0.09670  0.23780  0.37920  Biso   1.000  C
  O161     1.0000 0.34810  0.55170  0.15290  Biso   1.000  O
  O162     1.0000 0.15380  0.84020  0.39310  Biso   1.000  O
  O163     1.0000 0.08930  0.74880  0.46870  Biso   1.000  O
  O164     1.0000 0.99770  0.26760  0.47000  Biso   1.000  O
  C308     1.0000 0.35450  0.39050  0.17400  Biso   1.000  C
  O165     1.0000 0.30350  0.58010  0.18780  Biso   1.000  O
  O166     1.0000 0.10020  0.67960  0.46860  Biso   1.000  O
  C309     1.0000 0.17070  0.80970  0.37800  Biso   1.000  C
  C310     1.0000 0.32440  0.55060  0.17440  Biso   1.000  C
  C311     1.0000 0.00320  0.30640  0.46050  Biso   1.000  C
  O167     1.0000 0.14790  0.38430  0.36190  Biso   1.000  O
  C312     1.0000 0.08210  0.27840  0.39660  Biso   1.000  C
  C313     1.0000 0.10550  0.71550  0.45930  Biso   1.000  C
  C314     1.0000 0.33660  0.43060  0.19040  Biso   1.000  C
  C315     1.0000 0.16580  0.76650  0.39360  Biso   1.000  C
  C316     1.0000 0.03620  0.30950  0.43650  Biso   1.000  C
  C317     1.0000 0.15240  0.68480  0.42010  Biso   1.000  C
  H186     1.0000 0.14700  0.65770  0.42820  Biso   1.000  H
  O168     1.0000 0.16510  0.24100  0.29660  Biso   1.000  O
  H187     1.0000 0.15800  0.23230  0.28000  Biso   1.000  H
  N57      1.0000 0.23450  0.46480  0.29780  Biso   1.000  N
  H188     1.0000 0.23300  0.43720  0.29710  Biso   1.000  H
  C318     1.0000 0.05380  0.27390  0.42160  Biso   1.000  C
  H189     1.0000 0.04690  0.24640  0.42830  Biso   1.000  H
  C319     1.0000 0.31570  0.42560  0.21790  Biso   1.000  C
  H190     1.0000 0.31450  0.39870  0.22700  Biso   1.000  H
  O169     1.0000 0.26110  0.52210  0.27360  Biso   1.000  O
  C320     1.0000 0.05200  0.34950  0.42750  Biso   1.000  C
  H191     1.0000 0.04110  0.37410  0.43670  Biso   1.000  H
  C321     1.0000 0.14160  0.76160  0.41940  Biso   1.000  C
  H192     1.0000 0.12890  0.78570  0.42810  Biso   1.000  H
  N58      1.0000 0.09680  0.39600  0.40020  Biso   1.000  N
  H193     1.0000 0.08500  0.41640  0.41030  Biso   1.000  H
  C322     1.0000 0.18450  0.73020  0.38200  Biso   1.000  C
  H194     1.0000 0.20240  0.73220  0.36540  Biso   1.000  H
  C323     1.0000 0.34090  0.47020  0.17830  Biso   1.000  C
  H195     1.0000 0.35800  0.47320  0.16130  Biso   1.000  H
  N59      1.0000 0.27110  0.45390  0.25370  Biso   1.000  N
  H196     1.0000 0.26100  0.42820  0.25470  Biso   1.000  H
  C324     1.0000 0.29610  0.46180  0.23230  Biso   1.000  C
  O170     1.0000 0.07490  0.10940  0.40890  Biso   1.000  O
  H197     1.0000 0.05240  0.12040  0.41460  Biso   1.000  H
  C325     1.0000 0.17640  0.68890  0.39550  Biso   1.000  C
  C326     1.0000 0.09660  0.31820  0.39060  Biso   1.000  C
  H198     1.0000 0.11700  0.32200  0.37550  Biso   1.000  H
  C327     1.0000 0.30050  0.50230  0.21920  Biso   1.000  C
  H199     1.0000 0.29000  0.52660  0.22890  Biso   1.000  H
  C328     1.0000 0.25760  0.48340  0.27680  Biso   1.000  C
  C329     1.0000 0.12840  0.40850  0.37980  Biso   1.000  C
  C330     1.0000 0.08170  0.35410  0.40660  Biso   1.000  C
  N60      1.0000 0.13400  0.45220  0.38280  Biso   1.000  N
  H200     1.0000 0.11770  0.46640  0.39480  Biso   1.000  H
  C331     1.0000 0.30120  0.95600  0.85590  Biso   1.000  C
  C332     1.0000 0.32620  0.98260  0.87380  Biso   1.000  C
  H201     1.0000 0.33870  0.97190  0.89120  Biso   1.000  H
  C333     1.0000 0.33240  0.02540  0.86580  Biso   1.000  C
  C334     1.0000 0.31370  0.04150  0.83980  Biso   1.000  C
  H202     1.0000 0.31780  0.07010  0.83440  Biso   1.000  H
  C335     1.0000 0.28860  0.01480  0.82190  Biso   1.000  C
  C336     1.0000 0.28240  0.97200  0.82990  Biso   1.000  C
  H203     1.0000 0.26570  0.95420  0.81790  Biso   1.000  H
  O171     1.0000 0.30680  0.69000  0.85530  Biso   1.000  O
  N61      1.0000 0.30290  0.84480  0.87960  Biso   1.000  N
  H204     1.0000 0.27920  0.83910  0.87050  Biso   1.000  H
  C337     1.0000 0.17830  0.99350  0.68980  Biso   1.000  C
  C338     1.0000 0.36410  0.77930  0.93320  Biso   1.000  C
  C339     1.0000 0.31960  0.88910  0.87790  Biso   1.000  C
  O172     1.0000 0.34450  0.90000  0.89880  Biso   1.000  O
  N62      1.0000 0.29330  0.91340  0.86240  Biso   1.000  N
  H205     1.0000 0.26980  0.90210  0.85590  Biso   1.000  H
  Cu21     1.0000 0.36244  0.30144  0.83145  Biso   1.000  Cu
  Cu22     1.0000 0.39676  0.35074  0.87316  Biso   1.000  Cu
  O173     1.0000 0.38150  0.25400  0.85790  Biso   1.000  O
  O174     1.0000 0.15260  0.14380  0.68800  Biso   1.000  O
  O175     1.0000 0.51320  0.16080  0.96940  Biso   1.000  O
  O176     1.0000 0.12450  0.10130  0.65170  Biso   1.000  O
  O177     1.0000 0.41250  0.29640  0.89240  Biso   1.000  O
  C340     1.0000 0.40330  0.26220  0.87920  Biso   1.000  C
  O178     1.0000 0.15190  0.94830  0.65290  Biso   1.000  O
  O179     1.0000 0.34620  0.65980  0.89310  Biso   1.000  O
  O180     1.0000 0.41070  0.75120  0.96870  Biso   1.000  O
  O181     1.0000 0.50230  0.23240  0.97000  Biso   1.000  O
  C341     1.0000 0.14550  0.10950  0.67400  Biso   1.000  C
  O182     1.0000 0.19650  0.91990  0.68780  Biso   1.000  O
  O183     1.0000 0.39980  0.82040  0.96860  Biso   1.000  O
  C342     1.0000 0.32930  0.69030  0.87800  Biso   1.000  C
  C343     1.0000 0.17560  0.94940  0.67440  Biso   1.000  C
  C344     1.0000 0.49680  0.19360  0.96050  Biso   1.000  C
  O184     1.0000 0.35210  0.11570  0.86190  Biso   1.000  O
  C345     1.0000 0.41790  0.22160  0.89660  Biso   1.000  C
  C346     1.0000 0.39450  0.78450  0.95930  Biso   1.000  C
  C347     1.0000 0.16340  0.06940  0.69040  Biso   1.000  C
  C348     1.0000 0.33420  0.73350  0.89360  Biso   1.000  C
  C349     1.0000 0.46380  0.19050  0.93650  Biso   1.000  C
  C350     1.0000 0.34760  0.81520  0.92010  Biso   1.000  C
  H206     1.0000 0.35300  0.84230  0.92820  Biso   1.000  H
  O185     1.0000 0.33490  0.25900  0.79660  Biso   1.000  O
  H207     1.0000 0.34200  0.26770  0.78000  Biso   1.000  H
  N63      1.0000 0.26550  0.03520  0.79780  Biso   1.000  N
  H208     1.0000 0.26700  0.06280  0.79710  Biso   1.000  H
  C351     1.0000 0.44620  0.22610  0.92160  Biso   1.000  C
  H209     1.0000 0.45310  0.25360  0.92830  Biso   1.000  H
  C352     1.0000 0.18430  0.07440  0.71790  Biso   1.000  C
  H210     1.0000 0.18550  0.10130  0.72700  Biso   1.000  H
  O186     1.0000 0.23890  0.97790  0.77360  Biso   1.000  O
  C353     1.0000 0.44800  0.15050  0.92750  Biso   1.000  C
  H211     1.0000 0.45890  0.12590  0.93670  Biso   1.000  H
  C354     1.0000 0.35840  0.73840  0.91940  Biso   1.000  C
  H212     1.0000 0.37110  0.71430  0.92810  Biso   1.000  H
  N64      1.0000 0.40320  0.10400  0.90020  Biso   1.000  N
  H213     1.0000 0.41500  0.08360  0.91030  Biso   1.000  H
  C355     1.0000 0.31550  0.76980  0.88200  Biso   1.000  C
  H214     1.0000 0.29760  0.76780  0.86540  Biso   1.000  H
  C356     1.0000 0.15910  0.02980  0.67830  Biso   1.000  C
  H215     1.0000 0.14200  0.02680  0.66130  Biso   1.000  H
  N65      1.0000 0.22890  0.04610  0.75370  Biso   1.000  N
  H216     1.0000 0.23900  0.07180  0.75470  Biso   1.000  H
  C357     1.0000 0.20390  0.03820  0.73230  Biso   1.000  C
  O187     1.0000 0.42510  0.39060  0.90890  Biso   1.000  O
  H217     1.0000 0.44760  0.37960  0.91460  Biso   1.000  H
  C358     1.0000 0.32360  0.81110  0.89550  Biso   1.000  C
  C359     1.0000 0.40340  0.18180  0.89060  Biso   1.000  C
  H218     1.0000 0.38300  0.17800  0.87550  Biso   1.000  H
  C360     1.0000 0.19950  0.99770  0.71920  Biso   1.000  C
  H219     1.0000 0.21000  0.97340  0.72890  Biso   1.000  H
  C361     1.0000 0.24240  0.01660  0.77680  Biso   1.000  C
  C362     1.0000 0.37160  0.09150  0.87980  Biso   1.000  C
  C363     1.0000 0.41830  0.14590  0.90660  Biso   1.000  C
  N66      1.0000 0.36600  0.04780  0.88280  Biso   1.000  N
  H220     1.0000 0.38230  0.03360  0.89480  Biso   1.000  H
  C364     1.0000 0.80120  0.45600  0.35590  Biso   1.000  C
  C365     1.0000 0.82620  0.48260  0.37380  Biso   1.000  C
  H221     1.0000 0.83870  0.47190  0.39120  Biso   1.000  H
  C366     1.0000 0.83240  0.52540  0.36580  Biso   1.000  C
  C367     1.0000 0.81370  0.54150  0.33980  Biso   1.000  C
  H222     1.0000 0.81780  0.57010  0.33440  Biso   1.000  H
  C368     1.0000 0.78860  0.51480  0.32190  Biso   1.000  C
  C369     1.0000 0.78240  0.47200  0.32990  Biso   1.000  C
  H223     1.0000 0.76570  0.45420  0.31790  Biso   1.000  H
  O188     1.0000 0.80680  0.19000  0.35530  Biso   1.000  O
  N67      1.0000 0.80290  0.34480  0.37960  Biso   1.000  N
  H224     1.0000 0.77920  0.33910  0.37050  Biso   1.000  H
  C370     1.0000 0.67830  0.49350  0.18980  Biso   1.000  C
  C371     1.0000 0.86410  0.27930  0.43320  Biso   1.000  C
  C372     1.0000 0.81960  0.38910  0.37790  Biso   1.000  C
  O189     1.0000 0.84450  0.40000  0.39880  Biso   1.000  O
  N68      1.0000 0.79330  0.41340  0.36240  Biso   1.000  N
  H225     1.0000 0.76980  0.40210  0.35590  Biso   1.000  H
  Cu23     1.0000 0.86244  0.80144  0.33145  Biso   1.000  Cu
  Cu24     1.0000 0.89676  0.85074  0.37316  Biso   1.000  Cu
  O190     1.0000 0.88150  0.75400  0.35790  Biso   1.000  O
  O191     1.0000 0.65260  0.64380  0.18800  Biso   1.000  O
  O192     1.0000 0.01320  0.66080  0.46940  Biso   1.000  O
  O193     1.0000 0.62450  0.60130  0.15170  Biso   1.000  O
  O194     1.0000 0.91250  0.79640  0.39240  Biso   1.000  O
  C373     1.0000 0.90330  0.76220  0.37920  Biso   1.000  C
  O195     1.0000 0.65190  0.44830  0.15290  Biso   1.000  O
  O196     1.0000 0.84620  0.15980  0.39310  Biso   1.000  O
  O197     1.0000 0.91070  0.25120  0.46870  Biso   1.000  O
  O198     1.0000 0.00230  0.73240  0.47000  Biso   1.000  O
  C374     1.0000 0.64550  0.60950  0.17400  Biso   1.000  C
  O199     1.0000 0.69650  0.41990  0.18780  Biso   1.000  O
  O200     1.0000 0.89980  0.32040  0.46860  Biso   1.000  O
  C375     1.0000 0.82930  0.19030  0.37800  Biso   1.000  C
  C376     1.0000 0.67560  0.44940  0.17440  Biso   1.000  C
  C377     1.0000 0.99680  0.69360  0.46050  Biso   1.000  C
  O201     1.0000 0.85210  0.61570  0.36190  Biso   1.000  O
  C378     1.0000 0.91790  0.72160  0.39660  Biso   1.000  C
  C379     1.0000 0.89450  0.28450  0.45930  Biso   1.000  C
  C380     1.0000 0.66340  0.56940  0.19040  Biso   1.000  C
  C381     1.0000 0.83420  0.23350  0.39360  Biso   1.000  C
  C382     1.0000 0.96380  0.69050  0.43650  Biso   1.000  C
  C383     1.0000 0.84760  0.31520  0.42010  Biso   1.000  C
  H226     1.0000 0.85300  0.34230  0.42820  Biso   1.000  H
  O202     1.0000 0.83490  0.75900  0.29660  Biso   1.000  O
  H227     1.0000 0.84200  0.76770  0.28000  Biso   1.000  H
  N69      1.0000 0.76550  0.53520  0.29780  Biso   1.000  N
  H228     1.0000 0.76700  0.56280  0.29710  Biso   1.000  H
  C384     1.0000 0.94620  0.72610  0.42160  Biso   1.000  C
  H229     1.0000 0.95310  0.75360  0.42830  Biso   1.000  H
  C385     1.0000 0.68430  0.57440  0.21790  Biso   1.000  C
  H230     1.0000 0.68550  0.60130  0.22700  Biso   1.000  H
  O203     1.0000 0.73890  0.47790  0.27360  Biso   1.000  O
  C386     1.0000 0.94800  0.65050  0.42750  Biso   1.000  C
  H231     1.0000 0.95890  0.62590  0.43670  Biso   1.000  H
  C387     1.0000 0.85840  0.23840  0.41940  Biso   1.000  C
  H232     1.0000 0.87110  0.21430  0.42810  Biso   1.000  H
  N70      1.0000 0.90320  0.60400  0.40020  Biso   1.000  N
  H233     1.0000 0.91500  0.58360  0.41030  Biso   1.000  H
  C388     1.0000 0.81550  0.26980  0.38200  Biso   1.000  C
  H234     1.0000 0.79760  0.26780  0.36540  Biso   1.000  H
  C389     1.0000 0.65910  0.52980  0.17830  Biso   1.000  C
  H235     1.0000 0.64200  0.52680  0.16130  Biso   1.000  H
  N71      1.0000 0.72890  0.54610  0.25370  Biso   1.000  N
  H236     1.0000 0.73900  0.57180  0.25470  Biso   1.000  H
  C390     1.0000 0.70390  0.53820  0.23230  Biso   1.000  C
  O204     1.0000 0.92510  0.89060  0.40890  Biso   1.000  O
  H237     1.0000 0.94760  0.87960  0.41460  Biso   1.000  H
  C391     1.0000 0.82360  0.31110  0.39550  Biso   1.000  C
  C392     1.0000 0.90340  0.68180  0.39060  Biso   1.000  C
  H238     1.0000 0.88300  0.67800  0.37550  Biso   1.000  H
  C393     1.0000 0.69950  0.49770  0.21920  Biso   1.000  C
  H239     1.0000 0.71000  0.47340  0.22890  Biso   1.000  H
  C394     1.0000 0.74240  0.51660  0.27680  Biso   1.000  C
  C395     1.0000 0.87160  0.59150  0.37980  Biso   1.000  C
  C396     1.0000 0.91830  0.64590  0.40660  Biso   1.000  C
  N72      1.0000 0.86600  0.54780  0.38280  Biso   1.000  N
  H240     1.0000 0.88230  0.53360  0.39480  Biso   1.000  H
  C397     1.0000 0.95600  0.69880  0.85590  Biso   1.000  C
  C398     1.0000 0.98260  0.67380  0.87380  Biso   1.000  C
  H241     1.0000 0.97190  0.66130  0.89120  Biso   1.000  H
  C399     1.0000 0.02540  0.66760  0.86580  Biso   1.000  C
  C400     1.0000 0.04150  0.68630  0.83980  Biso   1.000  C
  H242     1.0000 0.07010  0.68220  0.83440  Biso   1.000  H
  C401     1.0000 0.01480  0.71140  0.82190  Biso   1.000  C
  C402     1.0000 0.97200  0.71760  0.82990  Biso   1.000  C
  H243     1.0000 0.95420  0.73430  0.81790  Biso   1.000  H
  O205     1.0000 0.69000  0.69320  0.85530  Biso   1.000  O
  N73      1.0000 0.84480  0.69710  0.87960  Biso   1.000  N
  H244     1.0000 0.83910  0.72080  0.87050  Biso   1.000  H
  C403     1.0000 0.99350  0.82170  0.68980  Biso   1.000  C
  C404     1.0000 0.77930  0.63590  0.93320  Biso   1.000  C
  C405     1.0000 0.88910  0.68040  0.87790  Biso   1.000  C
  O206     1.0000 0.90000  0.65550  0.89880  Biso   1.000  O
  N74      1.0000 0.91340  0.70670  0.86240  Biso   1.000  N
  H245     1.0000 0.90210  0.73020  0.85590  Biso   1.000  H
  Cu25     1.0000 0.30144  0.63756  0.83145  Biso   1.000  Cu
  Cu26     1.0000 0.35074  0.60324  0.87316  Biso   1.000  Cu
  O207     1.0000 0.25400  0.61850  0.85790  Biso   1.000  O
  O208     1.0000 0.14380  0.84740  0.68800  Biso   1.000  O
  O209     1.0000 0.16080  0.48680  0.96940  Biso   1.000  O
  O210     1.0000 0.10130  0.87550  0.65170  Biso   1.000  O
  O211     1.0000 0.29640  0.58750  0.89240  Biso   1.000  O
  C406     1.0000 0.26220  0.59670  0.87920  Biso   1.000  C
  O212     1.0000 0.94830  0.84810  0.65290  Biso   1.000  O
  O213     1.0000 0.65980  0.65380  0.89310  Biso   1.000  O
  O214     1.0000 0.75120  0.58930  0.96870  Biso   1.000  O
  O215     1.0000 0.23240  0.49770  0.97000  Biso   1.000  O
  C407     1.0000 0.10950  0.85450  0.67400  Biso   1.000  C
  O216     1.0000 0.91990  0.80350  0.68780  Biso   1.000  O
  O217     1.0000 0.82040  0.60020  0.96860  Biso   1.000  O
  C408     1.0000 0.69030  0.67070  0.87800  Biso   1.000  C
  C409     1.0000 0.94940  0.82440  0.67440  Biso   1.000  C
  C410     1.0000 0.19360  0.50320  0.96050  Biso   1.000  C
  O218     1.0000 0.11570  0.64790  0.86190  Biso   1.000  O
  C411     1.0000 0.22160  0.58210  0.89660  Biso   1.000  C
  C412     1.0000 0.78450  0.60550  0.95930  Biso   1.000  C
  C413     1.0000 0.06940  0.83660  0.69040  Biso   1.000  C
  C414     1.0000 0.73350  0.66580  0.89360  Biso   1.000  C
  C415     1.0000 0.19050  0.53620  0.93650  Biso   1.000  C
  C416     1.0000 0.81520  0.65240  0.92010  Biso   1.000  C
  H246     1.0000 0.84230  0.64700  0.92820  Biso   1.000  H
  O219     1.0000 0.25900  0.66510  0.79660  Biso   1.000  O
  H247     1.0000 0.26770  0.65800  0.78000  Biso   1.000  H
  N75      1.0000 0.03520  0.73450  0.79780  Biso   1.000  N
  H248     1.0000 0.06280  0.73300  0.79710  Biso   1.000  H
  C417     1.0000 0.22610  0.55380  0.92160  Biso   1.000  C
  H249     1.0000 0.25360  0.54690  0.92830  Biso   1.000  H
  C418     1.0000 0.07440  0.81570  0.71790  Biso   1.000  C
  H250     1.0000 0.10130  0.81450  0.72700  Biso   1.000  H
  O220     1.0000 0.97790  0.76110  0.77360  Biso   1.000  O
  C419     1.0000 0.15050  0.55200  0.92750  Biso   1.000  C
  H251     1.0000 0.12590  0.54110  0.93670  Biso   1.000  H
  C420     1.0000 0.73840  0.64160  0.91940  Biso   1.000  C
  H252     1.0000 0.71430  0.62890  0.92810  Biso   1.000  H
  N76      1.0000 0.10400  0.59680  0.90020  Biso   1.000  N
  H253     1.0000 0.08360  0.58500  0.91030  Biso   1.000  H
  C421     1.0000 0.76980  0.68450  0.88200  Biso   1.000  C
  H254     1.0000 0.76780  0.70240  0.86540  Biso   1.000  H
  C422     1.0000 0.02980  0.84090  0.67830  Biso   1.000  C
  H255     1.0000 0.02680  0.85800  0.66130  Biso   1.000  H
  N77      1.0000 0.04610  0.77110  0.75370  Biso   1.000  N
  H256     1.0000 0.07180  0.76100  0.75470  Biso   1.000  H
  C423     1.0000 0.03820  0.79610  0.73230  Biso   1.000  C
  O221     1.0000 0.39060  0.57490  0.90890  Biso   1.000  O
  H257     1.0000 0.37960  0.55240  0.91460  Biso   1.000  H
  C424     1.0000 0.81110  0.67640  0.89550  Biso   1.000  C
  C425     1.0000 0.18180  0.59660  0.89060  Biso   1.000  C
  H258     1.0000 0.17800  0.61700  0.87550  Biso   1.000  H
  C426     1.0000 0.99770  0.80050  0.71920  Biso   1.000  C
  H259     1.0000 0.97340  0.79000  0.72890  Biso   1.000  H
  C427     1.0000 0.01660  0.75760  0.77680  Biso   1.000  C
  C428     1.0000 0.09150  0.62840  0.87980  Biso   1.000  C
  C429     1.0000 0.14590  0.58170  0.90660  Biso   1.000  C
  N78      1.0000 0.04780  0.63400  0.88280  Biso   1.000  N
  H260     1.0000 0.03360  0.61770  0.89480  Biso   1.000  H
  C430     1.0000 0.45600  0.19880  0.35590  Biso   1.000  C
  C431     1.0000 0.48260  0.17380  0.37380  Biso   1.000  C
  H261     1.0000 0.47190  0.16130  0.39120  Biso   1.000  H
  C432     1.0000 0.52540  0.16760  0.36580  Biso   1.000  C
  C433     1.0000 0.54150  0.18630  0.33980  Biso   1.000  C
  H262     1.0000 0.57010  0.18220  0.33440  Biso   1.000  H
  C434     1.0000 0.51480  0.21140  0.32190  Biso   1.000  C
  C435     1.0000 0.47200  0.21760  0.32990  Biso   1.000  C
  H263     1.0000 0.45420  0.23430  0.31790  Biso   1.000  H
  O222     1.0000 0.19000  0.19320  0.35530  Biso   1.000  O
  N79      1.0000 0.34480  0.19710  0.37960  Biso   1.000  N
  H264     1.0000 0.33910  0.22080  0.37050  Biso   1.000  H
  C436     1.0000 0.49350  0.32170  0.18980  Biso   1.000  C
  C437     1.0000 0.27930  0.13590  0.43320  Biso   1.000  C
  C438     1.0000 0.38910  0.18040  0.37790  Biso   1.000  C
  O223     1.0000 0.40000  0.15550  0.39880  Biso   1.000  O
  N80      1.0000 0.41340  0.20670  0.36240  Biso   1.000  N
  H265     1.0000 0.40210  0.23020  0.35590  Biso   1.000  H
  Cu27     1.0000 0.80144  0.13756  0.33145  Biso   1.000  Cu
  Cu28     1.0000 0.85074  0.10324  0.37316  Biso   1.000  Cu
  O224     1.0000 0.75400  0.11850  0.35790  Biso   1.000  O
  O225     1.0000 0.64380  0.34740  0.18800  Biso   1.000  O
  O226     1.0000 0.66080  0.98680  0.46940  Biso   1.000  O
  O227     1.0000 0.60130  0.37550  0.15170  Biso   1.000  O
  O228     1.0000 0.79640  0.08750  0.39240  Biso   1.000  O
  C439     1.0000 0.76220  0.09670  0.37920  Biso   1.000  C
  O229     1.0000 0.44830  0.34810  0.15290  Biso   1.000  O
  O230     1.0000 0.15980  0.15380  0.39310  Biso   1.000  O
  O231     1.0000 0.25120  0.08930  0.46870  Biso   1.000  O
  O232     1.0000 0.73240  0.99770  0.47000  Biso   1.000  O
  C440     1.0000 0.60950  0.35450  0.17400  Biso   1.000  C
  O233     1.0000 0.41990  0.30350  0.18780  Biso   1.000  O
  O234     1.0000 0.32040  0.10020  0.46860  Biso   1.000  O
  C441     1.0000 0.19030  0.17070  0.37800  Biso   1.000  C
  C442     1.0000 0.44940  0.32440  0.17440  Biso   1.000  C
  C443     1.0000 0.69360  0.00320  0.46050  Biso   1.000  C
  O235     1.0000 0.61570  0.14790  0.36190  Biso   1.000  O
  C444     1.0000 0.72160  0.08210  0.39660  Biso   1.000  C
  C445     1.0000 0.28450  0.10550  0.45930  Biso   1.000  C
  C446     1.0000 0.56940  0.33660  0.19040  Biso   1.000  C
  C447     1.0000 0.23350  0.16580  0.39360  Biso   1.000  C
  C448     1.0000 0.69050  0.03620  0.43650  Biso   1.000  C
  C449     1.0000 0.31520  0.15240  0.42010  Biso   1.000  C
  H266     1.0000 0.34230  0.14700  0.42820  Biso   1.000  H
  O236     1.0000 0.75900  0.16510  0.29660  Biso   1.000  O
  H267     1.0000 0.76770  0.15800  0.28000  Biso   1.000  H
  N81      1.0000 0.53520  0.23450  0.29780  Biso   1.000  N
  H268     1.0000 0.56280  0.23300  0.29710  Biso   1.000  H
  C450     1.0000 0.72610  0.05380  0.42160  Biso   1.000  C
  H269     1.0000 0.75360  0.04690  0.42830  Biso   1.000  H
  C451     1.0000 0.57440  0.31570  0.21790  Biso   1.000  C
  H270     1.0000 0.60130  0.31450  0.22700  Biso   1.000  H
  O237     1.0000 0.47790  0.26110  0.27360  Biso   1.000  O
  C452     1.0000 0.65050  0.05200  0.42750  Biso   1.000  C
  H271     1.0000 0.62590  0.04110  0.43670  Biso   1.000  H
  C453     1.0000 0.23840  0.14160  0.41940  Biso   1.000  C
  H272     1.0000 0.21430  0.12890  0.42810  Biso   1.000  H
  N82      1.0000 0.60400  0.09680  0.40020  Biso   1.000  N
  H273     1.0000 0.58360  0.08500  0.41030  Biso   1.000  H
  C454     1.0000 0.26980  0.18450  0.38200  Biso   1.000  C
  H274     1.0000 0.26780  0.20240  0.36540  Biso   1.000  H
  C455     1.0000 0.52980  0.34090  0.17830  Biso   1.000  C
  H275     1.0000 0.52680  0.35800  0.16130  Biso   1.000  H
  N83      1.0000 0.54610  0.27110  0.25370  Biso   1.000  N
  H276     1.0000 0.57180  0.26100  0.25470  Biso   1.000  H
  C456     1.0000 0.53820  0.29610  0.23230  Biso   1.000  C
  O238     1.0000 0.89060  0.07490  0.40890  Biso   1.000  O
  H277     1.0000 0.87960  0.05240  0.41460  Biso   1.000  H
  C457     1.0000 0.31110  0.17640  0.39550  Biso   1.000  C
  C458     1.0000 0.68180  0.09660  0.39060  Biso   1.000  C
  H278     1.0000 0.67800  0.11700  0.37550  Biso   1.000  H
  C459     1.0000 0.49770  0.30050  0.21920  Biso   1.000  C
  H279     1.0000 0.47340  0.29000  0.22890  Biso   1.000  H
  C460     1.0000 0.51660  0.25760  0.27680  Biso   1.000  C
  C461     1.0000 0.59150  0.12840  0.37980  Biso   1.000  C
  C462     1.0000 0.64590  0.08170  0.40660  Biso   1.000  C
  N84      1.0000 0.54780  0.13400  0.38280  Biso   1.000  N
  H280     1.0000 0.53360  0.11770  0.39480  Biso   1.000  H
  C463     1.0000 0.04400  0.30120  0.85590  Biso   1.000  C
  C464     1.0000 0.01740  0.32620  0.87380  Biso   1.000  C
  H281     1.0000 0.02810  0.33870  0.89120  Biso   1.000  H
  C465     1.0000 0.97460  0.33240  0.86580  Biso   1.000  C
  C466     1.0000 0.95850  0.31370  0.83980  Biso   1.000  C
  H282     1.0000 0.92990  0.31780  0.83440  Biso   1.000  H
  C467     1.0000 0.98520  0.28860  0.82190  Biso   1.000  C
  C468     1.0000 0.02800  0.28240  0.82990  Biso   1.000  C
  H283     1.0000 0.04580  0.26570  0.81790  Biso   1.000  H
  O239     1.0000 0.31000  0.30680  0.85530  Biso   1.000  O
  N85      1.0000 0.15520  0.30290  0.87960  Biso   1.000  N
  H284     1.0000 0.16090  0.27920  0.87050  Biso   1.000  H
  C469     1.0000 0.00650  0.17830  0.68980  Biso   1.000  C
  C470     1.0000 0.22070  0.36410  0.93320  Biso   1.000  C
  C471     1.0000 0.11090  0.31960  0.87790  Biso   1.000  C
  O240     1.0000 0.10000  0.34450  0.89880  Biso   1.000  O
  N86      1.0000 0.08660  0.29330  0.86240  Biso   1.000  N
  H285     1.0000 0.09790  0.26980  0.85590  Biso   1.000  H
  Cu29     1.0000 0.69856  0.36244  0.83145  Biso   1.000  Cu
  Cu30     1.0000 0.64926  0.39676  0.87316  Biso   1.000  Cu
  O241     1.0000 0.74600  0.38150  0.85790  Biso   1.000  O
  O242     1.0000 0.85620  0.15260  0.68800  Biso   1.000  O
  O243     1.0000 0.83920  0.51320  0.96940  Biso   1.000  O
  O244     1.0000 0.89870  0.12450  0.65170  Biso   1.000  O
  O245     1.0000 0.70360  0.41250  0.89240  Biso   1.000  O
  C472     1.0000 0.73780  0.40330  0.87920  Biso   1.000  C
  O246     1.0000 0.05170  0.15190  0.65290  Biso   1.000  O
  O247     1.0000 0.34020  0.34620  0.89310  Biso   1.000  O
  O248     1.0000 0.24880  0.41070  0.96870  Biso   1.000  O
  O249     1.0000 0.76760  0.50230  0.97000  Biso   1.000  O
  C473     1.0000 0.89050  0.14550  0.67400  Biso   1.000  C
  O250     1.0000 0.08010  0.19650  0.68780  Biso   1.000  O
  O251     1.0000 0.17960  0.39980  0.96860  Biso   1.000  O
  C474     1.0000 0.30970  0.32930  0.87800  Biso   1.000  C
  C475     1.0000 0.05060  0.17560  0.67440  Biso   1.000  C
  C476     1.0000 0.80640  0.49680  0.96050  Biso   1.000  C
  O252     1.0000 0.88430  0.35210  0.86190  Biso   1.000  O
  C477     1.0000 0.77840  0.41790  0.89660  Biso   1.000  C
  C478     1.0000 0.21550  0.39450  0.95930  Biso   1.000  C
  C479     1.0000 0.93060  0.16340  0.69040  Biso   1.000  C
  C480     1.0000 0.26650  0.33420  0.89360  Biso   1.000  C
  C481     1.0000 0.80950  0.46380  0.93650  Biso   1.000  C
  C482     1.0000 0.18480  0.34760  0.92010  Biso   1.000  C
  H286     1.0000 0.15770  0.35300  0.92820  Biso   1.000  H
  O253     1.0000 0.74100  0.33490  0.79660  Biso   1.000  O
  H287     1.0000 0.73230  0.34200  0.78000  Biso   1.000  H
  N87      1.0000 0.96480  0.26550  0.79780  Biso   1.000  N
  H288     1.0000 0.93720  0.26700  0.79710  Biso   1.000  H
  C483     1.0000 0.77390  0.44620  0.92160  Biso   1.000  C
  H289     1.0000 0.74640  0.45310  0.92830  Biso   1.000  H
  C484     1.0000 0.92560  0.18430  0.71790  Biso   1.000  C
  H290     1.0000 0.89870  0.18550  0.72700  Biso   1.000  H
  O254     1.0000 0.02210  0.23890  0.77360  Biso   1.000  O
  C485     1.0000 0.84950  0.44800  0.92750  Biso   1.000  C
  H291     1.0000 0.87410  0.45890  0.93670  Biso   1.000  H
  C486     1.0000 0.26160  0.35840  0.91940  Biso   1.000  C
  H292     1.0000 0.28570  0.37110  0.92810  Biso   1.000  H
  N88      1.0000 0.89600  0.40320  0.90020  Biso   1.000  N
  H293     1.0000 0.91640  0.41500  0.91030  Biso   1.000  H
  C487     1.0000 0.23020  0.31550  0.88200  Biso   1.000  C
  H294     1.0000 0.23220  0.29760  0.86540  Biso   1.000  H
  C488     1.0000 0.97020  0.15910  0.67830  Biso   1.000  C
  H295     1.0000 0.97320  0.14200  0.66130  Biso   1.000  H
  N89      1.0000 0.95390  0.22890  0.75370  Biso   1.000  N
  H296     1.0000 0.92820  0.23900  0.75470  Biso   1.000  H
  C489     1.0000 0.96180  0.20390  0.73230  Biso   1.000  C
  O255     1.0000 0.60940  0.42510  0.90890  Biso   1.000  O
  H297     1.0000 0.62040  0.44760  0.91460  Biso   1.000  H
  C490     1.0000 0.18890  0.32360  0.89550  Biso   1.000  C
  C491     1.0000 0.81820  0.40340  0.89060  Biso   1.000  C
  H298     1.0000 0.82200  0.38300  0.87550  Biso   1.000  H
  C492     1.0000 0.00230  0.19950  0.71920  Biso   1.000  C
  H299     1.0000 0.02660  0.21000  0.72890  Biso   1.000  H
  C493     1.0000 0.98340  0.24240  0.77680  Biso   1.000  C
  C494     1.0000 0.90850  0.37160  0.87980  Biso   1.000  C
  C495     1.0000 0.85410  0.41830  0.90660  Biso   1.000  C
  N90      1.0000 0.95220  0.36600  0.88280  Biso   1.000  N
  H300     1.0000 0.96640  0.38230  0.89480  Biso   1.000  H
  C496     1.0000 0.54400  0.80120  0.35590  Biso   1.000  C
  C497     1.0000 0.51740  0.82620  0.37380  Biso   1.000  C
  H301     1.0000 0.52810  0.83870  0.39120  Biso   1.000  H
  C498     1.0000 0.47460  0.83240  0.36580  Biso   1.000  C
  C499     1.0000 0.45850  0.81370  0.33980  Biso   1.000  C
  H302     1.0000 0.42990  0.81780  0.33440  Biso   1.000  H
  C500     1.0000 0.48520  0.78860  0.32190  Biso   1.000  C
  C501     1.0000 0.52800  0.78240  0.32990  Biso   1.000  C
  H303     1.0000 0.54580  0.76570  0.31790  Biso   1.000  H
  O256     1.0000 0.81000  0.80680  0.35530  Biso   1.000  O
  N91      1.0000 0.65520  0.80290  0.37960  Biso   1.000  N
  H304     1.0000 0.66090  0.77920  0.37050  Biso   1.000  H
  C502     1.0000 0.50650  0.67830  0.18980  Biso   1.000  C
  C503     1.0000 0.72070  0.86410  0.43320  Biso   1.000  C
  C504     1.0000 0.61090  0.81960  0.37790  Biso   1.000  C
  O257     1.0000 0.60000  0.84450  0.39880  Biso   1.000  O
  N92      1.0000 0.58660  0.79330  0.36240  Biso   1.000  N
  H305     1.0000 0.59790  0.76980  0.35590  Biso   1.000  H
  Cu31     1.0000 0.19856  0.86244  0.33145  Biso   1.000  Cu
  Cu32     1.0000 0.14926  0.89676  0.37316  Biso   1.000  Cu
  O258     1.0000 0.24600  0.88150  0.35790  Biso   1.000  O
  O259     1.0000 0.35620  0.65260  0.18800  Biso   1.000  O
  O260     1.0000 0.33920  0.01320  0.46940  Biso   1.000  O
  O261     1.0000 0.39870  0.62450  0.15170  Biso   1.000  O
  O262     1.0000 0.20360  0.91250  0.39240  Biso   1.000  O
  C505     1.0000 0.23780  0.90330  0.37920  Biso   1.000  C
  O263     1.0000 0.55170  0.65190  0.15290  Biso   1.000  O
  O264     1.0000 0.84020  0.84620  0.39310  Biso   1.000  O
  O265     1.0000 0.74880  0.91070  0.46870  Biso   1.000  O
  O266     1.0000 0.26760  0.00230  0.47000  Biso   1.000  O
  C506     1.0000 0.39050  0.64550  0.17400  Biso   1.000  C
  O267     1.0000 0.58010  0.69650  0.18780  Biso   1.000  O
  O268     1.0000 0.67960  0.89980  0.46860  Biso   1.000  O
  C507     1.0000 0.80970  0.82930  0.37800  Biso   1.000  C
  C508     1.0000 0.55060  0.67560  0.17440  Biso   1.000  C
  C509     1.0000 0.30640  0.99680  0.46050  Biso   1.000  C
  O269     1.0000 0.38430  0.85210  0.36190  Biso   1.000  O
  C510     1.0000 0.27840  0.91790  0.39660  Biso   1.000  C
  C511     1.0000 0.71550  0.89450  0.45930  Biso   1.000  C
  C512     1.0000 0.43060  0.66340  0.19040  Biso   1.000  C
  C513     1.0000 0.76650  0.83420  0.39360  Biso   1.000  C
  C514     1.0000 0.30950  0.96380  0.43650  Biso   1.000  C
  C515     1.0000 0.68480  0.84760  0.42010  Biso   1.000  C
  H306     1.0000 0.65770  0.85300  0.42820  Biso   1.000  H
  O270     1.0000 0.24100  0.83490  0.29660  Biso   1.000  O
  H307     1.0000 0.23230  0.84200  0.28000  Biso   1.000  H
  N93      1.0000 0.46480  0.76550  0.29780  Biso   1.000  N
  H308     1.0000 0.43720  0.76700  0.29710  Biso   1.000  H
  C516     1.0000 0.27390  0.94620  0.42160  Biso   1.000  C
  H309     1.0000 0.24640  0.95310  0.42830  Biso   1.000  H
  C517     1.0000 0.42560  0.68430  0.21790  Biso   1.000  C
  H310     1.0000 0.39870  0.68550  0.22700  Biso   1.000  H
  O271     1.0000 0.52210  0.73890  0.27360  Biso   1.000  O
  C518     1.0000 0.34950  0.94800  0.42750  Biso   1.000  C
  H311     1.0000 0.37410  0.95890  0.43670  Biso   1.000  H
  C519     1.0000 0.76160  0.85840  0.41940  Biso   1.000  C
  H312     1.0000 0.78570  0.87110  0.42810  Biso   1.000  H
  N94      1.0000 0.39600  0.90320  0.40020  Biso   1.000  N
  H313     1.0000 0.41640  0.91500  0.41030  Biso   1.000  H
  C520     1.0000 0.73020  0.81550  0.38200  Biso   1.000  C
  H314     1.0000 0.73220  0.79760  0.36540  Biso   1.000  H
  C521     1.0000 0.47020  0.65910  0.17830  Biso   1.000  C
  H315     1.0000 0.47320  0.64200  0.16130  Biso   1.000  H
  N95      1.0000 0.45390  0.72890  0.25370  Biso   1.000  N
  H316     1.0000 0.42820  0.73900  0.25470  Biso   1.000  H
  C522     1.0000 0.46180  0.70390  0.23230  Biso   1.000  C
  O272     1.0000 0.10940  0.92510  0.40890  Biso   1.000  O
  H317     1.0000 0.12040  0.94760  0.41460  Biso   1.000  H
  C523     1.0000 0.68890  0.82360  0.39550  Biso   1.000  C
  C524     1.0000 0.31820  0.90340  0.39060  Biso   1.000  C
  H318     1.0000 0.32200  0.88300  0.37550  Biso   1.000  H
  C525     1.0000 0.50230  0.69950  0.21920  Biso   1.000  C
  H319     1.0000 0.52660  0.71000  0.22890  Biso   1.000  H
  C526     1.0000 0.48340  0.74240  0.27680  Biso   1.000  C
  C527     1.0000 0.40850  0.87160  0.37980  Biso   1.000  C
  C528     1.0000 0.35410  0.91830  0.40660  Biso   1.000  C
  N96      1.0000 0.45220  0.86600  0.38280  Biso   1.000  N
  H320     1.0000 0.46640  0.88230  0.39480  Biso   1.000  H
  Cu33     1.0000 0.54447  0.24750  0.00000  Biso   1.000  Cu
  Cu34     1.0000 0.55850  0.16367  0.00000  Biso   1.000  Cu
  Cu35     1.0000 0.04447  0.74750  0.50000  Biso   1.000  Cu
  Cu36     1.0000 0.05850  0.66367  0.50000  Biso   1.000  Cu
  Cu37     1.0000 0.45553  0.75250  0.00000  Biso   1.000  Cu
  Cu38     1.0000 0.44150  0.83633  0.00000  Biso   1.000  Cu
  Cu39     1.0000 0.95553  0.25250  0.50000  Biso   1.000  Cu
  Cu40     1.0000 0.94150  0.33633  0.50000  Biso   1.000  Cu
  Cu41     1.0000 0.75250  0.54447  0.00000  Biso   1.000  Cu
  Cu42     1.0000 0.83633  0.55850  0.00000  Biso   1.000  Cu
  Cu43     1.0000 0.25250  0.04447  0.50000  Biso   1.000  Cu
  Cu44     1.0000 0.33633  0.05850  0.50000  Biso   1.000  Cu
  Cu45     1.0000 0.24750  0.45553  0.00000  Biso   1.000  Cu
  Cu46     1.0000 0.16367  0.44150  0.00000  Biso   1.000  Cu
  Cu47     1.0000 0.74750  0.95553  0.50000  Biso   1.000  Cu
  Cu48     1.0000 0.66367  0.94150  0.50000  Biso   1.000  Cu
