data_image0
_cell_length_a       29.923
_cell_length_b       29.923
_cell_length_c       37.639
_cell_angle_alpha    90
_cell_angle_beta     90
_cell_angle_gamma    120

_symmetry_space_group_name_H-M    "P 1"
_symmetry_int_tables_number       1

loop_
  _symmetry_equiv_pos_as_xyz
  'x, y, z'

loop_
  _atom_site_label
  _atom_site_occupancy
  _atom_site_fract_x
  _atom_site_fract_y
  _atom_site_fract_z
  _atom_site_thermal_displace_type
  _atom_site_B_iso_or_equiv
  _atom_site_type_symbol
  Zn1      1.0000 0.63120  0.26318  0.31519  Biso   1.000  Zn
  O1       1.0000 0.74070  0.28540  0.31630  Biso   1.000  O
  O2       1.0000 0.75750  0.32120  0.29470  Biso   1.000  O
  O3       1.0000 0.68470  0.27430  0.27420  Biso   1.000  O
  O4       1.0000 0.89960  0.34560  0.11650  Biso   1.000  O
  O5       1.0000 0.93790  0.30620  0.07710  Biso   1.000  O
  C1       1.0000 0.72330  0.27800  0.28130  Biso   1.000  C
  C2       1.0000 0.74680  0.25430  0.25770  Biso   1.000  C
  C3       1.0000 0.72480  0.23460  0.22700  Biso   1.000  C
  H1       1.0000 0.69440  0.23380  0.22050  Biso   1.000  H
  C4       1.0000 0.74720  0.21490  0.20420  Biso   1.000  C
  H2       1.0000 0.73210  0.20230  0.18220  Biso   1.000  H
  C5       1.0000 0.79110  0.21320  0.21310  Biso   1.000  C
  C6       1.0000 0.81490  0.23740  0.24460  Biso   1.000  C
  H3       1.0000 0.84560  0.23890  0.25120  Biso   1.000  H
  C7       1.0000 0.79430  0.25870  0.26570  Biso   1.000  C
  H4       1.0000 0.81200  0.27660  0.28590  Biso   1.000  H
  C8       1.0000 0.81230  0.18900  0.18930  Biso   1.000  C
  C9       1.0000 0.80170  0.13800  0.19590  Biso   1.000  C
  C10      1.0000 0.84480  0.21800  0.16050  Biso   1.000  C
  C11      1.0000 0.85630  0.26870  0.15380  Biso   1.000  C
  H5       1.0000 0.84320  0.28360  0.16920  Biso   1.000  H
  C12      1.0000 0.88640  0.29810  0.12520  Biso   1.000  C
  C13      1.0000 0.87580  0.36990  0.13660  Biso   1.000  C
  H6       1.0000 0.88270  0.40130  0.12500  Biso   1.000  H
  H7       1.0000 0.88980  0.37750  0.16020  Biso   1.000  H
  H8       1.0000 0.83920  0.34680  0.13780  Biso   1.000  H
  C14      1.0000 0.90880  0.27400  0.10290  Biso   1.000  C
  C15      1.0000 0.89790  0.22640  0.10890  Biso   1.000  C
  H9       1.0000 0.91220  0.21210  0.09400  Biso   1.000  H
  C16      1.0000 0.95890  0.28510  0.05150  Biso   1.000  C
  H10      1.0000 0.97540  0.30940  0.03250  Biso   1.000  H
  H11      1.0000 0.93140  0.25350  0.04190  Biso   1.000  H
  H12      1.0000 0.98360  0.27840  0.06300  Biso   1.000  H
  Zn2      1.0000 0.29787  0.59651  0.64852  Biso   1.000  Zn
  O6       1.0000 0.40737  0.61873  0.64963  Biso   1.000  O
  O7       1.0000 0.42417  0.65453  0.62803  Biso   1.000  O
  O8       1.0000 0.35137  0.60763  0.60753  Biso   1.000  O
  O9       1.0000 0.56627  0.67893  0.44983  Biso   1.000  O
  O10      1.0000 0.60457  0.63953  0.41043  Biso   1.000  O
  C17      1.0000 0.38997  0.61133  0.61463  Biso   1.000  C
  C18      1.0000 0.41347  0.58763  0.59103  Biso   1.000  C
  C19      1.0000 0.39147  0.56793  0.56033  Biso   1.000  C
  H13      1.0000 0.36107  0.56713  0.55383  Biso   1.000  H
  C20      1.0000 0.41387  0.54823  0.53753  Biso   1.000  C
  H14      1.0000 0.39877  0.53563  0.51553  Biso   1.000  H
  C21      1.0000 0.45777  0.54653  0.54643  Biso   1.000  C
  C22      1.0000 0.48157  0.57073  0.57793  Biso   1.000  C
  H15      1.0000 0.51227  0.57223  0.58453  Biso   1.000  H
  C23      1.0000 0.46097  0.59203  0.59903  Biso   1.000  C
  H16      1.0000 0.47867  0.60993  0.61923  Biso   1.000  H
  C24      1.0000 0.47897  0.52233  0.52263  Biso   1.000  C
  C25      1.0000 0.46837  0.47133  0.52923  Biso   1.000  C
  C26      1.0000 0.51147  0.55133  0.49383  Biso   1.000  C
  C27      1.0000 0.52297  0.60203  0.48713  Biso   1.000  C
  H17      1.0000 0.50987  0.61693  0.50253  Biso   1.000  H
  C28      1.0000 0.55307  0.63143  0.45853  Biso   1.000  C
  C29      1.0000 0.54247  0.70323  0.46993  Biso   1.000  C
  H18      1.0000 0.54937  0.73463  0.45833  Biso   1.000  H
  H19      1.0000 0.55647  0.71083  0.49353  Biso   1.000  H
  H20      1.0000 0.50587  0.68013  0.47113  Biso   1.000  H
  C30      1.0000 0.57547  0.60733  0.43623  Biso   1.000  C
  C31      1.0000 0.56457  0.55973  0.44223  Biso   1.000  C
  H21      1.0000 0.57887  0.54543  0.42733  Biso   1.000  H
  C32      1.0000 0.62557  0.61843  0.38483  Biso   1.000  C
  H22      1.0000 0.64207  0.64273  0.36583  Biso   1.000  H
  H23      1.0000 0.59807  0.58683  0.37523  Biso   1.000  H
  H24      1.0000 0.65027  0.61173  0.39633  Biso   1.000  H
  Zn3      1.0000 0.96453  0.92985  0.98186  Biso   1.000  Zn
  O11      1.0000 0.07403  0.95207  0.98297  Biso   1.000  O
  O12      1.0000 0.09083  0.98787  0.96137  Biso   1.000  O
  O13      1.0000 0.01803  0.94097  0.94087  Biso   1.000  O
  O14      1.0000 0.23293  0.01227  0.78317  Biso   1.000  O
  O15      1.0000 0.27123  0.97287  0.74377  Biso   1.000  O
  C33      1.0000 0.05663  0.94467  0.94797  Biso   1.000  C
  C34      1.0000 0.08013  0.92097  0.92437  Biso   1.000  C
  C35      1.0000 0.05813  0.90127  0.89367  Biso   1.000  C
  H25      1.0000 0.02773  0.90047  0.88717  Biso   1.000  H
  C36      1.0000 0.08053  0.88157  0.87087  Biso   1.000  C
  H26      1.0000 0.06543  0.86897  0.84887  Biso   1.000  H
  C37      1.0000 0.12443  0.87987  0.87977  Biso   1.000  C
  C38      1.0000 0.14823  0.90407  0.91127  Biso   1.000  C
  H27      1.0000 0.17893  0.90557  0.91787  Biso   1.000  H
  C39      1.0000 0.12763  0.92537  0.93237  Biso   1.000  C
  H28      1.0000 0.14533  0.94327  0.95257  Biso   1.000  H
  C40      1.0000 0.14563  0.85567  0.85597  Biso   1.000  C
  C41      1.0000 0.13503  0.80467  0.86257  Biso   1.000  C
  C42      1.0000 0.17813  0.88467  0.82717  Biso   1.000  C
  C43      1.0000 0.18963  0.93537  0.82047  Biso   1.000  C
  H29      1.0000 0.17653  0.95027  0.83587  Biso   1.000  H
  C44      1.0000 0.21973  0.96477  0.79187  Biso   1.000  C
  C45      1.0000 0.20913  0.03657  0.80327  Biso   1.000  C
  H30      1.0000 0.21603  0.06797  0.79167  Biso   1.000  H
  H31      1.0000 0.22313  0.04417  0.82687  Biso   1.000  H
  H32      1.0000 0.17253  0.01347  0.80447  Biso   1.000  H
  C46      1.0000 0.24213  0.94067  0.76957  Biso   1.000  C
  C47      1.0000 0.23123  0.89307  0.77557  Biso   1.000  C
  H33      1.0000 0.24553  0.87877  0.76067  Biso   1.000  H
  C48      1.0000 0.29223  0.95177  0.71817  Biso   1.000  C
  H34      1.0000 0.30873  0.97607  0.69917  Biso   1.000  H
  H35      1.0000 0.26473  0.92017  0.70857  Biso   1.000  H
  H36      1.0000 0.31693  0.94507  0.72967  Biso   1.000  H
  Zn4      1.0000 0.73682  0.36802  0.31519  Biso   1.000  Zn
  O16      1.0000 0.71460  0.45530  0.31630  Biso   1.000  O
  O17      1.0000 0.67880  0.43630  0.29470  Biso   1.000  O
  O18      1.0000 0.72570  0.41040  0.27420  Biso   1.000  O
  O19      1.0000 0.65440  0.55400  0.11650  Biso   1.000  O
  O20      1.0000 0.69380  0.63170  0.07710  Biso   1.000  O
  C49      1.0000 0.72200  0.44530  0.28130  Biso   1.000  C
  C50      1.0000 0.74570  0.49250  0.25770  Biso   1.000  C
  C51      1.0000 0.76540  0.49020  0.22700  Biso   1.000  C
  H37      1.0000 0.76620  0.46060  0.22050  Biso   1.000  H
  C52      1.0000 0.78510  0.53230  0.20420  Biso   1.000  C
  H38      1.0000 0.79770  0.52980  0.18220  Biso   1.000  H
  C53      1.0000 0.78680  0.57790  0.21310  Biso   1.000  C
  C54      1.0000 0.76260  0.57750  0.24460  Biso   1.000  C
  H39      1.0000 0.76110  0.60670  0.25120  Biso   1.000  H
  C55      1.0000 0.74130  0.53560  0.26570  Biso   1.000  C
  H40      1.0000 0.72340  0.53540  0.28590  Biso   1.000  H
  C56      1.0000 0.81100  0.62330  0.18930  Biso   1.000  C
  C57      1.0000 0.86200  0.66370  0.19590  Biso   1.000  C
  C58      1.0000 0.78200  0.62680  0.16050  Biso   1.000  C
  C59      1.0000 0.73130  0.58760  0.15380  Biso   1.000  C
  H41      1.0000 0.71640  0.55960  0.16920  Biso   1.000  H
  C60      1.0000 0.70190  0.58830  0.12520  Biso   1.000  C
  C61      1.0000 0.63010  0.50590  0.13660  Biso   1.000  C
  H42      1.0000 0.59870  0.48140  0.12500  Biso   1.000  H
  H43      1.0000 0.62250  0.51230  0.16020  Biso   1.000  H
  H44      1.0000 0.65320  0.49240  0.13780  Biso   1.000  H
  C62      1.0000 0.72600  0.63480  0.10290  Biso   1.000  C
  C63      1.0000 0.77360  0.67150  0.10890  Biso   1.000  C
  H45      1.0000 0.78790  0.70010  0.09400  Biso   1.000  H
  C64      1.0000 0.71490  0.67380  0.05150  Biso   1.000  C
  H46      1.0000 0.69060  0.66600  0.03250  Biso   1.000  H
  H47      1.0000 0.74650  0.67790  0.04190  Biso   1.000  H
  H48      1.0000 0.72160  0.70520  0.06300  Biso   1.000  H
  Zn5      1.0000 0.40349  0.70135  0.64852  Biso   1.000  Zn
  O21      1.0000 0.38127  0.78863  0.64963  Biso   1.000  O
  O22      1.0000 0.34547  0.76963  0.62803  Biso   1.000  O
  O23      1.0000 0.39237  0.74373  0.60753  Biso   1.000  O
  O24      1.0000 0.32107  0.88733  0.44983  Biso   1.000  O
  O25      1.0000 0.36047  0.96503  0.41043  Biso   1.000  O
  C65      1.0000 0.38867  0.77863  0.61463  Biso   1.000  C
  C66      1.0000 0.41237  0.82583  0.59103  Biso   1.000  C
  C67      1.0000 0.43207  0.82353  0.56033  Biso   1.000  C
  H49      1.0000 0.43287  0.79393  0.55383  Biso   1.000  H
  C68      1.0000 0.45177  0.86563  0.53753  Biso   1.000  C
  H50      1.0000 0.46437  0.86313  0.51553  Biso   1.000  H
  C69      1.0000 0.45347  0.91123  0.54643  Biso   1.000  C
  C70      1.0000 0.42927  0.91083  0.57793  Biso   1.000  C
  H51      1.0000 0.42777  0.94003  0.58453  Biso   1.000  H
  C71      1.0000 0.40797  0.86893  0.59903  Biso   1.000  C
  H52      1.0000 0.39007  0.86873  0.61923  Biso   1.000  H
  C72      1.0000 0.47767  0.95663  0.52263  Biso   1.000  C
  C73      1.0000 0.52867  0.99703  0.52923  Biso   1.000  C
  C74      1.0000 0.44867  0.96013  0.49383  Biso   1.000  C
  C75      1.0000 0.39797  0.92093  0.48713  Biso   1.000  C
  H53      1.0000 0.38307  0.89293  0.50253  Biso   1.000  H
  C76      1.0000 0.36857  0.92163  0.45853  Biso   1.000  C
  C77      1.0000 0.29677  0.83923  0.46993  Biso   1.000  C
  H54      1.0000 0.26537  0.81473  0.45833  Biso   1.000  H
  H55      1.0000 0.28917  0.84563  0.49353  Biso   1.000  H
  H56      1.0000 0.31987  0.82573  0.47113  Biso   1.000  H
  C78      1.0000 0.39267  0.96813  0.43623  Biso   1.000  C
  C79      1.0000 0.44027  0.00483  0.44223  Biso   1.000  C
  H57      1.0000 0.45457  0.03343  0.42733  Biso   1.000  H
  C80      1.0000 0.38157  0.00713  0.38483  Biso   1.000  C
  H58      1.0000 0.35727  0.99933  0.36583  Biso   1.000  H
  H59      1.0000 0.41317  0.01123  0.37523  Biso   1.000  H
  H60      1.0000 0.38827  0.03853  0.39633  Biso   1.000  H
  Zn6      1.0000 0.07015  0.03469  0.98186  Biso   1.000  Zn
  O26      1.0000 0.04793  0.12197  0.98297  Biso   1.000  O
  O27      1.0000 0.01213  0.10297  0.96137  Biso   1.000  O
  O28      1.0000 0.05903  0.07707  0.94087  Biso   1.000  O
  O29      1.0000 0.98773  0.22067  0.78317  Biso   1.000  O
  O30      1.0000 0.02713  0.29837  0.74377  Biso   1.000  O
  C81      1.0000 0.05533  0.11197  0.94797  Biso   1.000  C
  C82      1.0000 0.07903  0.15917  0.92437  Biso   1.000  C
  C83      1.0000 0.09873  0.15687  0.89367  Biso   1.000  C
  H61      1.0000 0.09953  0.12727  0.88717  Biso   1.000  H
  C84      1.0000 0.11843  0.19897  0.87087  Biso   1.000  C
  H62      1.0000 0.13103  0.19647  0.84887  Biso   1.000  H
  C85      1.0000 0.12013  0.24457  0.87977  Biso   1.000  C
  C86      1.0000 0.09593  0.24417  0.91127  Biso   1.000  C
  H63      1.0000 0.09443  0.27337  0.91787  Biso   1.000  H
  C87      1.0000 0.07463  0.20227  0.93237  Biso   1.000  C
  H64      1.0000 0.05673  0.20207  0.95257  Biso   1.000  H
  C88      1.0000 0.14433  0.28997  0.85597  Biso   1.000  C
  C89      1.0000 0.19533  0.33037  0.86257  Biso   1.000  C
  C90      1.0000 0.11533  0.29347  0.82717  Biso   1.000  C
  C91      1.0000 0.06463  0.25427  0.82047  Biso   1.000  C
  H65      1.0000 0.04973  0.22627  0.83587  Biso   1.000  H
  C92      1.0000 0.03523  0.25497  0.79187  Biso   1.000  C
  C93      1.0000 0.96343  0.17257  0.80327  Biso   1.000  C
  H66      1.0000 0.93203  0.14807  0.79167  Biso   1.000  H
  H67      1.0000 0.95583  0.17897  0.82687  Biso   1.000  H
  H68      1.0000 0.98653  0.15907  0.80447  Biso   1.000  H
  C94      1.0000 0.05933  0.30147  0.76957  Biso   1.000  C
  C95      1.0000 0.10693  0.33817  0.77557  Biso   1.000  C
  H69      1.0000 0.12123  0.36677  0.76067  Biso   1.000  H
  C96      1.0000 0.04823  0.34047  0.71817  Biso   1.000  C
  H70      1.0000 0.02393  0.33267  0.69917  Biso   1.000  H
  H71      1.0000 0.07983  0.34457  0.70857  Biso   1.000  H
  H72      1.0000 0.05493  0.37187  0.72967  Biso   1.000  H
  Zn7      1.0000 0.63198  0.36880  0.31519  Biso   1.000  Zn
  O31      1.0000 0.54470  0.25930  0.31630  Biso   1.000  O
  O32      1.0000 0.56370  0.24250  0.29470  Biso   1.000  O
  O33      1.0000 0.58960  0.31530  0.27420  Biso   1.000  O
  O34      1.0000 0.44600  0.10040  0.11650  Biso   1.000  O
  O35      1.0000 0.36830  0.06210  0.07710  Biso   1.000  O
  C97      1.0000 0.55470  0.27670  0.28130  Biso   1.000  C
  C98      1.0000 0.50750  0.25320  0.25770  Biso   1.000  C
  C99      1.0000 0.50980  0.27520  0.22700  Biso   1.000  C
  H73      1.0000 0.53940  0.30560  0.22050  Biso   1.000  H
  C100     1.0000 0.46770  0.25280  0.20420  Biso   1.000  C
  H74      1.0000 0.47020  0.26790  0.18220  Biso   1.000  H
  C101     1.0000 0.42210  0.20890  0.21310  Biso   1.000  C
  C102     1.0000 0.42250  0.18510  0.24460  Biso   1.000  C
  H75      1.0000 0.39330  0.15440  0.25120  Biso   1.000  H
  C103     1.0000 0.46440  0.20570  0.26570  Biso   1.000  C
  H76      1.0000 0.46460  0.18800  0.28590  Biso   1.000  H
  C104     1.0000 0.37670  0.18770  0.18930  Biso   1.000  C
  C105     1.0000 0.33630  0.19830  0.19590  Biso   1.000  C
  C106     1.0000 0.37320  0.15520  0.16050  Biso   1.000  C
  C107     1.0000 0.41240  0.14370  0.15380  Biso   1.000  C
  H77      1.0000 0.44040  0.15680  0.16920  Biso   1.000  H
  C108     1.0000 0.41170  0.11360  0.12520  Biso   1.000  C
  C109     1.0000 0.49410  0.12420  0.13660  Biso   1.000  C
  H78      1.0000 0.51860  0.11730  0.12500  Biso   1.000  H
  H79      1.0000 0.48770  0.11020  0.16020  Biso   1.000  H
  H80      1.0000 0.50760  0.16080  0.13780  Biso   1.000  H
  C110     1.0000 0.36520  0.09120  0.10290  Biso   1.000  C
  C111     1.0000 0.32850  0.10210  0.10890  Biso   1.000  C
  H81      1.0000 0.29990  0.08780  0.09400  Biso   1.000  H
  C112     1.0000 0.32620  0.04110  0.05150  Biso   1.000  C
  H82      1.0000 0.33400  0.02460  0.03250  Biso   1.000  H
  H83      1.0000 0.32210  0.06860  0.04190  Biso   1.000  H
  H84      1.0000 0.29480  0.01640  0.06300  Biso   1.000  H
  Zn8      1.0000 0.29865  0.70213  0.64852  Biso   1.000  Zn
  O36      1.0000 0.21137  0.59263  0.64963  Biso   1.000  O
  O37      1.0000 0.23037  0.57583  0.62803  Biso   1.000  O
  O38      1.0000 0.25627  0.64863  0.60753  Biso   1.000  O
  O39      1.0000 0.11267  0.43373  0.44983  Biso   1.000  O
  O40      1.0000 0.03497  0.39543  0.41043  Biso   1.000  O
  C113     1.0000 0.22137  0.61003  0.61463  Biso   1.000  C
  C114     1.0000 0.17417  0.58653  0.59103  Biso   1.000  C
  C115     1.0000 0.17647  0.60853  0.56033  Biso   1.000  C
  H85      1.0000 0.20607  0.63893  0.55383  Biso   1.000  H
  C116     1.0000 0.13437  0.58613  0.53753  Biso   1.000  C
  H86      1.0000 0.13687  0.60123  0.51553  Biso   1.000  H
  C117     1.0000 0.08877  0.54223  0.54643  Biso   1.000  C
  C118     1.0000 0.08917  0.51843  0.57793  Biso   1.000  C
  H87      1.0000 0.05997  0.48773  0.58453  Biso   1.000  H
  C119     1.0000 0.13107  0.53903  0.59903  Biso   1.000  C
  H88      1.0000 0.13127  0.52133  0.61923  Biso   1.000  H
  C120     1.0000 0.04337  0.52103  0.52263  Biso   1.000  C
  C121     1.0000 0.00297  0.53163  0.52923  Biso   1.000  C
  C122     1.0000 0.03987  0.48853  0.49383  Biso   1.000  C
  C123     1.0000 0.07907  0.47703  0.48713  Biso   1.000  C
  H89      1.0000 0.10707  0.49013  0.50253  Biso   1.000  H
  C124     1.0000 0.07837  0.44693  0.45853  Biso   1.000  C
  C125     1.0000 0.16077  0.45753  0.46993  Biso   1.000  C
  H90      1.0000 0.18527  0.45063  0.45833  Biso   1.000  H
  H91      1.0000 0.15437  0.44353  0.49353  Biso   1.000  H
  H92      1.0000 0.17427  0.49413  0.47113  Biso   1.000  H
  C126     1.0000 0.03187  0.42453  0.43623  Biso   1.000  C
  C127     1.0000 0.99517  0.43543  0.44223  Biso   1.000  C
  H93      1.0000 0.96657  0.42113  0.42733  Biso   1.000  H
  C128     1.0000 0.99287  0.37443  0.38483  Biso   1.000  C
  H94      1.0000 0.00067  0.35793  0.36583  Biso   1.000  H
  H95      1.0000 0.98877  0.40193  0.37523  Biso   1.000  H
  H96      1.0000 0.96147  0.34973  0.39633  Biso   1.000  H
  Zn9      1.0000 0.96531  0.03547  0.98186  Biso   1.000  Zn
  O41      1.0000 0.87803  0.92597  0.98297  Biso   1.000  O
  O42      1.0000 0.89703  0.90917  0.96137  Biso   1.000  O
  O43      1.0000 0.92293  0.98197  0.94087  Biso   1.000  O
  O44      1.0000 0.77933  0.76707  0.78317  Biso   1.000  O
  O45      1.0000 0.70163  0.72877  0.74377  Biso   1.000  O
  C129     1.0000 0.88803  0.94337  0.94797  Biso   1.000  C
  C130     1.0000 0.84083  0.91987  0.92437  Biso   1.000  C
  C131     1.0000 0.84313  0.94187  0.89367  Biso   1.000  C
  H97      1.0000 0.87273  0.97227  0.88717  Biso   1.000  H
  C132     1.0000 0.80103  0.91947  0.87087  Biso   1.000  C
  H98      1.0000 0.80353  0.93457  0.84887  Biso   1.000  H
  C133     1.0000 0.75543  0.87557  0.87977  Biso   1.000  C
  C134     1.0000 0.75583  0.85177  0.91127  Biso   1.000  C
  H99      1.0000 0.72663  0.82107  0.91787  Biso   1.000  H
  C135     1.0000 0.79773  0.87237  0.93237  Biso   1.000  C
  H100     1.0000 0.79793  0.85467  0.95257  Biso   1.000  H
  C136     1.0000 0.71003  0.85437  0.85597  Biso   1.000  C
  C137     1.0000 0.66963  0.86497  0.86257  Biso   1.000  C
  C138     1.0000 0.70653  0.82187  0.82717  Biso   1.000  C
  C139     1.0000 0.74573  0.81037  0.82047  Biso   1.000  C
  H101     1.0000 0.77373  0.82347  0.83587  Biso   1.000  H
  C140     1.0000 0.74503  0.78027  0.79187  Biso   1.000  C
  C141     1.0000 0.82743  0.79087  0.80327  Biso   1.000  C
  H102     1.0000 0.85193  0.78397  0.79167  Biso   1.000  H
  H103     1.0000 0.82103  0.77687  0.82687  Biso   1.000  H
  H104     1.0000 0.84093  0.82747  0.80447  Biso   1.000  H
  C142     1.0000 0.69853  0.75787  0.76957  Biso   1.000  C
  C143     1.0000 0.66183  0.76877  0.77557  Biso   1.000  C
  H105     1.0000 0.63323  0.75447  0.76067  Biso   1.000  H
  C144     1.0000 0.65953  0.70777  0.71817  Biso   1.000  C
  H106     1.0000 0.66733  0.69127  0.69917  Biso   1.000  H
  H107     1.0000 0.65543  0.73527  0.70857  Biso   1.000  H
  H108     1.0000 0.62813  0.68307  0.72967  Biso   1.000  H
  Zn10     1.0000 0.36880  0.73682  0.68481  Biso   1.000  Zn
  O46      1.0000 0.25930  0.71460  0.68370  Biso   1.000  O
  O47      1.0000 0.24250  0.67880  0.70530  Biso   1.000  O
  O48      1.0000 0.31530  0.72570  0.72580  Biso   1.000  O
  O49      1.0000 0.10040  0.65440  0.88350  Biso   1.000  O
  O50      1.0000 0.06210  0.69380  0.92290  Biso   1.000  O
  C145     1.0000 0.27670  0.72200  0.71870  Biso   1.000  C
  C146     1.0000 0.25320  0.74570  0.74230  Biso   1.000  C
  C147     1.0000 0.27520  0.76540  0.77300  Biso   1.000  C
  H109     1.0000 0.30560  0.76620  0.77950  Biso   1.000  H
  C148     1.0000 0.25280  0.78510  0.79580  Biso   1.000  C
  H110     1.0000 0.26790  0.79770  0.81780  Biso   1.000  H
  C149     1.0000 0.20890  0.78680  0.78690  Biso   1.000  C
  C150     1.0000 0.18510  0.76260  0.75540  Biso   1.000  C
  H111     1.0000 0.15440  0.76110  0.74880  Biso   1.000  H
  C151     1.0000 0.20570  0.74130  0.73430  Biso   1.000  C
  H112     1.0000 0.18800  0.72340  0.71410  Biso   1.000  H
  C152     1.0000 0.18770  0.81100  0.81070  Biso   1.000  C
  C153     1.0000 0.19830  0.86200  0.80410  Biso   1.000  C
  C154     1.0000 0.15520  0.78200  0.83950  Biso   1.000  C
  C155     1.0000 0.14370  0.73130  0.84620  Biso   1.000  C
  H113     1.0000 0.15680  0.71640  0.83080  Biso   1.000  H
  C156     1.0000 0.11360  0.70190  0.87480  Biso   1.000  C
  C157     1.0000 0.12420  0.63010  0.86340  Biso   1.000  C
  H114     1.0000 0.11730  0.59870  0.87500  Biso   1.000  H
  H115     1.0000 0.11020  0.62250  0.83980  Biso   1.000  H
  H116     1.0000 0.16080  0.65320  0.86220  Biso   1.000  H
  C158     1.0000 0.09120  0.72600  0.89710  Biso   1.000  C
  C159     1.0000 0.10210  0.77360  0.89110  Biso   1.000  C
  H117     1.0000 0.08780  0.78790  0.90600  Biso   1.000  H
  C160     1.0000 0.04110  0.71490  0.94850  Biso   1.000  C
  H118     1.0000 0.02460  0.69060  0.96750  Biso   1.000  H
  H119     1.0000 0.06860  0.74650  0.95810  Biso   1.000  H
  H120     1.0000 0.01640  0.72160  0.93700  Biso   1.000  H
  Zn11     1.0000 0.03547  0.07015  0.01814  Biso   1.000  Zn
  O51      1.0000 0.92597  0.04793  0.01703  Biso   1.000  O
  O52      1.0000 0.90917  0.01213  0.03863  Biso   1.000  O
  O53      1.0000 0.98197  0.05903  0.05913  Biso   1.000  O
  O54      1.0000 0.76707  0.98773  0.21683  Biso   1.000  O
  O55      1.0000 0.72877  0.02713  0.25623  Biso   1.000  O
  C161     1.0000 0.94337  0.05533  0.05203  Biso   1.000  C
  C162     1.0000 0.91987  0.07903  0.07563  Biso   1.000  C
  C163     1.0000 0.94187  0.09873  0.10633  Biso   1.000  C
  H121     1.0000 0.97227  0.09953  0.11283  Biso   1.000  H
  C164     1.0000 0.91947  0.11843  0.12913  Biso   1.000  C
  H122     1.0000 0.93457  0.13103  0.15113  Biso   1.000  H
  C165     1.0000 0.87557  0.12013  0.12023  Biso   1.000  C
  C166     1.0000 0.85177  0.09593  0.08873  Biso   1.000  C
  H123     1.0000 0.82107  0.09443  0.08213  Biso   1.000  H
  C167     1.0000 0.87237  0.07463  0.06763  Biso   1.000  C
  H124     1.0000 0.85467  0.05673  0.04743  Biso   1.000  H
  C168     1.0000 0.85437  0.14433  0.14403  Biso   1.000  C
  C169     1.0000 0.86497  0.19533  0.13743  Biso   1.000  C
  C170     1.0000 0.82187  0.11533  0.17283  Biso   1.000  C
  C171     1.0000 0.81037  0.06463  0.17953  Biso   1.000  C
  H125     1.0000 0.82347  0.04973  0.16413  Biso   1.000  H
  C172     1.0000 0.78027  0.03523  0.20813  Biso   1.000  C
  C173     1.0000 0.79087  0.96343  0.19673  Biso   1.000  C
  H126     1.0000 0.78397  0.93203  0.20833  Biso   1.000  H
  H127     1.0000 0.77687  0.95583  0.17313  Biso   1.000  H
  H128     1.0000 0.82747  0.98653  0.19553  Biso   1.000  H
  C174     1.0000 0.75787  0.05933  0.23043  Biso   1.000  C
  C175     1.0000 0.76877  0.10693  0.22443  Biso   1.000  C
  H129     1.0000 0.75447  0.12123  0.23933  Biso   1.000  H
  C176     1.0000 0.70777  0.04823  0.28183  Biso   1.000  C
  H130     1.0000 0.69127  0.02393  0.30083  Biso   1.000  H
  H131     1.0000 0.73527  0.07983  0.29143  Biso   1.000  H
  H132     1.0000 0.68307  0.05493  0.27033  Biso   1.000  H
  Zn12     1.0000 0.70213  0.40349  0.35148  Biso   1.000  Zn
  O56      1.0000 0.59263  0.38127  0.35037  Biso   1.000  O
  O57      1.0000 0.57583  0.34547  0.37197  Biso   1.000  O
  O58      1.0000 0.64863  0.39237  0.39247  Biso   1.000  O
  O59      1.0000 0.43373  0.32107  0.55017  Biso   1.000  O
  O60      1.0000 0.39543  0.36047  0.58957  Biso   1.000  O
  C177     1.0000 0.61003  0.38867  0.38537  Biso   1.000  C
  C178     1.0000 0.58653  0.41237  0.40897  Biso   1.000  C
  C179     1.0000 0.60853  0.43207  0.43967  Biso   1.000  C
  H133     1.0000 0.63893  0.43287  0.44617  Biso   1.000  H
  C180     1.0000 0.58613  0.45177  0.46247  Biso   1.000  C
  H134     1.0000 0.60123  0.46437  0.48447  Biso   1.000  H
  C181     1.0000 0.54223  0.45347  0.45357  Biso   1.000  C
  C182     1.0000 0.51843  0.42927  0.42207  Biso   1.000  C
  H135     1.0000 0.48773  0.42777  0.41547  Biso   1.000  H
  C183     1.0000 0.53903  0.40797  0.40097  Biso   1.000  C
  H136     1.0000 0.52133  0.39007  0.38077  Biso   1.000  H
  C184     1.0000 0.52103  0.47767  0.47737  Biso   1.000  C
  C185     1.0000 0.53163  0.52867  0.47077  Biso   1.000  C
  C186     1.0000 0.48853  0.44867  0.50617  Biso   1.000  C
  C187     1.0000 0.47703  0.39797  0.51287  Biso   1.000  C
  H137     1.0000 0.49013  0.38307  0.49747  Biso   1.000  H
  C188     1.0000 0.44693  0.36857  0.54147  Biso   1.000  C
  C189     1.0000 0.45753  0.29677  0.53007  Biso   1.000  C
  H138     1.0000 0.45063  0.26537  0.54167  Biso   1.000  H
  H139     1.0000 0.44353  0.28917  0.50647  Biso   1.000  H
  H140     1.0000 0.49413  0.31987  0.52887  Biso   1.000  H
  C190     1.0000 0.42453  0.39267  0.56377  Biso   1.000  C
  C191     1.0000 0.43543  0.44027  0.55777  Biso   1.000  C
  H141     1.0000 0.42113  0.45457  0.57267  Biso   1.000  H
  C192     1.0000 0.37443  0.38157  0.61517  Biso   1.000  C
  H142     1.0000 0.35793  0.35727  0.63417  Biso   1.000  H
  H143     1.0000 0.40193  0.41317  0.62477  Biso   1.000  H
  H144     1.0000 0.34973  0.38827  0.60367  Biso   1.000  H
  Zn13     1.0000 0.26318  0.63198  0.68481  Biso   1.000  Zn
  O61      1.0000 0.28540  0.54470  0.68370  Biso   1.000  O
  O62      1.0000 0.32120  0.56370  0.70530  Biso   1.000  O
  O63      1.0000 0.27430  0.58960  0.72580  Biso   1.000  O
  O64      1.0000 0.34560  0.44600  0.88350  Biso   1.000  O
  O65      1.0000 0.30620  0.36830  0.92290  Biso   1.000  O
  C193     1.0000 0.27800  0.55470  0.71870  Biso   1.000  C
  C194     1.0000 0.25430  0.50750  0.74230  Biso   1.000  C
  C195     1.0000 0.23460  0.50980  0.77300  Biso   1.000  C
  H145     1.0000 0.23380  0.53940  0.77950  Biso   1.000  H
  C196     1.0000 0.21490  0.46770  0.79580  Biso   1.000  C
  H146     1.0000 0.20230  0.47020  0.81780  Biso   1.000  H
  C197     1.0000 0.21320  0.42210  0.78690  Biso   1.000  C
  C198     1.0000 0.23740  0.42250  0.75540  Biso   1.000  C
  H147     1.0000 0.23890  0.39330  0.74880  Biso   1.000  H
  C199     1.0000 0.25870  0.46440  0.73430  Biso   1.000  C
  H148     1.0000 0.27660  0.46460  0.71410  Biso   1.000  H
  C200     1.0000 0.18900  0.37670  0.81070  Biso   1.000  C
  C201     1.0000 0.13800  0.33630  0.80410  Biso   1.000  C
  C202     1.0000 0.21800  0.37320  0.83950  Biso   1.000  C
  C203     1.0000 0.26870  0.41240  0.84620  Biso   1.000  C
  H149     1.0000 0.28360  0.44040  0.83080  Biso   1.000  H
  C204     1.0000 0.29810  0.41170  0.87480  Biso   1.000  C
  C205     1.0000 0.36990  0.49410  0.86340  Biso   1.000  C
  H150     1.0000 0.40130  0.51860  0.87500  Biso   1.000  H
  H151     1.0000 0.37750  0.48770  0.83980  Biso   1.000  H
  H152     1.0000 0.34680  0.50760  0.86220  Biso   1.000  H
  C206     1.0000 0.27400  0.36520  0.89710  Biso   1.000  C
  C207     1.0000 0.22640  0.32850  0.89110  Biso   1.000  C
  H153     1.0000 0.21210  0.29990  0.90600  Biso   1.000  H
  C208     1.0000 0.28510  0.32620  0.94850  Biso   1.000  C
  H154     1.0000 0.30940  0.33400  0.96750  Biso   1.000  H
  H155     1.0000 0.25350  0.32210  0.95810  Biso   1.000  H
  H156     1.0000 0.27840  0.29480  0.93700  Biso   1.000  H
  Zn14     1.0000 0.92985  0.96531  0.01814  Biso   1.000  Zn
  O66      1.0000 0.95207  0.87803  0.01703  Biso   1.000  O
  O67      1.0000 0.98787  0.89703  0.03863  Biso   1.000  O
  O68      1.0000 0.94097  0.92293  0.05913  Biso   1.000  O
  O69      1.0000 0.01227  0.77933  0.21683  Biso   1.000  O
  O70      1.0000 0.97287  0.70163  0.25623  Biso   1.000  O
  C209     1.0000 0.94467  0.88803  0.05203  Biso   1.000  C
  C210     1.0000 0.92097  0.84083  0.07563  Biso   1.000  C
  C211     1.0000 0.90127  0.84313  0.10633  Biso   1.000  C
  H157     1.0000 0.90047  0.87273  0.11283  Biso   1.000  H
  C212     1.0000 0.88157  0.80103  0.12913  Biso   1.000  C
  H158     1.0000 0.86897  0.80353  0.15113  Biso   1.000  H
  C213     1.0000 0.87987  0.75543  0.12023  Biso   1.000  C
  C214     1.0000 0.90407  0.75583  0.08873  Biso   1.000  C
  H159     1.0000 0.90557  0.72663  0.08213  Biso   1.000  H
  C215     1.0000 0.92537  0.79773  0.06763  Biso   1.000  C
  H160     1.0000 0.94327  0.79793  0.04743  Biso   1.000  H
  C216     1.0000 0.85567  0.71003  0.14403  Biso   1.000  C
  C217     1.0000 0.80467  0.66963  0.13743  Biso   1.000  C
  C218     1.0000 0.88467  0.70653  0.17283  Biso   1.000  C
  C219     1.0000 0.93537  0.74573  0.17953  Biso   1.000  C
  H161     1.0000 0.95027  0.77373  0.16413  Biso   1.000  H
  C220     1.0000 0.96477  0.74503  0.20813  Biso   1.000  C
  C221     1.0000 0.03657  0.82743  0.19673  Biso   1.000  C
  H162     1.0000 0.06797  0.85193  0.20833  Biso   1.000  H
  H163     1.0000 0.04417  0.82103  0.17313  Biso   1.000  H
  H164     1.0000 0.01347  0.84093  0.19553  Biso   1.000  H
  C222     1.0000 0.94067  0.69853  0.23043  Biso   1.000  C
  C223     1.0000 0.89307  0.66183  0.22443  Biso   1.000  C
  H165     1.0000 0.87877  0.63323  0.23933  Biso   1.000  H
  C224     1.0000 0.95177  0.65953  0.28183  Biso   1.000  C
  H166     1.0000 0.97607  0.66733  0.30083  Biso   1.000  H
  H167     1.0000 0.92017  0.65543  0.29143  Biso   1.000  H
  H168     1.0000 0.94507  0.62813  0.27033  Biso   1.000  H
  Zn15     1.0000 0.59651  0.29865  0.35148  Biso   1.000  Zn
  O71      1.0000 0.61873  0.21137  0.35037  Biso   1.000  O
  O72      1.0000 0.65453  0.23037  0.37197  Biso   1.000  O
  O73      1.0000 0.60763  0.25627  0.39247  Biso   1.000  O
  O74      1.0000 0.67893  0.11267  0.55017  Biso   1.000  O
  O75      1.0000 0.63953  0.03497  0.58957  Biso   1.000  O
  C225     1.0000 0.61133  0.22137  0.38537  Biso   1.000  C
  C226     1.0000 0.58763  0.17417  0.40897  Biso   1.000  C
  C227     1.0000 0.56793  0.17647  0.43967  Biso   1.000  C
  H169     1.0000 0.56713  0.20607  0.44617  Biso   1.000  H
  C228     1.0000 0.54823  0.13437  0.46247  Biso   1.000  C
  H170     1.0000 0.53563  0.13687  0.48447  Biso   1.000  H
  C229     1.0000 0.54653  0.08877  0.45357  Biso   1.000  C
  C230     1.0000 0.57073  0.08917  0.42207  Biso   1.000  C
  H171     1.0000 0.57223  0.05997  0.41547  Biso   1.000  H
  C231     1.0000 0.59203  0.13107  0.40097  Biso   1.000  C
  H172     1.0000 0.60993  0.13127  0.38077  Biso   1.000  H
  C232     1.0000 0.52233  0.04337  0.47737  Biso   1.000  C
  C233     1.0000 0.47133  0.00297  0.47077  Biso   1.000  C
  C234     1.0000 0.55133  0.03987  0.50617  Biso   1.000  C
  C235     1.0000 0.60203  0.07907  0.51287  Biso   1.000  C
  H173     1.0000 0.61693  0.10707  0.49747  Biso   1.000  H
  C236     1.0000 0.63143  0.07837  0.54147  Biso   1.000  C
  C237     1.0000 0.70323  0.16077  0.53007  Biso   1.000  C
  H174     1.0000 0.73463  0.18527  0.54167  Biso   1.000  H
  H175     1.0000 0.71083  0.15437  0.50647  Biso   1.000  H
  H176     1.0000 0.68013  0.17427  0.52887  Biso   1.000  H
  C238     1.0000 0.60733  0.03187  0.56377  Biso   1.000  C
  C239     1.0000 0.55973  0.99517  0.55777  Biso   1.000  C
  H177     1.0000 0.54543  0.96657  0.57267  Biso   1.000  H
  C240     1.0000 0.61843  0.99287  0.61517  Biso   1.000  C
  H178     1.0000 0.64273  0.00067  0.63417  Biso   1.000  H
  H179     1.0000 0.58683  0.98877  0.62477  Biso   1.000  H
  H180     1.0000 0.61173  0.96147  0.60367  Biso   1.000  H
  Zn16     1.0000 0.36802  0.63120  0.68481  Biso   1.000  Zn
  O76      1.0000 0.45530  0.74070  0.68370  Biso   1.000  O
  O77      1.0000 0.43630  0.75750  0.70530  Biso   1.000  O
  O78      1.0000 0.41040  0.68470  0.72580  Biso   1.000  O
  O79      1.0000 0.55400  0.89960  0.88350  Biso   1.000  O
  O80      1.0000 0.63170  0.93790  0.92290  Biso   1.000  O
  C241     1.0000 0.44530  0.72330  0.71870  Biso   1.000  C
  C242     1.0000 0.49250  0.74680  0.74230  Biso   1.000  C
  C243     1.0000 0.49020  0.72480  0.77300  Biso   1.000  C
  H181     1.0000 0.46060  0.69440  0.77950  Biso   1.000  H
  C244     1.0000 0.53230  0.74720  0.79580  Biso   1.000  C
  H182     1.0000 0.52980  0.73210  0.81780  Biso   1.000  H
  C245     1.0000 0.57790  0.79110  0.78690  Biso   1.000  C
  C246     1.0000 0.57750  0.81490  0.75540  Biso   1.000  C
  H183     1.0000 0.60670  0.84560  0.74880  Biso   1.000  H
  C247     1.0000 0.53560  0.79430  0.73430  Biso   1.000  C
  H184     1.0000 0.53540  0.81200  0.71410  Biso   1.000  H
  C248     1.0000 0.62330  0.81230  0.81070  Biso   1.000  C
  C249     1.0000 0.66370  0.80170  0.80410  Biso   1.000  C
  C250     1.0000 0.62680  0.84480  0.83950  Biso   1.000  C
  C251     1.0000 0.58760  0.85630  0.84620  Biso   1.000  C
  H185     1.0000 0.55960  0.84320  0.83080  Biso   1.000  H
  C252     1.0000 0.58830  0.88640  0.87480  Biso   1.000  C
  C253     1.0000 0.50590  0.87580  0.86340  Biso   1.000  C
  H186     1.0000 0.48140  0.88270  0.87500  Biso   1.000  H
  H187     1.0000 0.51230  0.88980  0.83980  Biso   1.000  H
  H188     1.0000 0.49240  0.83920  0.86220  Biso   1.000  H
  C254     1.0000 0.63480  0.90880  0.89710  Biso   1.000  C
  C255     1.0000 0.67150  0.89790  0.89110  Biso   1.000  C
  H189     1.0000 0.70010  0.91220  0.90600  Biso   1.000  H
  C256     1.0000 0.67380  0.95890  0.94850  Biso   1.000  C
  H190     1.0000 0.66600  0.97540  0.96750  Biso   1.000  H
  H191     1.0000 0.67790  0.93140  0.95810  Biso   1.000  H
  H192     1.0000 0.70520  0.98360  0.93700  Biso   1.000  H
  Zn17     1.0000 0.03469  0.96453  0.01814  Biso   1.000  Zn
  O81      1.0000 0.12197  0.07403  0.01703  Biso   1.000  O
  O82      1.0000 0.10297  0.09083  0.03863  Biso   1.000  O
  O83      1.0000 0.07707  0.01803  0.05913  Biso   1.000  O
  O84      1.0000 0.22067  0.23293  0.21683  Biso   1.000  O
  O85      1.0000 0.29837  0.27123  0.25623  Biso   1.000  O
  C257     1.0000 0.11197  0.05663  0.05203  Biso   1.000  C
  C258     1.0000 0.15917  0.08013  0.07563  Biso   1.000  C
  C259     1.0000 0.15687  0.05813  0.10633  Biso   1.000  C
  H193     1.0000 0.12727  0.02773  0.11283  Biso   1.000  H
  C260     1.0000 0.19897  0.08053  0.12913  Biso   1.000  C
  H194     1.0000 0.19647  0.06543  0.15113  Biso   1.000  H
  C261     1.0000 0.24457  0.12443  0.12023  Biso   1.000  C
  C262     1.0000 0.24417  0.14823  0.08873  Biso   1.000  C
  H195     1.0000 0.27337  0.17893  0.08213  Biso   1.000  H
  C263     1.0000 0.20227  0.12763  0.06763  Biso   1.000  C
  H196     1.0000 0.20207  0.14533  0.04743  Biso   1.000  H
  C264     1.0000 0.28997  0.14563  0.14403  Biso   1.000  C
  C265     1.0000 0.33037  0.13503  0.13743  Biso   1.000  C
  C266     1.0000 0.29347  0.17813  0.17283  Biso   1.000  C
  C267     1.0000 0.25427  0.18963  0.17953  Biso   1.000  C
  H197     1.0000 0.22627  0.17653  0.16413  Biso   1.000  H
  C268     1.0000 0.25497  0.21973  0.20813  Biso   1.000  C
  C269     1.0000 0.17257  0.20913  0.19673  Biso   1.000  C
  H198     1.0000 0.14807  0.21603  0.20833  Biso   1.000  H
  H199     1.0000 0.17897  0.22313  0.17313  Biso   1.000  H
  H200     1.0000 0.15907  0.17253  0.19553  Biso   1.000  H
  C270     1.0000 0.30147  0.24213  0.23043  Biso   1.000  C
  C271     1.0000 0.33817  0.23123  0.22443  Biso   1.000  C
  H201     1.0000 0.36677  0.24553  0.23933  Biso   1.000  H
  C272     1.0000 0.34047  0.29223  0.28183  Biso   1.000  C
  H202     1.0000 0.33267  0.30873  0.30083  Biso   1.000  H
  H203     1.0000 0.34457  0.26473  0.29143  Biso   1.000  H
  H204     1.0000 0.37187  0.31693  0.27033  Biso   1.000  H
  Zn18     1.0000 0.70135  0.29787  0.35148  Biso   1.000  Zn
  O86      1.0000 0.78863  0.40737  0.35037  Biso   1.000  O
  O87      1.0000 0.76963  0.42417  0.37197  Biso   1.000  O
  O88      1.0000 0.74373  0.35137  0.39247  Biso   1.000  O
  O89      1.0000 0.88733  0.56627  0.55017  Biso   1.000  O
  O90      1.0000 0.96503  0.60457  0.58957  Biso   1.000  O
  C273     1.0000 0.77863  0.38997  0.38537  Biso   1.000  C
  C274     1.0000 0.82583  0.41347  0.40897  Biso   1.000  C
  C275     1.0000 0.82353  0.39147  0.43967  Biso   1.000  C
  H205     1.0000 0.79393  0.36107  0.44617  Biso   1.000  H
  C276     1.0000 0.86563  0.41387  0.46247  Biso   1.000  C
  H206     1.0000 0.86313  0.39877  0.48447  Biso   1.000  H
  C277     1.0000 0.91123  0.45777  0.45357  Biso   1.000  C
  C278     1.0000 0.91083  0.48157  0.42207  Biso   1.000  C
  H207     1.0000 0.94003  0.51227  0.41547  Biso   1.000  H
  C279     1.0000 0.86893  0.46097  0.40097  Biso   1.000  C
  H208     1.0000 0.86873  0.47867  0.38077  Biso   1.000  H
  C280     1.0000 0.95663  0.47897  0.47737  Biso   1.000  C
  C281     1.0000 0.99703  0.46837  0.47077  Biso   1.000  C
  C282     1.0000 0.96013  0.51147  0.50617  Biso   1.000  C
  C283     1.0000 0.92093  0.52297  0.51287  Biso   1.000  C
  H209     1.0000 0.89293  0.50987  0.49747  Biso   1.000  H
  C284     1.0000 0.92163  0.55307  0.54147  Biso   1.000  C
  C285     1.0000 0.83923  0.54247  0.53007  Biso   1.000  C
  H210     1.0000 0.81473  0.54937  0.54167  Biso   1.000  H
  H211     1.0000 0.84563  0.55647  0.50647  Biso   1.000  H
  H212     1.0000 0.82573  0.50587  0.52887  Biso   1.000  H
  C286     1.0000 0.96813  0.57547  0.56377  Biso   1.000  C
  C287     1.0000 0.00483  0.56457  0.55777  Biso   1.000  C
  H213     1.0000 0.03343  0.57887  0.57267  Biso   1.000  H
  C288     1.0000 0.00713  0.62557  0.61517  Biso   1.000  C
  H214     1.0000 0.99933  0.64207  0.63417  Biso   1.000  H
  H215     1.0000 0.01123  0.59807  0.62477  Biso   1.000  H
  H216     1.0000 0.03853  0.65027  0.60367  Biso   1.000  H
  Zn19     1.0000 0.66667  0.33333  0.38412  Biso   1.000  Zn
  Zn20     1.0000 0.33333  0.66667  0.71745  Biso   1.000  Zn
  Zn21     1.0000 0.00000  0.00000  0.05079  Biso   1.000  Zn
  Zn22     1.0000 0.33333  0.66667  0.61588  Biso   1.000  Zn
  Zn23     1.0000 0.00000  0.00000  0.94921  Biso   1.000  Zn
  Zn24     1.0000 0.66667  0.33333  0.28255  Biso   1.000  Zn
  O91      1.0000 0.66667  0.33333  0.33333  Biso   1.000  O
  O92      1.0000 0.33333  0.66667  0.66667  Biso   1.000  O
  O93      1.0000 0.00000  0.00000  0.00000  Biso   1.000  O
  Zn25     1.0000 0.70073  0.29788  0.13782  Biso   1.000  Zn
  O94      1.0000 0.74980  0.33930  0.17434  Biso   1.000  O
  O95      1.0000 0.20940  0.59480  0.43750  Biso   1.000  O
  O96      1.0000 0.76730  0.41810  0.15951  Biso   1.000  O
  O97      1.0000 0.26310  0.63450  0.39060  Biso   1.000  O
  O98      1.0000 0.02760  0.38550  0.20260  Biso   1.000  O
  O99      1.0000 0.10240  0.41570  0.24650  Biso   1.000  O
  O100     1.0000 0.88990  0.56780  0.33840  Biso   1.000  O
  O101     1.0000 0.97290  0.61210  0.37400  Biso   1.000  O
  C289     1.0000 0.77760  0.38920  0.17480  Biso   1.000  C
  C290     1.0000 0.82390  0.41060  0.19940  Biso   1.000  C
  C291     1.0000 0.83130  0.38010  0.22360  Biso   1.000  C
  H217     1.0000 0.80810  0.34480  0.22430  Biso   1.000  H
  C292     1.0000 0.87200  0.40100  0.24640  Biso   1.000  C
  H218     1.0000 0.87460  0.38040  0.26380  Biso   1.000  H
  C293     1.0000 0.90940  0.45220  0.24410  Biso   1.000  C
  C294     1.0000 0.90290  0.48200  0.21890  Biso   1.000  C
  H219     1.0000 0.92790  0.51670  0.21680  Biso   1.000  H
  C295     1.0000 0.86260  0.46310  0.19760  Biso   1.000  C
  H220     1.0000 0.85960  0.48470  0.18120  Biso   1.000  H
  C296     1.0000 0.95310  0.47370  0.26780  Biso   1.000  C
  C297     1.0000 0.99430  0.46100  0.26230  Biso   1.000  C
  C298     1.0000 0.99000  0.42820  0.23400  Biso   1.000  C
  H221     1.0000 0.96140  0.41460  0.21910  Biso   1.000  H
  C299     1.0000 0.02960  0.41580  0.22840  Biso   1.000  C
  C300     1.0000 0.98570  0.36640  0.17670  Biso   1.000  C
  H222     1.0000 0.99180  0.34780  0.15840  Biso   1.000  H
  H223     1.0000 0.98420  0.39490  0.16650  Biso   1.000  H
  H224     1.0000 0.95360  0.34380  0.18840  Biso   1.000  H
  C301     1.0000 0.06980  0.43150  0.25230  Biso   1.000  C
  C302     1.0000 0.14670  0.43360  0.27050  Biso   1.000  C
  H225     1.0000 0.16530  0.41610  0.26510  Biso   1.000  H
  H226     1.0000 0.13470  0.42640  0.29460  Biso   1.000  H
  H227     1.0000 0.16900  0.47010  0.26760  Biso   1.000  H
  C303     1.0000 0.07430  0.46630  0.28120  Biso   1.000  C
  H228     1.0000 0.10110  0.47760  0.29750  Biso   1.000  H
  C304     1.0000 0.03870  0.48200  0.28400  Biso   1.000  C
  C305     1.0000 0.04190  0.51640  0.31230  Biso   1.000  C
  C306     1.0000 0.00300  0.52890  0.31660  Biso   1.000  C
  C307     1.0000 0.00950  0.56710  0.34460  Biso   1.000  C
  H229     1.0000 0.03920  0.58310  0.35840  Biso   1.000  H
  C308     1.0000 0.97070  0.57750  0.34910  Biso   1.000  C
  C309     1.0000 0.01740  0.63870  0.39520  Biso   1.000  C
  H230     1.0000 0.04690  0.65820  0.38030  Biso   1.000  H
  H231     1.0000 0.02220  0.61450  0.40900  Biso   1.000  H
  H232     1.0000 0.01330  0.66180  0.41090  Biso   1.000  H
  C310     1.0000 0.92540  0.55450  0.32870  Biso   1.000  C
  C311     1.0000 0.84290  0.54540  0.32030  Biso   1.000  C
  H233     1.0000 0.84820  0.53940  0.29600  Biso   1.000  H
  H234     1.0000 0.82910  0.56830  0.32100  Biso   1.000  H
  H235     1.0000 0.81910  0.51330  0.33140  Biso   1.000  H
  C312     1.0000 0.91930  0.52000  0.30290  Biso   1.000  C
  H236     1.0000 0.88890  0.50390  0.28990  Biso   1.000  H
  C313     1.0000 0.95950  0.50820  0.29560  Biso   1.000  C
  C314     1.0000 0.08730  0.53770  0.33590  Biso   1.000  C
  C315     1.0000 0.08350  0.52470  0.37060  Biso   1.000  C
  H237     1.0000 0.05110  0.50140  0.37960  Biso   1.000  H
  C316     1.0000 0.12420  0.54360  0.39310  Biso   1.000  C
  H238     1.0000 0.11980  0.53180  0.41640  Biso   1.000  H
  C317     1.0000 0.17250  0.58090  0.38110  Biso   1.000  C
  C318     1.0000 0.21850  0.60610  0.40540  Biso   1.000  C
  C319     1.0000 0.17780  0.59640  0.34660  Biso   1.000  C
  H239     1.0000 0.20990  0.62160  0.33810  Biso   1.000  H
  C320     1.0000 0.13640  0.57500  0.32440  Biso   1.000  C
  H240     1.0000 0.14090  0.58560  0.30080  Biso   1.000  H
  Zn26     1.0000 0.36740  0.63121  0.47115  Biso   1.000  Zn
  O102     1.0000 0.41647  0.67263  0.50767  Biso   1.000  O
  O103     1.0000 0.87607  0.92813  0.77083  Biso   1.000  O
  O104     1.0000 0.43397  0.75143  0.49284  Biso   1.000  O
  O105     1.0000 0.92977  0.96783  0.72393  Biso   1.000  O
  O106     1.0000 0.69427  0.71883  0.53593  Biso   1.000  O
  O107     1.0000 0.76907  0.74903  0.57983  Biso   1.000  O
  O108     1.0000 0.55657  0.90113  0.67173  Biso   1.000  O
  O109     1.0000 0.63957  0.94543  0.70733  Biso   1.000  O
  C321     1.0000 0.44427  0.72253  0.50813  Biso   1.000  C
  C322     1.0000 0.49057  0.74393  0.53273  Biso   1.000  C
  C323     1.0000 0.49797  0.71343  0.55693  Biso   1.000  C
  H241     1.0000 0.47477  0.67813  0.55763  Biso   1.000  H
  C324     1.0000 0.53867  0.73433  0.57973  Biso   1.000  C
  H242     1.0000 0.54127  0.71373  0.59713  Biso   1.000  H
  C325     1.0000 0.57607  0.78553  0.57743  Biso   1.000  C
  C326     1.0000 0.56957  0.81533  0.55223  Biso   1.000  C
  H243     1.0000 0.59457  0.85003  0.55013  Biso   1.000  H
  C327     1.0000 0.52927  0.79643  0.53093  Biso   1.000  C
  H244     1.0000 0.52627  0.81803  0.51453  Biso   1.000  H
  C328     1.0000 0.61977  0.80703  0.60113  Biso   1.000  C
  C329     1.0000 0.66097  0.79433  0.59563  Biso   1.000  C
  C330     1.0000 0.65667  0.76153  0.56733  Biso   1.000  C
  H245     1.0000 0.62807  0.74793  0.55243  Biso   1.000  H
  C331     1.0000 0.69627  0.74913  0.56173  Biso   1.000  C
  C332     1.0000 0.65237  0.69973  0.51003  Biso   1.000  C
  H246     1.0000 0.65847  0.68113  0.49173  Biso   1.000  H
  H247     1.0000 0.65087  0.72823  0.49983  Biso   1.000  H
  H248     1.0000 0.62027  0.67713  0.52173  Biso   1.000  H
  C333     1.0000 0.73647  0.76483  0.58563  Biso   1.000  C
  C334     1.0000 0.81337  0.76693  0.60383  Biso   1.000  C
  H249     1.0000 0.83197  0.74943  0.59843  Biso   1.000  H
  H250     1.0000 0.80137  0.75973  0.62793  Biso   1.000  H
  H251     1.0000 0.83567  0.80343  0.60093  Biso   1.000  H
  C335     1.0000 0.74097  0.79963  0.61453  Biso   1.000  C
  H252     1.0000 0.76777  0.81093  0.63083  Biso   1.000  H
  C336     1.0000 0.70537  0.81533  0.61733  Biso   1.000  C
  C337     1.0000 0.70857  0.84973  0.64563  Biso   1.000  C
  C338     1.0000 0.66967  0.86223  0.64993  Biso   1.000  C
  C339     1.0000 0.67617  0.90043  0.67793  Biso   1.000  C
  H253     1.0000 0.70587  0.91643  0.69173  Biso   1.000  H
  C340     1.0000 0.63737  0.91083  0.68243  Biso   1.000  C
  C341     1.0000 0.68407  0.97203  0.72853  Biso   1.000  C
  H254     1.0000 0.71357  0.99153  0.71363  Biso   1.000  H
  H255     1.0000 0.68887  0.94783  0.74233  Biso   1.000  H
  H256     1.0000 0.67997  0.99513  0.74423  Biso   1.000  H
  C342     1.0000 0.59207  0.88783  0.66203  Biso   1.000  C
  C343     1.0000 0.50957  0.87873  0.65363  Biso   1.000  C
  H257     1.0000 0.51487  0.87273  0.62933  Biso   1.000  H
  H258     1.0000 0.49577  0.90163  0.65433  Biso   1.000  H
  H259     1.0000 0.48577  0.84663  0.66473  Biso   1.000  H
  C344     1.0000 0.58597  0.85333  0.63623  Biso   1.000  C
  H260     1.0000 0.55557  0.83723  0.62323  Biso   1.000  H
  C345     1.0000 0.62617  0.84153  0.62893  Biso   1.000  C
  C346     1.0000 0.75397  0.87103  0.66923  Biso   1.000  C
  C347     1.0000 0.75017  0.85803  0.70393  Biso   1.000  C
  H261     1.0000 0.71777  0.83473  0.71293  Biso   1.000  H
  C348     1.0000 0.79087  0.87693  0.72643  Biso   1.000  C
  H262     1.0000 0.78647  0.86513  0.74973  Biso   1.000  H
  C349     1.0000 0.83917  0.91423  0.71443  Biso   1.000  C
  C350     1.0000 0.88517  0.93943  0.73873  Biso   1.000  C
  C351     1.0000 0.84447  0.92973  0.67993  Biso   1.000  C
  H263     1.0000 0.87657  0.95493  0.67143  Biso   1.000  H
  C352     1.0000 0.80307  0.90833  0.65773  Biso   1.000  C
  H264     1.0000 0.80757  0.91893  0.63413  Biso   1.000  H
  Zn27     1.0000 0.03406  0.96455  0.80449  Biso   1.000  Zn
  O110     1.0000 0.08313  0.00597  0.84101  Biso   1.000  O
  O111     1.0000 0.54273  0.26147  0.10417  Biso   1.000  O
  O112     1.0000 0.10063  0.08477  0.82618  Biso   1.000  O
  O113     1.0000 0.59643  0.30117  0.05727  Biso   1.000  O
  O114     1.0000 0.36093  0.05217  0.86927  Biso   1.000  O
  O115     1.0000 0.43573  0.08237  0.91317  Biso   1.000  O
  O116     1.0000 0.22323  0.23447  0.00507  Biso   1.000  O
  O117     1.0000 0.30623  0.27877  0.04067  Biso   1.000  O
  C353     1.0000 0.11093  0.05587  0.84147  Biso   1.000  C
  C354     1.0000 0.15723  0.07727  0.86607  Biso   1.000  C
  C355     1.0000 0.16463  0.04677  0.89027  Biso   1.000  C
  H265     1.0000 0.14143  0.01147  0.89097  Biso   1.000  H
  C356     1.0000 0.20533  0.06767  0.91307  Biso   1.000  C
  H266     1.0000 0.20793  0.04707  0.93047  Biso   1.000  H
  C357     1.0000 0.24273  0.11887  0.91077  Biso   1.000  C
  C358     1.0000 0.23623  0.14867  0.88557  Biso   1.000  C
  H267     1.0000 0.26123  0.18337  0.88347  Biso   1.000  H
  C359     1.0000 0.19593  0.12977  0.86427  Biso   1.000  C
  H268     1.0000 0.19293  0.15137  0.84787  Biso   1.000  H
  C360     1.0000 0.28643  0.14037  0.93447  Biso   1.000  C
  C361     1.0000 0.32763  0.12767  0.92897  Biso   1.000  C
  C362     1.0000 0.32333  0.09487  0.90067  Biso   1.000  C
  H269     1.0000 0.29473  0.08127  0.88577  Biso   1.000  H
  C363     1.0000 0.36293  0.08247  0.89507  Biso   1.000  C
  C364     1.0000 0.31903  0.03307  0.84337  Biso   1.000  C
  H270     1.0000 0.32513  0.01447  0.82507  Biso   1.000  H
  H271     1.0000 0.31753  0.06157  0.83317  Biso   1.000  H
  H272     1.0000 0.28693  0.01047  0.85507  Biso   1.000  H
  C365     1.0000 0.40313  0.09817  0.91897  Biso   1.000  C
  C366     1.0000 0.48003  0.10027  0.93717  Biso   1.000  C
  H273     1.0000 0.49863  0.08277  0.93177  Biso   1.000  H
  H274     1.0000 0.46803  0.09307  0.96127  Biso   1.000  H
  H275     1.0000 0.50233  0.13677  0.93427  Biso   1.000  H
  C367     1.0000 0.40763  0.13297  0.94787  Biso   1.000  C
  H276     1.0000 0.43443  0.14427  0.96417  Biso   1.000  H
  C368     1.0000 0.37203  0.14867  0.95067  Biso   1.000  C
  C369     1.0000 0.37523  0.18307  0.97897  Biso   1.000  C
  C370     1.0000 0.33633  0.19557  0.98327  Biso   1.000  C
  C371     1.0000 0.34283  0.23377  0.01127  Biso   1.000  C
  H277     1.0000 0.37253  0.24977  0.02507  Biso   1.000  H
  C372     1.0000 0.30403  0.24417  0.01577  Biso   1.000  C
  C373     1.0000 0.35073  0.30537  0.06187  Biso   1.000  C
  H278     1.0000 0.38023  0.32487  0.04697  Biso   1.000  H
  H279     1.0000 0.35553  0.28117  0.07567  Biso   1.000  H
  H280     1.0000 0.34663  0.32847  0.07757  Biso   1.000  H
  C374     1.0000 0.25873  0.22117  0.99537  Biso   1.000  C
  C375     1.0000 0.17623  0.21207  0.98697  Biso   1.000  C
  H281     1.0000 0.18153  0.20607  0.96267  Biso   1.000  H
  H282     1.0000 0.16243  0.23497  0.98767  Biso   1.000  H
  H283     1.0000 0.15243  0.17997  0.99807  Biso   1.000  H
  C376     1.0000 0.25263  0.18667  0.96957  Biso   1.000  C
  H284     1.0000 0.22223  0.17057  0.95657  Biso   1.000  H
  C377     1.0000 0.29283  0.17487  0.96227  Biso   1.000  C
  C378     1.0000 0.42063  0.20437  0.00257  Biso   1.000  C
  C379     1.0000 0.41683  0.19137  0.03727  Biso   1.000  C
  H285     1.0000 0.38443  0.16807  0.04627  Biso   1.000  H
  C380     1.0000 0.45753  0.21027  0.05977  Biso   1.000  C
  H286     1.0000 0.45313  0.19847  0.08307  Biso   1.000  H
  C381     1.0000 0.50583  0.24757  0.04777  Biso   1.000  C
  C382     1.0000 0.55183  0.27277  0.07207  Biso   1.000  C
  C383     1.0000 0.51113  0.26307  0.01327  Biso   1.000  C
  H287     1.0000 0.54323  0.28827  0.00477  Biso   1.000  H
  C384     1.0000 0.46973  0.24167  0.99107  Biso   1.000  C
  H288     1.0000 0.47423  0.25227  0.96747  Biso   1.000  H
  Zn28     1.0000 0.70212  0.40285  0.13782  Biso   1.000  Zn
  O118     1.0000 0.66070  0.41050  0.17434  Biso   1.000  O
  O119     1.0000 0.40520  0.61460  0.43750  Biso   1.000  O
  O120     1.0000 0.58190  0.34920  0.15951  Biso   1.000  O
  O121     1.0000 0.36550  0.62860  0.39060  Biso   1.000  O
  O122     1.0000 0.61450  0.64210  0.20260  Biso   1.000  O
  O123     1.0000 0.58430  0.68670  0.24650  Biso   1.000  O
  O124     1.0000 0.43220  0.32210  0.33840  Biso   1.000  O
  O125     1.0000 0.38790  0.36080  0.37400  Biso   1.000  O
  C385     1.0000 0.61080  0.38840  0.17480  Biso   1.000  C
  C386     1.0000 0.58940  0.41330  0.19940  Biso   1.000  C
  C387     1.0000 0.61990  0.45120  0.22360  Biso   1.000  C
  H289     1.0000 0.65520  0.46330  0.22430  Biso   1.000  H
  C388     1.0000 0.59900  0.47100  0.24640  Biso   1.000  C
  H290     1.0000 0.61960  0.49420  0.26380  Biso   1.000  H
  C389     1.0000 0.54780  0.45720  0.24410  Biso   1.000  C
  C390     1.0000 0.51800  0.42090  0.21890  Biso   1.000  C
  H291     1.0000 0.48330  0.41120  0.21680  Biso   1.000  H
  C391     1.0000 0.53690  0.39950  0.19760  Biso   1.000  C
  H292     1.0000 0.51530  0.37490  0.18120  Biso   1.000  H
  C392     1.0000 0.52630  0.47940  0.26780  Biso   1.000  C
  C393     1.0000 0.53900  0.53330  0.26230  Biso   1.000  C
  C394     1.0000 0.57180  0.56180  0.23400  Biso   1.000  C
  H293     1.0000 0.58540  0.54680  0.21910  Biso   1.000  H
  C395     1.0000 0.58420  0.61380  0.22840  Biso   1.000  C
  C396     1.0000 0.63360  0.61930  0.17670  Biso   1.000  C
  H294     1.0000 0.65220  0.64400  0.15840  Biso   1.000  H
  H295     1.0000 0.60510  0.58930  0.16650  Biso   1.000  H
  H296     1.0000 0.65620  0.60980  0.18840  Biso   1.000  H
  C397     1.0000 0.56850  0.63830  0.25230  Biso   1.000  C
  C398     1.0000 0.56640  0.71310  0.27050  Biso   1.000  C
  H297     1.0000 0.58390  0.74920  0.26510  Biso   1.000  H
  H298     1.0000 0.57360  0.70830  0.29460  Biso   1.000  H
  H299     1.0000 0.52990  0.69890  0.26760  Biso   1.000  H
  C399     1.0000 0.53370  0.60800  0.28120  Biso   1.000  C
  H300     1.0000 0.52240  0.62350  0.29750  Biso   1.000  H
  C400     1.0000 0.51800  0.55670  0.28400  Biso   1.000  C
  C401     1.0000 0.48360  0.52550  0.31230  Biso   1.000  C
  C402     1.0000 0.47110  0.47410  0.31660  Biso   1.000  C
  C403     1.0000 0.43290  0.44240  0.34460  Biso   1.000  C
  H301     1.0000 0.41690  0.45610  0.35840  Biso   1.000  H
  C404     1.0000 0.42250  0.39320  0.34910  Biso   1.000  C
  C405     1.0000 0.36130  0.37870  0.39520  Biso   1.000  C
  H302     1.0000 0.34180  0.38870  0.38030  Biso   1.000  H
  H303     1.0000 0.38550  0.40770  0.40900  Biso   1.000  H
  H304     1.0000 0.33820  0.35150  0.41090  Biso   1.000  H
  C406     1.0000 0.44550  0.37090  0.32870  Biso   1.000  C
  C407     1.0000 0.45460  0.29750  0.32030  Biso   1.000  C
  H305     1.0000 0.46060  0.30880  0.29600  Biso   1.000  H
  H306     1.0000 0.43170  0.26080  0.32100  Biso   1.000  H
  H307     1.0000 0.48670  0.30580  0.33140  Biso   1.000  H
  C408     1.0000 0.48000  0.39930  0.30290  Biso   1.000  C
  H308     1.0000 0.49610  0.38500  0.28990  Biso   1.000  H
  C409     1.0000 0.49180  0.45130  0.29560  Biso   1.000  C
  C410     1.0000 0.46230  0.54960  0.33590  Biso   1.000  C
  C411     1.0000 0.47530  0.55880  0.37060  Biso   1.000  C
  H309     1.0000 0.49860  0.54970  0.37960  Biso   1.000  H
  C412     1.0000 0.45640  0.58060  0.39310  Biso   1.000  C
  H310     1.0000 0.46820  0.58800  0.41640  Biso   1.000  H
  C413     1.0000 0.41910  0.59160  0.38110  Biso   1.000  C
  C414     1.0000 0.39390  0.61240  0.40540  Biso   1.000  C
  C415     1.0000 0.40360  0.58140  0.34660  Biso   1.000  C
  H311     1.0000 0.37840  0.58830  0.33810  Biso   1.000  H
  C416     1.0000 0.42500  0.56140  0.32440  Biso   1.000  C
  H312     1.0000 0.41440  0.55530  0.30080  Biso   1.000  H
  Zn29     1.0000 0.36879  0.73618  0.47115  Biso   1.000  Zn
  O126     1.0000 0.32737  0.74383  0.50767  Biso   1.000  O
  O127     1.0000 0.07187  0.94793  0.77083  Biso   1.000  O
  O128     1.0000 0.24857  0.68253  0.49284  Biso   1.000  O
  O129     1.0000 0.03217  0.96193  0.72393  Biso   1.000  O
  O130     1.0000 0.28117  0.97543  0.53593  Biso   1.000  O
  O131     1.0000 0.25097  0.02003  0.57983  Biso   1.000  O
  O132     1.0000 0.09887  0.65543  0.67173  Biso   1.000  O
  O133     1.0000 0.05457  0.69413  0.70733  Biso   1.000  O
  C417     1.0000 0.27747  0.72173  0.50813  Biso   1.000  C
  C418     1.0000 0.25607  0.74663  0.53273  Biso   1.000  C
  C419     1.0000 0.28657  0.78453  0.55693  Biso   1.000  C
  H313     1.0000 0.32187  0.79663  0.55763  Biso   1.000  H
  C420     1.0000 0.26567  0.80433  0.57973  Biso   1.000  C
  H314     1.0000 0.28627  0.82753  0.59713  Biso   1.000  H
  C421     1.0000 0.21447  0.79053  0.57743  Biso   1.000  C
  C422     1.0000 0.18467  0.75423  0.55223  Biso   1.000  C
  H315     1.0000 0.14997  0.74453  0.55013  Biso   1.000  H
  C423     1.0000 0.20357  0.73283  0.53093  Biso   1.000  C
  H316     1.0000 0.18197  0.70823  0.51453  Biso   1.000  H
  C424     1.0000 0.19297  0.81273  0.60113  Biso   1.000  C
  C425     1.0000 0.20567  0.86663  0.59563  Biso   1.000  C
  C426     1.0000 0.23847  0.89513  0.56733  Biso   1.000  C
  H317     1.0000 0.25207  0.88013  0.55243  Biso   1.000  H
  C427     1.0000 0.25087  0.94713  0.56173  Biso   1.000  C
  C428     1.0000 0.30027  0.95263  0.51003  Biso   1.000  C
  H318     1.0000 0.31887  0.97733  0.49173  Biso   1.000  H
  H319     1.0000 0.27177  0.92263  0.49983  Biso   1.000  H
  H320     1.0000 0.32287  0.94313  0.52173  Biso   1.000  H
  C429     1.0000 0.23517  0.97163  0.58563  Biso   1.000  C
  C430     1.0000 0.23307  0.04643  0.60383  Biso   1.000  C
  H321     1.0000 0.25057  0.08253  0.59843  Biso   1.000  H
  H322     1.0000 0.24027  0.04163  0.62793  Biso   1.000  H
  H323     1.0000 0.19657  0.03223  0.60093  Biso   1.000  H
  C431     1.0000 0.20037  0.94133  0.61453  Biso   1.000  C
  H324     1.0000 0.18907  0.95683  0.63083  Biso   1.000  H
  C432     1.0000 0.18467  0.89003  0.61733  Biso   1.000  C
  C433     1.0000 0.15027  0.85883  0.64563  Biso   1.000  C
  C434     1.0000 0.13777  0.80743  0.64993  Biso   1.000  C
  C435     1.0000 0.09957  0.77573  0.67793  Biso   1.000  C
  H325     1.0000 0.08357  0.78943  0.69173  Biso   1.000  H
  C436     1.0000 0.08917  0.72653  0.68243  Biso   1.000  C
  C437     1.0000 0.02797  0.71203  0.72853  Biso   1.000  C
  H326     1.0000 0.00847  0.72203  0.71363  Biso   1.000  H
  H327     1.0000 0.05217  0.74103  0.74233  Biso   1.000  H
  H328     1.0000 0.00487  0.68483  0.74423  Biso   1.000  H
  C438     1.0000 0.11217  0.70423  0.66203  Biso   1.000  C
  C439     1.0000 0.12127  0.63083  0.65363  Biso   1.000  C
  H329     1.0000 0.12727  0.64213  0.62933  Biso   1.000  H
  H330     1.0000 0.09837  0.59413  0.65433  Biso   1.000  H
  H331     1.0000 0.15337  0.63913  0.66473  Biso   1.000  H
  C440     1.0000 0.14667  0.73263  0.63623  Biso   1.000  C
  H332     1.0000 0.16277  0.71833  0.62323  Biso   1.000  H
  C441     1.0000 0.15847  0.78463  0.62893  Biso   1.000  C
  C442     1.0000 0.12897  0.88293  0.66923  Biso   1.000  C
  C443     1.0000 0.14197  0.89213  0.70393  Biso   1.000  C
  H333     1.0000 0.16527  0.88303  0.71293  Biso   1.000  H
  C444     1.0000 0.12307  0.91393  0.72643  Biso   1.000  C
  H334     1.0000 0.13487  0.92133  0.74973  Biso   1.000  H
  C445     1.0000 0.08577  0.92493  0.71443  Biso   1.000  C
  C446     1.0000 0.06057  0.94573  0.73873  Biso   1.000  C
  C447     1.0000 0.07027  0.91473  0.67993  Biso   1.000  C
  H335     1.0000 0.04507  0.92163  0.67143  Biso   1.000  H
  C448     1.0000 0.09167  0.89473  0.65773  Biso   1.000  C
  H336     1.0000 0.08107  0.88863  0.63413  Biso   1.000  H
  Zn30     1.0000 0.03545  0.06952  0.80449  Biso   1.000  Zn
  O134     1.0000 0.99403  0.07717  0.84101  Biso   1.000  O
  O135     1.0000 0.73853  0.28127  0.10417  Biso   1.000  O
  O136     1.0000 0.91523  0.01587  0.82618  Biso   1.000  O
  O137     1.0000 0.69883  0.29527  0.05727  Biso   1.000  O
  O138     1.0000 0.94783  0.30877  0.86927  Biso   1.000  O
  O139     1.0000 0.91763  0.35337  0.91317  Biso   1.000  O
  O140     1.0000 0.76553  0.98877  0.00507  Biso   1.000  O
  O141     1.0000 0.72123  0.02747  0.04067  Biso   1.000  O
  C449     1.0000 0.94413  0.05507  0.84147  Biso   1.000  C
  C450     1.0000 0.92273  0.07997  0.86607  Biso   1.000  C
  C451     1.0000 0.95323  0.11787  0.89027  Biso   1.000  C
  H337     1.0000 0.98853  0.12997  0.89097  Biso   1.000  H
  C452     1.0000 0.93233  0.13767  0.91307  Biso   1.000  C
  H338     1.0000 0.95293  0.16087  0.93047  Biso   1.000  H
  C453     1.0000 0.88113  0.12387  0.91077  Biso   1.000  C
  C454     1.0000 0.85133  0.08757  0.88557  Biso   1.000  C
  H339     1.0000 0.81663  0.07787  0.88347  Biso   1.000  H
  C455     1.0000 0.87023  0.06617  0.86427  Biso   1.000  C
  H340     1.0000 0.84863  0.04157  0.84787  Biso   1.000  H
  C456     1.0000 0.85963  0.14607  0.93447  Biso   1.000  C
  C457     1.0000 0.87233  0.19997  0.92897  Biso   1.000  C
  C458     1.0000 0.90513  0.22847  0.90067  Biso   1.000  C
  H341     1.0000 0.91873  0.21347  0.88577  Biso   1.000  H
  C459     1.0000 0.91753  0.28047  0.89507  Biso   1.000  C
  C460     1.0000 0.96693  0.28597  0.84337  Biso   1.000  C
  H342     1.0000 0.98553  0.31067  0.82507  Biso   1.000  H
  H343     1.0000 0.93843  0.25597  0.83317  Biso   1.000  H
  H344     1.0000 0.98953  0.27647  0.85507  Biso   1.000  H
  C461     1.0000 0.90183  0.30497  0.91897  Biso   1.000  C
  C462     1.0000 0.89973  0.37977  0.93717  Biso   1.000  C
  H345     1.0000 0.91723  0.41587  0.93177  Biso   1.000  H
  H346     1.0000 0.90693  0.37497  0.96127  Biso   1.000  H
  H347     1.0000 0.86323  0.36557  0.93427  Biso   1.000  H
  C463     1.0000 0.86703  0.27467  0.94787  Biso   1.000  C
  H348     1.0000 0.85573  0.29017  0.96417  Biso   1.000  H
  C464     1.0000 0.85133  0.22337  0.95067  Biso   1.000  C
  C465     1.0000 0.81693  0.19217  0.97897  Biso   1.000  C
  C466     1.0000 0.80443  0.14077  0.98327  Biso   1.000  C
  C467     1.0000 0.76623  0.10907  0.01127  Biso   1.000  C
  H349     1.0000 0.75023  0.12277  0.02507  Biso   1.000  H
  C468     1.0000 0.75583  0.05987  0.01577  Biso   1.000  C
  C469     1.0000 0.69463  0.04537  0.06187  Biso   1.000  C
  H350     1.0000 0.67513  0.05537  0.04697  Biso   1.000  H
  H351     1.0000 0.71883  0.07437  0.07567  Biso   1.000  H
  H352     1.0000 0.67153  0.01817  0.07757  Biso   1.000  H
  C470     1.0000 0.77883  0.03757  0.99537  Biso   1.000  C
  C471     1.0000 0.78793  0.96417  0.98697  Biso   1.000  C
  H353     1.0000 0.79393  0.97547  0.96267  Biso   1.000  H
  H354     1.0000 0.76503  0.92747  0.98767  Biso   1.000  H
  H355     1.0000 0.82003  0.97247  0.99807  Biso   1.000  H
  C472     1.0000 0.81333  0.06597  0.96957  Biso   1.000  C
  H356     1.0000 0.82943  0.05167  0.95657  Biso   1.000  H
  C473     1.0000 0.82513  0.11797  0.96227  Biso   1.000  C
  C474     1.0000 0.79563  0.21627  0.00257  Biso   1.000  C
  C475     1.0000 0.80863  0.22547  0.03727  Biso   1.000  C
  H357     1.0000 0.83193  0.21637  0.04627  Biso   1.000  H
  C476     1.0000 0.78973  0.24727  0.05977  Biso   1.000  C
  H358     1.0000 0.80153  0.25467  0.08307  Biso   1.000  H
  C477     1.0000 0.75243  0.25827  0.04777  Biso   1.000  C
  C478     1.0000 0.72723  0.27907  0.07207  Biso   1.000  C
  C479     1.0000 0.73693  0.24807  0.01327  Biso   1.000  C
  H359     1.0000 0.71173  0.25497  0.00477  Biso   1.000  H
  C480     1.0000 0.75833  0.22807  0.99107  Biso   1.000  C
  H360     1.0000 0.74773  0.22197  0.96747  Biso   1.000  H
  Zn31     1.0000 0.59715  0.29927  0.13782  Biso   1.000  Zn
  O142     1.0000 0.58950  0.25020  0.17434  Biso   1.000  O
  O143     1.0000 0.38540  0.79060  0.43750  Biso   1.000  O
  O144     1.0000 0.65080  0.23270  0.15951  Biso   1.000  O
  O145     1.0000 0.37140  0.73690  0.39060  Biso   1.000  O
  O146     1.0000 0.35790  0.97240  0.20260  Biso   1.000  O
  O147     1.0000 0.31330  0.89760  0.24650  Biso   1.000  O
  O148     1.0000 0.67790  0.11010  0.33840  Biso   1.000  O
  O149     1.0000 0.63920  0.02710  0.37400  Biso   1.000  O
  C481     1.0000 0.61160  0.22240  0.17480  Biso   1.000  C
  C482     1.0000 0.58670  0.17610  0.19940  Biso   1.000  C
  C483     1.0000 0.54880  0.16870  0.22360  Biso   1.000  C
  H361     1.0000 0.53670  0.19190  0.22430  Biso   1.000  H
  C484     1.0000 0.52900  0.12800  0.24640  Biso   1.000  C
  H362     1.0000 0.50580  0.12540  0.26380  Biso   1.000  H
  C485     1.0000 0.54280  0.09060  0.24410  Biso   1.000  C
  C486     1.0000 0.57910  0.09710  0.21890  Biso   1.000  C
  H363     1.0000 0.58880  0.07210  0.21680  Biso   1.000  H
  C487     1.0000 0.60050  0.13740  0.19760  Biso   1.000  C
  H364     1.0000 0.62510  0.14040  0.18120  Biso   1.000  H
  C488     1.0000 0.52060  0.04690  0.26780  Biso   1.000  C
  C489     1.0000 0.46670  0.00570  0.26230  Biso   1.000  C
  C490     1.0000 0.43820  0.01000  0.23400  Biso   1.000  C
  H365     1.0000 0.45320  0.03860  0.21910  Biso   1.000  H
  C491     1.0000 0.38620  0.97040  0.22840  Biso   1.000  C
  C492     1.0000 0.38070  0.01430  0.17670  Biso   1.000  C
  H366     1.0000 0.35600  0.00820  0.15840  Biso   1.000  H
  H367     1.0000 0.41070  0.01580  0.16650  Biso   1.000  H
  H368     1.0000 0.39020  0.04640  0.18840  Biso   1.000  H
  C493     1.0000 0.36170  0.93020  0.25230  Biso   1.000  C
  C494     1.0000 0.28690  0.85330  0.27050  Biso   1.000  C
  H369     1.0000 0.25080  0.83470  0.26510  Biso   1.000  H
  H370     1.0000 0.29170  0.86530  0.29460  Biso   1.000  H
  H371     1.0000 0.30110  0.83100  0.26760  Biso   1.000  H
  C495     1.0000 0.39200  0.92570  0.28120  Biso   1.000  C
  H372     1.0000 0.37650  0.89890  0.29750  Biso   1.000  H
  C496     1.0000 0.44330  0.96130  0.28400  Biso   1.000  C
  C497     1.0000 0.47450  0.95810  0.31230  Biso   1.000  C
  C498     1.0000 0.52590  0.99700  0.31660  Biso   1.000  C
  C499     1.0000 0.55760  0.99050  0.34460  Biso   1.000  C
  H373     1.0000 0.54390  0.96080  0.35840  Biso   1.000  H
  C500     1.0000 0.60680  0.02930  0.34910  Biso   1.000  C
  C501     1.0000 0.62130  0.98260  0.39520  Biso   1.000  C
  H374     1.0000 0.61130  0.95310  0.38030  Biso   1.000  H
  H375     1.0000 0.59230  0.97780  0.40900  Biso   1.000  H
  H376     1.0000 0.64850  0.98670  0.41090  Biso   1.000  H
  C502     1.0000 0.62910  0.07460  0.32870  Biso   1.000  C
  C503     1.0000 0.70250  0.15710  0.32030  Biso   1.000  C
  H377     1.0000 0.69120  0.15180  0.29600  Biso   1.000  H
  H378     1.0000 0.73920  0.17090  0.32100  Biso   1.000  H
  H379     1.0000 0.69420  0.18090  0.33140  Biso   1.000  H
  C504     1.0000 0.60070  0.08070  0.30290  Biso   1.000  C
  H380     1.0000 0.61500  0.11110  0.28990  Biso   1.000  H
  C505     1.0000 0.54870  0.04050  0.29560  Biso   1.000  C
  C506     1.0000 0.45040  0.91270  0.33590  Biso   1.000  C
  C507     1.0000 0.44120  0.91650  0.37060  Biso   1.000  C
  H381     1.0000 0.45030  0.94890  0.37960  Biso   1.000  H
  C508     1.0000 0.41940  0.87580  0.39310  Biso   1.000  C
  H382     1.0000 0.41200  0.88020  0.41640  Biso   1.000  H
  C509     1.0000 0.40840  0.82750  0.38110  Biso   1.000  C
  C510     1.0000 0.38760  0.78150  0.40540  Biso   1.000  C
  C511     1.0000 0.41860  0.82220  0.34660  Biso   1.000  C
  H383     1.0000 0.41170  0.79010  0.33810  Biso   1.000  H
  C512     1.0000 0.43860  0.86360  0.32440  Biso   1.000  C
  H384     1.0000 0.44470  0.85910  0.30080  Biso   1.000  H
  Zn32     1.0000 0.26382  0.63260  0.47115  Biso   1.000  Zn
  O150     1.0000 0.25617  0.58353  0.50767  Biso   1.000  O
  O151     1.0000 0.05207  0.12393  0.77083  Biso   1.000  O
  O152     1.0000 0.31747  0.56603  0.49284  Biso   1.000  O
  O153     1.0000 0.03807  0.07023  0.72393  Biso   1.000  O
  O154     1.0000 0.02457  0.30573  0.53593  Biso   1.000  O
  O155     1.0000 0.97997  0.23093  0.57983  Biso   1.000  O
  O156     1.0000 0.34457  0.44343  0.67173  Biso   1.000  O
  O157     1.0000 0.30587  0.36043  0.70733  Biso   1.000  O
  C513     1.0000 0.27827  0.55573  0.50813  Biso   1.000  C
  C514     1.0000 0.25337  0.50943  0.53273  Biso   1.000  C
  C515     1.0000 0.21547  0.50203  0.55693  Biso   1.000  C
  H385     1.0000 0.20337  0.52523  0.55763  Biso   1.000  H
  C516     1.0000 0.19567  0.46133  0.57973  Biso   1.000  C
  H386     1.0000 0.17247  0.45873  0.59713  Biso   1.000  H
  C517     1.0000 0.20947  0.42393  0.57743  Biso   1.000  C
  C518     1.0000 0.24577  0.43043  0.55223  Biso   1.000  C
  H387     1.0000 0.25547  0.40543  0.55013  Biso   1.000  H
  C519     1.0000 0.26717  0.47073  0.53093  Biso   1.000  C
  H388     1.0000 0.29177  0.47373  0.51453  Biso   1.000  H
  C520     1.0000 0.18727  0.38023  0.60113  Biso   1.000  C
  C521     1.0000 0.13337  0.33903  0.59563  Biso   1.000  C
  C522     1.0000 0.10487  0.34333  0.56733  Biso   1.000  C
  H389     1.0000 0.11987  0.37193  0.55243  Biso   1.000  H
  C523     1.0000 0.05287  0.30373  0.56173  Biso   1.000  C
  C524     1.0000 0.04737  0.34763  0.51003  Biso   1.000  C
  H390     1.0000 0.02267  0.34153  0.49173  Biso   1.000  H
  H391     1.0000 0.07737  0.34913  0.49983  Biso   1.000  H
  H392     1.0000 0.05687  0.37973  0.52173  Biso   1.000  H
  C525     1.0000 0.02837  0.26353  0.58563  Biso   1.000  C
  C526     1.0000 0.95357  0.18663  0.60383  Biso   1.000  C
  H393     1.0000 0.91747  0.16803  0.59843  Biso   1.000  H
  H394     1.0000 0.95837  0.19863  0.62793  Biso   1.000  H
  H395     1.0000 0.96777  0.16433  0.60093  Biso   1.000  H
  C527     1.0000 0.05867  0.25903  0.61453  Biso   1.000  C
  H396     1.0000 0.04317  0.23223  0.63083  Biso   1.000  H
  C528     1.0000 0.10997  0.29463  0.61733  Biso   1.000  C
  C529     1.0000 0.14117  0.29143  0.64563  Biso   1.000  C
  C530     1.0000 0.19257  0.33033  0.64993  Biso   1.000  C
  C531     1.0000 0.22427  0.32383  0.67793  Biso   1.000  C
  H397     1.0000 0.21057  0.29413  0.69173  Biso   1.000  H
  C532     1.0000 0.27347  0.36263  0.68243  Biso   1.000  C
  C533     1.0000 0.28797  0.31593  0.72853  Biso   1.000  C
  H398     1.0000 0.27797  0.28643  0.71363  Biso   1.000  H
  H399     1.0000 0.25897  0.31113  0.74233  Biso   1.000  H
  H400     1.0000 0.31517  0.32003  0.74423  Biso   1.000  H
  C534     1.0000 0.29577  0.40793  0.66203  Biso   1.000  C
  C535     1.0000 0.36917  0.49043  0.65363  Biso   1.000  C
  H401     1.0000 0.35787  0.48513  0.62933  Biso   1.000  H
  H402     1.0000 0.40587  0.50423  0.65433  Biso   1.000  H
  H403     1.0000 0.36087  0.51423  0.66473  Biso   1.000  H
  C536     1.0000 0.26737  0.41403  0.63623  Biso   1.000  C
  H404     1.0000 0.28167  0.44443  0.62323  Biso   1.000  H
  C537     1.0000 0.21537  0.37383  0.62893  Biso   1.000  C
  C538     1.0000 0.11707  0.24603  0.66923  Biso   1.000  C
  C539     1.0000 0.10787  0.24983  0.70393  Biso   1.000  C
  H405     1.0000 0.11697  0.28223  0.71293  Biso   1.000  H
  C540     1.0000 0.08607  0.20913  0.72643  Biso   1.000  C
  H406     1.0000 0.07867  0.21353  0.74973  Biso   1.000  H
  C541     1.0000 0.07507  0.16083  0.71443  Biso   1.000  C
  C542     1.0000 0.05427  0.11483  0.73873  Biso   1.000  C
  C543     1.0000 0.08527  0.15553  0.67993  Biso   1.000  C
  H407     1.0000 0.07837  0.12343  0.67143  Biso   1.000  H
  C544     1.0000 0.10527  0.19693  0.65773  Biso   1.000  C
  H408     1.0000 0.11137  0.19243  0.63413  Biso   1.000  H
  Zn33     1.0000 0.93048  0.96594  0.80449  Biso   1.000  Zn
  O158     1.0000 0.92283  0.91687  0.84101  Biso   1.000  O
  O159     1.0000 0.71873  0.45727  0.10417  Biso   1.000  O
  O160     1.0000 0.98413  0.89937  0.82618  Biso   1.000  O
  O161     1.0000 0.70473  0.40357  0.05727  Biso   1.000  O
  O162     1.0000 0.69123  0.63907  0.86927  Biso   1.000  O
  O163     1.0000 0.64663  0.56427  0.91317  Biso   1.000  O
  O164     1.0000 0.01123  0.77677  0.00507  Biso   1.000  O
  O165     1.0000 0.97253  0.69377  0.04067  Biso   1.000  O
  C545     1.0000 0.94493  0.88907  0.84147  Biso   1.000  C
  C546     1.0000 0.92003  0.84277  0.86607  Biso   1.000  C
  C547     1.0000 0.88213  0.83537  0.89027  Biso   1.000  C
  H409     1.0000 0.87003  0.85857  0.89097  Biso   1.000  H
  C548     1.0000 0.86233  0.79467  0.91307  Biso   1.000  C
  H410     1.0000 0.83913  0.79207  0.93047  Biso   1.000  H
  C549     1.0000 0.87613  0.75727  0.91077  Biso   1.000  C
  C550     1.0000 0.91243  0.76377  0.88557  Biso   1.000  C
  H411     1.0000 0.92213  0.73877  0.88347  Biso   1.000  H
  C551     1.0000 0.93383  0.80407  0.86427  Biso   1.000  C
  H412     1.0000 0.95843  0.80707  0.84787  Biso   1.000  H
  C552     1.0000 0.85393  0.71357  0.93447  Biso   1.000  C
  C553     1.0000 0.80003  0.67237  0.92897  Biso   1.000  C
  C554     1.0000 0.77153  0.67667  0.90067  Biso   1.000  C
  H413     1.0000 0.78653  0.70527  0.88577  Biso   1.000  H
  C555     1.0000 0.71953  0.63707  0.89507  Biso   1.000  C
  C556     1.0000 0.71403  0.68097  0.84337  Biso   1.000  C
  H414     1.0000 0.68933  0.67487  0.82507  Biso   1.000  H
  H415     1.0000 0.74403  0.68247  0.83317  Biso   1.000  H
  H416     1.0000 0.72353  0.71307  0.85507  Biso   1.000  H
  C557     1.0000 0.69503  0.59687  0.91897  Biso   1.000  C
  C558     1.0000 0.62023  0.51997  0.93717  Biso   1.000  C
  H417     1.0000 0.58413  0.50137  0.93177  Biso   1.000  H
  H418     1.0000 0.62503  0.53197  0.96127  Biso   1.000  H
  H419     1.0000 0.63443  0.49767  0.93427  Biso   1.000  H
  C559     1.0000 0.72533  0.59237  0.94787  Biso   1.000  C
  H420     1.0000 0.70983  0.56557  0.96417  Biso   1.000  H
  C560     1.0000 0.77663  0.62797  0.95067  Biso   1.000  C
  C561     1.0000 0.80783  0.62477  0.97897  Biso   1.000  C
  C562     1.0000 0.85923  0.66367  0.98327  Biso   1.000  C
  C563     1.0000 0.89093  0.65717  0.01127  Biso   1.000  C
  H421     1.0000 0.87723  0.62747  0.02507  Biso   1.000  H
  C564     1.0000 0.94013  0.69597  0.01577  Biso   1.000  C
  C565     1.0000 0.95463  0.64927  0.06187  Biso   1.000  C
  H422     1.0000 0.94463  0.61977  0.04697  Biso   1.000  H
  H423     1.0000 0.92563  0.64447  0.07567  Biso   1.000  H
  H424     1.0000 0.98183  0.65337  0.07757  Biso   1.000  H
  C566     1.0000 0.96243  0.74127  0.99537  Biso   1.000  C
  C567     1.0000 0.03583  0.82377  0.98697  Biso   1.000  C
  H425     1.0000 0.02453  0.81847  0.96267  Biso   1.000  H
  H426     1.0000 0.07253  0.83757  0.98767  Biso   1.000  H
  H427     1.0000 0.02753  0.84757  0.99807  Biso   1.000  H
  C568     1.0000 0.93403  0.74737  0.96957  Biso   1.000  C
  H428     1.0000 0.94833  0.77777  0.95657  Biso   1.000  H
  C569     1.0000 0.88203  0.70717  0.96227  Biso   1.000  C
  C570     1.0000 0.78373  0.57937  0.00257  Biso   1.000  C
  C571     1.0000 0.77453  0.58317  0.03727  Biso   1.000  C
  H429     1.0000 0.78363  0.61557  0.04627  Biso   1.000  H
  C572     1.0000 0.75273  0.54247  0.05977  Biso   1.000  C
  H430     1.0000 0.74533  0.54687  0.08307  Biso   1.000  H
  C573     1.0000 0.74173  0.49417  0.04777  Biso   1.000  C
  C574     1.0000 0.72093  0.44817  0.07207  Biso   1.000  C
  C575     1.0000 0.75193  0.48887  0.01327  Biso   1.000  C
  H431     1.0000 0.74503  0.45677  0.00477  Biso   1.000  H
  C576     1.0000 0.77193  0.53027  0.99107  Biso   1.000  C
  H432     1.0000 0.77803  0.52577  0.96747  Biso   1.000  H
  Zn34     1.0000 0.66667  0.33333  0.06647  Biso   1.000  Zn
  O166     1.0000 0.66667  0.33333  0.11900  Biso   1.000  O
  Zn35     1.0000 0.33333  0.66667  0.39980  Biso   1.000  Zn
  O167     1.0000 0.33333  0.66667  0.45233  Biso   1.000  O
  Zn36     1.0000 0.00000  0.00000  0.73314  Biso   1.000  Zn
  O168     1.0000 0.00000  0.00000  0.78567  Biso   1.000  O
  Zn37     1.0000 0.29927  0.70212  0.86218  Biso   1.000  Zn
  O169     1.0000 0.25020  0.66070  0.82566  Biso   1.000  O
  O170     1.0000 0.79060  0.40520  0.56250  Biso   1.000  O
  O171     1.0000 0.23270  0.58190  0.84049  Biso   1.000  O
  O172     1.0000 0.73690  0.36550  0.60940  Biso   1.000  O
  O173     1.0000 0.97240  0.61450  0.79740  Biso   1.000  O
  O174     1.0000 0.89760  0.58430  0.75350  Biso   1.000  O
  O175     1.0000 0.11010  0.43220  0.66160  Biso   1.000  O
  O176     1.0000 0.02710  0.38790  0.62600  Biso   1.000  O
  C577     1.0000 0.22240  0.61080  0.82520  Biso   1.000  C
  C578     1.0000 0.17610  0.58940  0.80060  Biso   1.000  C
  C579     1.0000 0.16870  0.61990  0.77640  Biso   1.000  C
  H433     1.0000 0.19190  0.65520  0.77570  Biso   1.000  H
  C580     1.0000 0.12800  0.59900  0.75360  Biso   1.000  C
  H434     1.0000 0.12540  0.61960  0.73620  Biso   1.000  H
  C581     1.0000 0.09060  0.54780  0.75590  Biso   1.000  C
  C582     1.0000 0.09710  0.51800  0.78110  Biso   1.000  C
  H435     1.0000 0.07210  0.48330  0.78320  Biso   1.000  H
  C583     1.0000 0.13740  0.53690  0.80240  Biso   1.000  C
  H436     1.0000 0.14040  0.51530  0.81880  Biso   1.000  H
  C584     1.0000 0.04690  0.52630  0.73220  Biso   1.000  C
  C585     1.0000 0.00570  0.53900  0.73770  Biso   1.000  C
  C586     1.0000 0.01000  0.57180  0.76600  Biso   1.000  C
  H437     1.0000 0.03860  0.58540  0.78090  Biso   1.000  H
  C587     1.0000 0.97040  0.58420  0.77160  Biso   1.000  C
  C588     1.0000 0.01430  0.63360  0.82330  Biso   1.000  C
  H438     1.0000 0.00820  0.65220  0.84160  Biso   1.000  H
  H439     1.0000 0.01580  0.60510  0.83350  Biso   1.000  H
  H440     1.0000 0.04640  0.65620  0.81160  Biso   1.000  H
  C589     1.0000 0.93020  0.56850  0.74770  Biso   1.000  C
  C590     1.0000 0.85330  0.56640  0.72950  Biso   1.000  C
  H441     1.0000 0.83470  0.58390  0.73490  Biso   1.000  H
  H442     1.0000 0.86530  0.57360  0.70540  Biso   1.000  H
  H443     1.0000 0.83100  0.52990  0.73240  Biso   1.000  H
  C591     1.0000 0.92570  0.53370  0.71880  Biso   1.000  C
  H444     1.0000 0.89890  0.52240  0.70250  Biso   1.000  H
  C592     1.0000 0.96130  0.51800  0.71600  Biso   1.000  C
  C593     1.0000 0.95810  0.48360  0.68770  Biso   1.000  C
  C594     1.0000 0.99700  0.47110  0.68340  Biso   1.000  C
  C595     1.0000 0.99050  0.43290  0.65540  Biso   1.000  C
  H445     1.0000 0.96080  0.41690  0.64160  Biso   1.000  H
  C596     1.0000 0.02930  0.42250  0.65090  Biso   1.000  C
  C597     1.0000 0.98260  0.36130  0.60480  Biso   1.000  C
  H446     1.0000 0.95310  0.34180  0.61970  Biso   1.000  H
  H447     1.0000 0.97780  0.38550  0.59100  Biso   1.000  H
  H448     1.0000 0.98670  0.33820  0.58910  Biso   1.000  H
  C598     1.0000 0.07460  0.44550  0.67130  Biso   1.000  C
  C599     1.0000 0.15710  0.45460  0.67970  Biso   1.000  C
  H449     1.0000 0.15180  0.46060  0.70400  Biso   1.000  H
  H450     1.0000 0.17090  0.43170  0.67900  Biso   1.000  H
  H451     1.0000 0.18090  0.48670  0.66860  Biso   1.000  H
  C600     1.0000 0.08070  0.48000  0.69710  Biso   1.000  C
  H452     1.0000 0.11110  0.49610  0.71010  Biso   1.000  H
  C601     1.0000 0.04050  0.49180  0.70440  Biso   1.000  C
  C602     1.0000 0.91270  0.46230  0.66410  Biso   1.000  C
  C603     1.0000 0.91650  0.47530  0.62940  Biso   1.000  C
  H453     1.0000 0.94890  0.49860  0.62040  Biso   1.000  H
  C604     1.0000 0.87580  0.45640  0.60690  Biso   1.000  C
  H454     1.0000 0.88020  0.46820  0.58360  Biso   1.000  H
  C605     1.0000 0.82750  0.41910  0.61890  Biso   1.000  C
  C606     1.0000 0.78150  0.39390  0.59460  Biso   1.000  C
  C607     1.0000 0.82220  0.40360  0.65340  Biso   1.000  C
  H455     1.0000 0.79010  0.37840  0.66190  Biso   1.000  H
  C608     1.0000 0.86360  0.42500  0.67560  Biso   1.000  C
  H456     1.0000 0.85910  0.41440  0.69920  Biso   1.000  H
  Zn38     1.0000 0.96594  0.03545  0.19551  Biso   1.000  Zn
  O177     1.0000 0.91687  0.99403  0.15899  Biso   1.000  O
  O178     1.0000 0.45727  0.73853  0.89583  Biso   1.000  O
  O179     1.0000 0.89937  0.91523  0.17382  Biso   1.000  O
  O180     1.0000 0.40357  0.69883  0.94273  Biso   1.000  O
  O181     1.0000 0.63907  0.94783  0.13073  Biso   1.000  O
  O182     1.0000 0.56427  0.91763  0.08683  Biso   1.000  O
  O183     1.0000 0.77677  0.76553  0.99493  Biso   1.000  O
  O184     1.0000 0.69377  0.72123  0.95933  Biso   1.000  O
  C609     1.0000 0.88907  0.94413  0.15853  Biso   1.000  C
  C610     1.0000 0.84277  0.92273  0.13393  Biso   1.000  C
  C611     1.0000 0.83537  0.95323  0.10973  Biso   1.000  C
  H457     1.0000 0.85857  0.98853  0.10903  Biso   1.000  H
  C612     1.0000 0.79467  0.93233  0.08693  Biso   1.000  C
  H458     1.0000 0.79207  0.95293  0.06953  Biso   1.000  H
  C613     1.0000 0.75727  0.88113  0.08923  Biso   1.000  C
  C614     1.0000 0.76377  0.85133  0.11443  Biso   1.000  C
  H459     1.0000 0.73877  0.81663  0.11653  Biso   1.000  H
  C615     1.0000 0.80407  0.87023  0.13573  Biso   1.000  C
  H460     1.0000 0.80707  0.84863  0.15213  Biso   1.000  H
  C616     1.0000 0.71357  0.85963  0.06553  Biso   1.000  C
  C617     1.0000 0.67237  0.87233  0.07103  Biso   1.000  C
  C618     1.0000 0.67667  0.90513  0.09933  Biso   1.000  C
  H461     1.0000 0.70527  0.91873  0.11423  Biso   1.000  H
  C619     1.0000 0.63707  0.91753  0.10493  Biso   1.000  C
  C620     1.0000 0.68097  0.96693  0.15663  Biso   1.000  C
  H462     1.0000 0.67487  0.98553  0.17493  Biso   1.000  H
  H463     1.0000 0.68247  0.93843  0.16683  Biso   1.000  H
  H464     1.0000 0.71307  0.98953  0.14493  Biso   1.000  H
  C621     1.0000 0.59687  0.90183  0.08103  Biso   1.000  C
  C622     1.0000 0.51997  0.89973  0.06283  Biso   1.000  C
  H465     1.0000 0.50137  0.91723  0.06823  Biso   1.000  H
  H466     1.0000 0.53197  0.90693  0.03873  Biso   1.000  H
  H467     1.0000 0.49767  0.86323  0.06573  Biso   1.000  H
  C623     1.0000 0.59237  0.86703  0.05213  Biso   1.000  C
  H468     1.0000 0.56557  0.85573  0.03583  Biso   1.000  H
  C624     1.0000 0.62797  0.85133  0.04933  Biso   1.000  C
  C625     1.0000 0.62477  0.81693  0.02103  Biso   1.000  C
  C626     1.0000 0.66367  0.80443  0.01673  Biso   1.000  C
  C627     1.0000 0.65717  0.76623  0.98873  Biso   1.000  C
  H469     1.0000 0.62747  0.75023  0.97493  Biso   1.000  H
  C628     1.0000 0.69597  0.75583  0.98423  Biso   1.000  C
  C629     1.0000 0.64927  0.69463  0.93813  Biso   1.000  C
  H470     1.0000 0.61977  0.67513  0.95303  Biso   1.000  H
  H471     1.0000 0.64447  0.71883  0.92433  Biso   1.000  H
  H472     1.0000 0.65337  0.67153  0.92243  Biso   1.000  H
  C630     1.0000 0.74127  0.77883  0.00463  Biso   1.000  C
  C631     1.0000 0.82377  0.78793  0.01303  Biso   1.000  C
  H473     1.0000 0.81847  0.79393  0.03733  Biso   1.000  H
  H474     1.0000 0.83757  0.76503  0.01233  Biso   1.000  H
  H475     1.0000 0.84757  0.82003  0.00193  Biso   1.000  H
  C632     1.0000 0.74737  0.81333  0.03043  Biso   1.000  C
  H476     1.0000 0.77777  0.82943  0.04343  Biso   1.000  H
  C633     1.0000 0.70717  0.82513  0.03773  Biso   1.000  C
  C634     1.0000 0.57937  0.79563  0.99743  Biso   1.000  C
  C635     1.0000 0.58317  0.80863  0.96273  Biso   1.000  C
  H477     1.0000 0.61557  0.83193  0.95373  Biso   1.000  H
  C636     1.0000 0.54247  0.78973  0.94023  Biso   1.000  C
  H478     1.0000 0.54687  0.80153  0.91693  Biso   1.000  H
  C637     1.0000 0.49417  0.75243  0.95223  Biso   1.000  C
  C638     1.0000 0.44817  0.72723  0.92793  Biso   1.000  C
  C639     1.0000 0.48887  0.73693  0.98673  Biso   1.000  C
  H479     1.0000 0.45677  0.71173  0.99523  Biso   1.000  H
  C640     1.0000 0.53027  0.75833  0.00893  Biso   1.000  C
  H480     1.0000 0.52577  0.74773  0.03253  Biso   1.000  H
  Zn39     1.0000 0.63260  0.36879  0.52885  Biso   1.000  Zn
  O185     1.0000 0.58353  0.32737  0.49233  Biso   1.000  O
  O186     1.0000 0.12393  0.07187  0.22917  Biso   1.000  O
  O187     1.0000 0.56603  0.24857  0.50716  Biso   1.000  O
  O188     1.0000 0.07023  0.03217  0.27607  Biso   1.000  O
  O189     1.0000 0.30573  0.28117  0.46407  Biso   1.000  O
  O190     1.0000 0.23093  0.25097  0.42017  Biso   1.000  O
  O191     1.0000 0.44343  0.09887  0.32827  Biso   1.000  O
  O192     1.0000 0.36043  0.05457  0.29267  Biso   1.000  O
  C641     1.0000 0.55573  0.27747  0.49187  Biso   1.000  C
  C642     1.0000 0.50943  0.25607  0.46727  Biso   1.000  C
  C643     1.0000 0.50203  0.28657  0.44307  Biso   1.000  C
  H481     1.0000 0.52523  0.32187  0.44237  Biso   1.000  H
  C644     1.0000 0.46133  0.26567  0.42027  Biso   1.000  C
  H482     1.0000 0.45873  0.28627  0.40287  Biso   1.000  H
  C645     1.0000 0.42393  0.21447  0.42257  Biso   1.000  C
  C646     1.0000 0.43043  0.18467  0.44777  Biso   1.000  C
  H483     1.0000 0.40543  0.14997  0.44987  Biso   1.000  H
  C647     1.0000 0.47073  0.20357  0.46907  Biso   1.000  C
  H484     1.0000 0.47373  0.18197  0.48547  Biso   1.000  H
  C648     1.0000 0.38023  0.19297  0.39887  Biso   1.000  C
  C649     1.0000 0.33903  0.20567  0.40437  Biso   1.000  C
  C650     1.0000 0.34333  0.23847  0.43267  Biso   1.000  C
  H485     1.0000 0.37193  0.25207  0.44757  Biso   1.000  H
  C651     1.0000 0.30373  0.25087  0.43827  Biso   1.000  C
  C652     1.0000 0.34763  0.30027  0.48997  Biso   1.000  C
  H486     1.0000 0.34153  0.31887  0.50827  Biso   1.000  H
  H487     1.0000 0.34913  0.27177  0.50017  Biso   1.000  H
  H488     1.0000 0.37973  0.32287  0.47827  Biso   1.000  H
  C653     1.0000 0.26353  0.23517  0.41437  Biso   1.000  C
  C654     1.0000 0.18663  0.23307  0.39617  Biso   1.000  C
  H489     1.0000 0.16803  0.25057  0.40157  Biso   1.000  H
  H490     1.0000 0.19863  0.24027  0.37207  Biso   1.000  H
  H491     1.0000 0.16433  0.19657  0.39907  Biso   1.000  H
  C655     1.0000 0.25903  0.20037  0.38547  Biso   1.000  C
  H492     1.0000 0.23223  0.18907  0.36917  Biso   1.000  H
  C656     1.0000 0.29463  0.18467  0.38267  Biso   1.000  C
  C657     1.0000 0.29143  0.15027  0.35437  Biso   1.000  C
  C658     1.0000 0.33033  0.13777  0.35007  Biso   1.000  C
  C659     1.0000 0.32383  0.09957  0.32207  Biso   1.000  C
  H493     1.0000 0.29413  0.08357  0.30827  Biso   1.000  H
  C660     1.0000 0.36263  0.08917  0.31757  Biso   1.000  C
  C661     1.0000 0.31593  0.02797  0.27147  Biso   1.000  C
  H494     1.0000 0.28643  0.00847  0.28637  Biso   1.000  H
  H495     1.0000 0.31113  0.05217  0.25767  Biso   1.000  H
  H496     1.0000 0.32003  0.00487  0.25577  Biso   1.000  H
  C662     1.0000 0.40793  0.11217  0.33797  Biso   1.000  C
  C663     1.0000 0.49043  0.12127  0.34637  Biso   1.000  C
  H497     1.0000 0.48513  0.12727  0.37067  Biso   1.000  H
  H498     1.0000 0.50423  0.09837  0.34567  Biso   1.000  H
  H499     1.0000 0.51423  0.15337  0.33527  Biso   1.000  H
  C664     1.0000 0.41403  0.14667  0.36377  Biso   1.000  C
  H500     1.0000 0.44443  0.16277  0.37677  Biso   1.000  H
  C665     1.0000 0.37383  0.15847  0.37107  Biso   1.000  C
  C666     1.0000 0.24603  0.12897  0.33077  Biso   1.000  C
  C667     1.0000 0.24983  0.14197  0.29607  Biso   1.000  C
  H501     1.0000 0.28223  0.16527  0.28707  Biso   1.000  H
  C668     1.0000 0.20913  0.12307  0.27357  Biso   1.000  C
  H502     1.0000 0.21353  0.13487  0.25027  Biso   1.000  H
  C669     1.0000 0.16083  0.08577  0.28557  Biso   1.000  C
  C670     1.0000 0.11483  0.06057  0.26127  Biso   1.000  C
  C671     1.0000 0.15553  0.07027  0.32007  Biso   1.000  C
  H503     1.0000 0.12343  0.04507  0.32857  Biso   1.000  H
  C672     1.0000 0.19693  0.09167  0.34227  Biso   1.000  C
  H504     1.0000 0.19243  0.08107  0.36587  Biso   1.000  H
  Zn40     1.0000 0.29788  0.59715  0.86218  Biso   1.000  Zn
  O193     1.0000 0.33930  0.58950  0.82566  Biso   1.000  O
  O194     1.0000 0.59480  0.38540  0.56250  Biso   1.000  O
  O195     1.0000 0.41810  0.65080  0.84049  Biso   1.000  O
  O196     1.0000 0.63450  0.37140  0.60940  Biso   1.000  O
  O197     1.0000 0.38550  0.35790  0.79740  Biso   1.000  O
  O198     1.0000 0.41570  0.31330  0.75350  Biso   1.000  O
  O199     1.0000 0.56780  0.67790  0.66160  Biso   1.000  O
  O200     1.0000 0.61210  0.63920  0.62600  Biso   1.000  O
  C673     1.0000 0.38920  0.61160  0.82520  Biso   1.000  C
  C674     1.0000 0.41060  0.58670  0.80060  Biso   1.000  C
  C675     1.0000 0.38010  0.54880  0.77640  Biso   1.000  C
  H505     1.0000 0.34480  0.53670  0.77570  Biso   1.000  H
  C676     1.0000 0.40100  0.52900  0.75360  Biso   1.000  C
  H506     1.0000 0.38040  0.50580  0.73620  Biso   1.000  H
  C677     1.0000 0.45220  0.54280  0.75590  Biso   1.000  C
  C678     1.0000 0.48200  0.57910  0.78110  Biso   1.000  C
  H507     1.0000 0.51670  0.58880  0.78320  Biso   1.000  H
  C679     1.0000 0.46310  0.60050  0.80240  Biso   1.000  C
  H508     1.0000 0.48470  0.62510  0.81880  Biso   1.000  H
  C680     1.0000 0.47370  0.52060  0.73220  Biso   1.000  C
  C681     1.0000 0.46100  0.46670  0.73770  Biso   1.000  C
  C682     1.0000 0.42820  0.43820  0.76600  Biso   1.000  C
  H509     1.0000 0.41460  0.45320  0.78090  Biso   1.000  H
  C683     1.0000 0.41580  0.38620  0.77160  Biso   1.000  C
  C684     1.0000 0.36640  0.38070  0.82330  Biso   1.000  C
  H510     1.0000 0.34780  0.35600  0.84160  Biso   1.000  H
  H511     1.0000 0.39490  0.41070  0.83350  Biso   1.000  H
  H512     1.0000 0.34380  0.39020  0.81160  Biso   1.000  H
  C685     1.0000 0.43150  0.36170  0.74770  Biso   1.000  C
  C686     1.0000 0.43360  0.28690  0.72950  Biso   1.000  C
  H513     1.0000 0.41610  0.25080  0.73490  Biso   1.000  H
  H514     1.0000 0.42640  0.29170  0.70540  Biso   1.000  H
  H515     1.0000 0.47010  0.30110  0.73240  Biso   1.000  H
  C687     1.0000 0.46630  0.39200  0.71880  Biso   1.000  C
  H516     1.0000 0.47760  0.37650  0.70250  Biso   1.000  H
  C688     1.0000 0.48200  0.44330  0.71600  Biso   1.000  C
  C689     1.0000 0.51640  0.47450  0.68770  Biso   1.000  C
  C690     1.0000 0.52890  0.52590  0.68340  Biso   1.000  C
  C691     1.0000 0.56710  0.55760  0.65540  Biso   1.000  C
  H517     1.0000 0.58310  0.54390  0.64160  Biso   1.000  H
  C692     1.0000 0.57750  0.60680  0.65090  Biso   1.000  C
  C693     1.0000 0.63870  0.62130  0.60480  Biso   1.000  C
  H518     1.0000 0.65820  0.61130  0.61970  Biso   1.000  H
  H519     1.0000 0.61450  0.59230  0.59100  Biso   1.000  H
  H520     1.0000 0.66180  0.64850  0.58910  Biso   1.000  H
  C694     1.0000 0.55450  0.62910  0.67130  Biso   1.000  C
  C695     1.0000 0.54540  0.70250  0.67970  Biso   1.000  C
  H521     1.0000 0.53940  0.69120  0.70400  Biso   1.000  H
  H522     1.0000 0.56830  0.73920  0.67900  Biso   1.000  H
  H523     1.0000 0.51330  0.69420  0.66860  Biso   1.000  H
  C696     1.0000 0.52000  0.60070  0.69710  Biso   1.000  C
  H524     1.0000 0.50390  0.61500  0.71010  Biso   1.000  H
  C697     1.0000 0.50820  0.54870  0.70440  Biso   1.000  C
  C698     1.0000 0.53770  0.45040  0.66410  Biso   1.000  C
  C699     1.0000 0.52470  0.44120  0.62940  Biso   1.000  C
  H525     1.0000 0.50140  0.45030  0.62040  Biso   1.000  H
  C700     1.0000 0.54360  0.41940  0.60690  Biso   1.000  C
  H526     1.0000 0.53180  0.41200  0.58360  Biso   1.000  H
  C701     1.0000 0.58090  0.40840  0.61890  Biso   1.000  C
  C702     1.0000 0.60610  0.38760  0.59460  Biso   1.000  C
  C703     1.0000 0.59640  0.41860  0.65340  Biso   1.000  C
  H527     1.0000 0.62160  0.41170  0.66190  Biso   1.000  H
  C704     1.0000 0.57500  0.43860  0.67560  Biso   1.000  C
  H528     1.0000 0.58560  0.44470  0.69920  Biso   1.000  H
  Zn41     1.0000 0.96455  0.93048  0.19551  Biso   1.000  Zn
  O201     1.0000 0.00597  0.92283  0.15899  Biso   1.000  O
  O202     1.0000 0.26147  0.71873  0.89583  Biso   1.000  O
  O203     1.0000 0.08477  0.98413  0.17382  Biso   1.000  O
  O204     1.0000 0.30117  0.70473  0.94273  Biso   1.000  O
  O205     1.0000 0.05217  0.69123  0.13073  Biso   1.000  O
  O206     1.0000 0.08237  0.64663  0.08683  Biso   1.000  O
  O207     1.0000 0.23447  0.01123  0.99493  Biso   1.000  O
  O208     1.0000 0.27877  0.97253  0.95933  Biso   1.000  O
  C705     1.0000 0.05587  0.94493  0.15853  Biso   1.000  C
  C706     1.0000 0.07727  0.92003  0.13393  Biso   1.000  C
  C707     1.0000 0.04677  0.88213  0.10973  Biso   1.000  C
  H529     1.0000 0.01147  0.87003  0.10903  Biso   1.000  H
  C708     1.0000 0.06767  0.86233  0.08693  Biso   1.000  C
  H530     1.0000 0.04707  0.83913  0.06953  Biso   1.000  H
  C709     1.0000 0.11887  0.87613  0.08923  Biso   1.000  C
  C710     1.0000 0.14867  0.91243  0.11443  Biso   1.000  C
  H531     1.0000 0.18337  0.92213  0.11653  Biso   1.000  H
  C711     1.0000 0.12977  0.93383  0.13573  Biso   1.000  C
  H532     1.0000 0.15137  0.95843  0.15213  Biso   1.000  H
  C712     1.0000 0.14037  0.85393  0.06553  Biso   1.000  C
  C713     1.0000 0.12767  0.80003  0.07103  Biso   1.000  C
  C714     1.0000 0.09487  0.77153  0.09933  Biso   1.000  C
  H533     1.0000 0.08127  0.78653  0.11423  Biso   1.000  H
  C715     1.0000 0.08247  0.71953  0.10493  Biso   1.000  C
  C716     1.0000 0.03307  0.71403  0.15663  Biso   1.000  C
  H534     1.0000 0.01447  0.68933  0.17493  Biso   1.000  H
  H535     1.0000 0.06157  0.74403  0.16683  Biso   1.000  H
  H536     1.0000 0.01047  0.72353  0.14493  Biso   1.000  H
  C717     1.0000 0.09817  0.69503  0.08103  Biso   1.000  C
  C718     1.0000 0.10027  0.62023  0.06283  Biso   1.000  C
  H537     1.0000 0.08277  0.58413  0.06823  Biso   1.000  H
  H538     1.0000 0.09307  0.62503  0.03873  Biso   1.000  H
  H539     1.0000 0.13677  0.63443  0.06573  Biso   1.000  H
  C719     1.0000 0.13297  0.72533  0.05213  Biso   1.000  C
  H540     1.0000 0.14427  0.70983  0.03583  Biso   1.000  H
  C720     1.0000 0.14867  0.77663  0.04933  Biso   1.000  C
  C721     1.0000 0.18307  0.80783  0.02103  Biso   1.000  C
  C722     1.0000 0.19557  0.85923  0.01673  Biso   1.000  C
  C723     1.0000 0.23377  0.89093  0.98873  Biso   1.000  C
  H541     1.0000 0.24977  0.87723  0.97493  Biso   1.000  H
  C724     1.0000 0.24417  0.94013  0.98423  Biso   1.000  C
  C725     1.0000 0.30537  0.95463  0.93813  Biso   1.000  C
  H542     1.0000 0.32487  0.94463  0.95303  Biso   1.000  H
  H543     1.0000 0.28117  0.92563  0.92433  Biso   1.000  H
  H544     1.0000 0.32847  0.98183  0.92243  Biso   1.000  H
  C726     1.0000 0.22117  0.96243  0.00463  Biso   1.000  C
  C727     1.0000 0.21207  0.03583  0.01303  Biso   1.000  C
  H545     1.0000 0.20607  0.02453  0.03733  Biso   1.000  H
  H546     1.0000 0.23497  0.07253  0.01233  Biso   1.000  H
  H547     1.0000 0.17997  0.02753  0.00193  Biso   1.000  H
  C728     1.0000 0.18667  0.93403  0.03043  Biso   1.000  C
  H548     1.0000 0.17057  0.94833  0.04343  Biso   1.000  H
  C729     1.0000 0.17487  0.88203  0.03773  Biso   1.000  C
  C730     1.0000 0.20437  0.78373  0.99743  Biso   1.000  C
  C731     1.0000 0.19137  0.77453  0.96273  Biso   1.000  C
  H549     1.0000 0.16807  0.78363  0.95373  Biso   1.000  H
  C732     1.0000 0.21027  0.75273  0.94023  Biso   1.000  C
  H550     1.0000 0.19847  0.74533  0.91693  Biso   1.000  H
  C733     1.0000 0.24757  0.74173  0.95223  Biso   1.000  C
  C734     1.0000 0.27277  0.72093  0.92793  Biso   1.000  C
  C735     1.0000 0.26307  0.75193  0.98673  Biso   1.000  C
  H551     1.0000 0.28827  0.74503  0.99523  Biso   1.000  H
  C736     1.0000 0.24167  0.77193  0.00893  Biso   1.000  C
  H552     1.0000 0.25227  0.77803  0.03253  Biso   1.000  H
  Zn42     1.0000 0.63121  0.26382  0.52885  Biso   1.000  Zn
  O209     1.0000 0.67263  0.25617  0.49233  Biso   1.000  O
  O210     1.0000 0.92813  0.05207  0.22917  Biso   1.000  O
  O211     1.0000 0.75143  0.31747  0.50716  Biso   1.000  O
  O212     1.0000 0.96783  0.03807  0.27607  Biso   1.000  O
  O213     1.0000 0.71883  0.02457  0.46407  Biso   1.000  O
  O214     1.0000 0.74903  0.97997  0.42017  Biso   1.000  O
  O215     1.0000 0.90113  0.34457  0.32827  Biso   1.000  O
  O216     1.0000 0.94543  0.30587  0.29267  Biso   1.000  O
  C737     1.0000 0.72253  0.27827  0.49187  Biso   1.000  C
  C738     1.0000 0.74393  0.25337  0.46727  Biso   1.000  C
  C739     1.0000 0.71343  0.21547  0.44307  Biso   1.000  C
  H553     1.0000 0.67813  0.20337  0.44237  Biso   1.000  H
  C740     1.0000 0.73433  0.19567  0.42027  Biso   1.000  C
  H554     1.0000 0.71373  0.17247  0.40287  Biso   1.000  H
  C741     1.0000 0.78553  0.20947  0.42257  Biso   1.000  C
  C742     1.0000 0.81533  0.24577  0.44777  Biso   1.000  C
  H555     1.0000 0.85003  0.25547  0.44987  Biso   1.000  H
  C743     1.0000 0.79643  0.26717  0.46907  Biso   1.000  C
  H556     1.0000 0.81803  0.29177  0.48547  Biso   1.000  H
  C744     1.0000 0.80703  0.18727  0.39887  Biso   1.000  C
  C745     1.0000 0.79433  0.13337  0.40437  Biso   1.000  C
  C746     1.0000 0.76153  0.10487  0.43267  Biso   1.000  C
  H557     1.0000 0.74793  0.11987  0.44757  Biso   1.000  H
  C747     1.0000 0.74913  0.05287  0.43827  Biso   1.000  C
  C748     1.0000 0.69973  0.04737  0.48997  Biso   1.000  C
  H558     1.0000 0.68113  0.02267  0.50827  Biso   1.000  H
  H559     1.0000 0.72823  0.07737  0.50017  Biso   1.000  H
  H560     1.0000 0.67713  0.05687  0.47827  Biso   1.000  H
  C749     1.0000 0.76483  0.02837  0.41437  Biso   1.000  C
  C750     1.0000 0.76693  0.95357  0.39617  Biso   1.000  C
  H561     1.0000 0.74943  0.91747  0.40157  Biso   1.000  H
  H562     1.0000 0.75973  0.95837  0.37207  Biso   1.000  H
  H563     1.0000 0.80343  0.96777  0.39907  Biso   1.000  H
  C751     1.0000 0.79963  0.05867  0.38547  Biso   1.000  C
  H564     1.0000 0.81093  0.04317  0.36917  Biso   1.000  H
  C752     1.0000 0.81533  0.10997  0.38267  Biso   1.000  C
  C753     1.0000 0.84973  0.14117  0.35437  Biso   1.000  C
  C754     1.0000 0.86223  0.19257  0.35007  Biso   1.000  C
  C755     1.0000 0.90043  0.22427  0.32207  Biso   1.000  C
  H565     1.0000 0.91643  0.21057  0.30827  Biso   1.000  H
  C756     1.0000 0.91083  0.27347  0.31757  Biso   1.000  C
  C757     1.0000 0.97203  0.28797  0.27147  Biso   1.000  C
  H566     1.0000 0.99153  0.27797  0.28637  Biso   1.000  H
  H567     1.0000 0.94783  0.25897  0.25767  Biso   1.000  H
  H568     1.0000 0.99513  0.31517  0.25577  Biso   1.000  H
  C758     1.0000 0.88783  0.29577  0.33797  Biso   1.000  C
  C759     1.0000 0.87873  0.36917  0.34637  Biso   1.000  C
  H569     1.0000 0.87273  0.35787  0.37067  Biso   1.000  H
  H570     1.0000 0.90163  0.40587  0.34567  Biso   1.000  H
  H571     1.0000 0.84663  0.36087  0.33527  Biso   1.000  H
  C760     1.0000 0.85333  0.26737  0.36377  Biso   1.000  C
  H572     1.0000 0.83723  0.28167  0.37677  Biso   1.000  H
  C761     1.0000 0.84153  0.21537  0.37107  Biso   1.000  C
  C762     1.0000 0.87103  0.11707  0.33077  Biso   1.000  C
  C763     1.0000 0.85803  0.10787  0.29607  Biso   1.000  C
  H573     1.0000 0.83473  0.11697  0.28707  Biso   1.000  H
  C764     1.0000 0.87693  0.08607  0.27357  Biso   1.000  C
  H574     1.0000 0.86513  0.07867  0.25027  Biso   1.000  H
  C765     1.0000 0.91423  0.07507  0.28557  Biso   1.000  C
  C766     1.0000 0.93943  0.05427  0.26127  Biso   1.000  C
  C767     1.0000 0.92973  0.08527  0.32007  Biso   1.000  C
  H575     1.0000 0.95493  0.07837  0.32857  Biso   1.000  H
  C768     1.0000 0.90833  0.10527  0.34227  Biso   1.000  C
  H576     1.0000 0.91893  0.11137  0.36587  Biso   1.000  H
  Zn43     1.0000 0.40285  0.70073  0.86218  Biso   1.000  Zn
  O217     1.0000 0.41050  0.74980  0.82566  Biso   1.000  O
  O218     1.0000 0.61460  0.20940  0.56250  Biso   1.000  O
  O219     1.0000 0.34920  0.76730  0.84049  Biso   1.000  O
  O220     1.0000 0.62860  0.26310  0.60940  Biso   1.000  O
  O221     1.0000 0.64210  0.02760  0.79740  Biso   1.000  O
  O222     1.0000 0.68670  0.10240  0.75350  Biso   1.000  O
  O223     1.0000 0.32210  0.88990  0.66160  Biso   1.000  O
  O224     1.0000 0.36080  0.97290  0.62600  Biso   1.000  O
  C769     1.0000 0.38840  0.77760  0.82520  Biso   1.000  C
  C770     1.0000 0.41330  0.82390  0.80060  Biso   1.000  C
  C771     1.0000 0.45120  0.83130  0.77640  Biso   1.000  C
  H577     1.0000 0.46330  0.80810  0.77570  Biso   1.000  H
  C772     1.0000 0.47100  0.87200  0.75360  Biso   1.000  C
  H578     1.0000 0.49420  0.87460  0.73620  Biso   1.000  H
  C773     1.0000 0.45720  0.90940  0.75590  Biso   1.000  C
  C774     1.0000 0.42090  0.90290  0.78110  Biso   1.000  C
  H579     1.0000 0.41120  0.92790  0.78320  Biso   1.000  H
  C775     1.0000 0.39950  0.86260  0.80240  Biso   1.000  C
  H580     1.0000 0.37490  0.85960  0.81880  Biso   1.000  H
  C776     1.0000 0.47940  0.95310  0.73220  Biso   1.000  C
  C777     1.0000 0.53330  0.99430  0.73770  Biso   1.000  C
  C778     1.0000 0.56180  0.99000  0.76600  Biso   1.000  C
  H581     1.0000 0.54680  0.96140  0.78090  Biso   1.000  H
  C779     1.0000 0.61380  0.02960  0.77160  Biso   1.000  C
  C780     1.0000 0.61930  0.98570  0.82330  Biso   1.000  C
  H582     1.0000 0.64400  0.99180  0.84160  Biso   1.000  H
  H583     1.0000 0.58930  0.98420  0.83350  Biso   1.000  H
  H584     1.0000 0.60980  0.95360  0.81160  Biso   1.000  H
  C781     1.0000 0.63830  0.06980  0.74770  Biso   1.000  C
  C782     1.0000 0.71310  0.14670  0.72950  Biso   1.000  C
  H585     1.0000 0.74920  0.16530  0.73490  Biso   1.000  H
  H586     1.0000 0.70830  0.13470  0.70540  Biso   1.000  H
  H587     1.0000 0.69890  0.16900  0.73240  Biso   1.000  H
  C783     1.0000 0.60800  0.07430  0.71880  Biso   1.000  C
  H588     1.0000 0.62350  0.10110  0.70250  Biso   1.000  H
  C784     1.0000 0.55670  0.03870  0.71600  Biso   1.000  C
  C785     1.0000 0.52550  0.04190  0.68770  Biso   1.000  C
  C786     1.0000 0.47410  0.00300  0.68340  Biso   1.000  C
  C787     1.0000 0.44240  0.00950  0.65540  Biso   1.000  C
  H589     1.0000 0.45610  0.03920  0.64160  Biso   1.000  H
  C788     1.0000 0.39320  0.97070  0.65090  Biso   1.000  C
  C789     1.0000 0.37870  0.01740  0.60480  Biso   1.000  C
  H590     1.0000 0.38870  0.04690  0.61970  Biso   1.000  H
  H591     1.0000 0.40770  0.02220  0.59100  Biso   1.000  H
  H592     1.0000 0.35150  0.01330  0.58910  Biso   1.000  H
  C790     1.0000 0.37090  0.92540  0.67130  Biso   1.000  C
  C791     1.0000 0.29750  0.84290  0.67970  Biso   1.000  C
  H593     1.0000 0.30880  0.84820  0.70400  Biso   1.000  H
  H594     1.0000 0.26080  0.82910  0.67900  Biso   1.000  H
  H595     1.0000 0.30580  0.81910  0.66860  Biso   1.000  H
  C792     1.0000 0.39930  0.91930  0.69710  Biso   1.000  C
  H596     1.0000 0.38500  0.88890  0.71010  Biso   1.000  H
  C793     1.0000 0.45130  0.95950  0.70440  Biso   1.000  C
  C794     1.0000 0.54960  0.08730  0.66410  Biso   1.000  C
  C795     1.0000 0.55880  0.08350  0.62940  Biso   1.000  C
  H597     1.0000 0.54970  0.05110  0.62040  Biso   1.000  H
  C796     1.0000 0.58060  0.12420  0.60690  Biso   1.000  C
  H598     1.0000 0.58800  0.11980  0.58360  Biso   1.000  H
  C797     1.0000 0.59160  0.17250  0.61890  Biso   1.000  C
  C798     1.0000 0.61240  0.21850  0.59460  Biso   1.000  C
  C799     1.0000 0.58140  0.17780  0.65340  Biso   1.000  C
  H599     1.0000 0.58830  0.20990  0.66190  Biso   1.000  H
  C800     1.0000 0.56140  0.13640  0.67560  Biso   1.000  C
  H600     1.0000 0.55530  0.14090  0.69920  Biso   1.000  H
  Zn44     1.0000 0.06952  0.03406  0.19551  Biso   1.000  Zn
  O225     1.0000 0.07717  0.08313  0.15899  Biso   1.000  O
  O226     1.0000 0.28127  0.54273  0.89583  Biso   1.000  O
  O227     1.0000 0.01587  0.10063  0.17382  Biso   1.000  O
  O228     1.0000 0.29527  0.59643  0.94273  Biso   1.000  O
  O229     1.0000 0.30877  0.36093  0.13073  Biso   1.000  O
  O230     1.0000 0.35337  0.43573  0.08683  Biso   1.000  O
  O231     1.0000 0.98877  0.22323  0.99493  Biso   1.000  O
  O232     1.0000 0.02747  0.30623  0.95933  Biso   1.000  O
  C801     1.0000 0.05507  0.11093  0.15853  Biso   1.000  C
  C802     1.0000 0.07997  0.15723  0.13393  Biso   1.000  C
  C803     1.0000 0.11787  0.16463  0.10973  Biso   1.000  C
  H601     1.0000 0.12997  0.14143  0.10903  Biso   1.000  H
  C804     1.0000 0.13767  0.20533  0.08693  Biso   1.000  C
  H602     1.0000 0.16087  0.20793  0.06953  Biso   1.000  H
  C805     1.0000 0.12387  0.24273  0.08923  Biso   1.000  C
  C806     1.0000 0.08757  0.23623  0.11443  Biso   1.000  C
  H603     1.0000 0.07787  0.26123  0.11653  Biso   1.000  H
  C807     1.0000 0.06617  0.19593  0.13573  Biso   1.000  C
  H604     1.0000 0.04157  0.19293  0.15213  Biso   1.000  H
  C808     1.0000 0.14607  0.28643  0.06553  Biso   1.000  C
  C809     1.0000 0.19997  0.32763  0.07103  Biso   1.000  C
  C810     1.0000 0.22847  0.32333  0.09933  Biso   1.000  C
  H605     1.0000 0.21347  0.29473  0.11423  Biso   1.000  H
  C811     1.0000 0.28047  0.36293  0.10493  Biso   1.000  C
  C812     1.0000 0.28597  0.31903  0.15663  Biso   1.000  C
  H606     1.0000 0.31067  0.32513  0.17493  Biso   1.000  H
  H607     1.0000 0.25597  0.31753  0.16683  Biso   1.000  H
  H608     1.0000 0.27647  0.28693  0.14493  Biso   1.000  H
  C813     1.0000 0.30497  0.40313  0.08103  Biso   1.000  C
  C814     1.0000 0.37977  0.48003  0.06283  Biso   1.000  C
  H609     1.0000 0.41587  0.49863  0.06823  Biso   1.000  H
  H610     1.0000 0.37497  0.46803  0.03873  Biso   1.000  H
  H611     1.0000 0.36557  0.50233  0.06573  Biso   1.000  H
  C815     1.0000 0.27467  0.40763  0.05213  Biso   1.000  C
  H612     1.0000 0.29017  0.43443  0.03583  Biso   1.000  H
  C816     1.0000 0.22337  0.37203  0.04933  Biso   1.000  C
  C817     1.0000 0.19217  0.37523  0.02103  Biso   1.000  C
  C818     1.0000 0.14077  0.33633  0.01673  Biso   1.000  C
  C819     1.0000 0.10907  0.34283  0.98873  Biso   1.000  C
  H613     1.0000 0.12277  0.37253  0.97493  Biso   1.000  H
  C820     1.0000 0.05987  0.30403  0.98423  Biso   1.000  C
  C821     1.0000 0.04537  0.35073  0.93813  Biso   1.000  C
  H614     1.0000 0.05537  0.38023  0.95303  Biso   1.000  H
  H615     1.0000 0.07437  0.35553  0.92433  Biso   1.000  H
  H616     1.0000 0.01817  0.34663  0.92243  Biso   1.000  H
  C822     1.0000 0.03757  0.25873  0.00463  Biso   1.000  C
  C823     1.0000 0.96417  0.17623  0.01303  Biso   1.000  C
  H617     1.0000 0.97547  0.18153  0.03733  Biso   1.000  H
  H618     1.0000 0.92747  0.16243  0.01233  Biso   1.000  H
  H619     1.0000 0.97247  0.15243  0.00193  Biso   1.000  H
  C824     1.0000 0.06597  0.25263  0.03043  Biso   1.000  C
  H620     1.0000 0.05167  0.22223  0.04343  Biso   1.000  H
  C825     1.0000 0.11797  0.29283  0.03773  Biso   1.000  C
  C826     1.0000 0.21627  0.42063  0.99743  Biso   1.000  C
  C827     1.0000 0.22547  0.41683  0.96273  Biso   1.000  C
  H621     1.0000 0.21637  0.38443  0.95373  Biso   1.000  H
  C828     1.0000 0.24727  0.45753  0.94023  Biso   1.000  C
  H622     1.0000 0.25467  0.45313  0.91693  Biso   1.000  H
  C829     1.0000 0.25827  0.50583  0.95223  Biso   1.000  C
  C830     1.0000 0.27907  0.55183  0.92793  Biso   1.000  C
  C831     1.0000 0.24807  0.51113  0.98673  Biso   1.000  C
  H623     1.0000 0.25497  0.54323  0.99523  Biso   1.000  H
  C832     1.0000 0.22807  0.46973  0.00893  Biso   1.000  C
  H624     1.0000 0.22197  0.47423  0.03253  Biso   1.000  H
  Zn45     1.0000 0.73618  0.36740  0.52885  Biso   1.000  Zn
  O233     1.0000 0.74383  0.41647  0.49233  Biso   1.000  O
  O234     1.0000 0.94793  0.87607  0.22917  Biso   1.000  O
  O235     1.0000 0.68253  0.43397  0.50716  Biso   1.000  O
  O236     1.0000 0.96193  0.92977  0.27607  Biso   1.000  O
  O237     1.0000 0.97543  0.69427  0.46407  Biso   1.000  O
  O238     1.0000 0.02003  0.76907  0.42017  Biso   1.000  O
  O239     1.0000 0.65543  0.55657  0.32827  Biso   1.000  O
  O240     1.0000 0.69413  0.63957  0.29267  Biso   1.000  O
  C833     1.0000 0.72173  0.44427  0.49187  Biso   1.000  C
  C834     1.0000 0.74663  0.49057  0.46727  Biso   1.000  C
  C835     1.0000 0.78453  0.49797  0.44307  Biso   1.000  C
  H625     1.0000 0.79663  0.47477  0.44237  Biso   1.000  H
  C836     1.0000 0.80433  0.53867  0.42027  Biso   1.000  C
  H626     1.0000 0.82753  0.54127  0.40287  Biso   1.000  H
  C837     1.0000 0.79053  0.57607  0.42257  Biso   1.000  C
  C838     1.0000 0.75423  0.56957  0.44777  Biso   1.000  C
  H627     1.0000 0.74453  0.59457  0.44987  Biso   1.000  H
  C839     1.0000 0.73283  0.52927  0.46907  Biso   1.000  C
  H628     1.0000 0.70823  0.52627  0.48547  Biso   1.000  H
  C840     1.0000 0.81273  0.61977  0.39887  Biso   1.000  C
  C841     1.0000 0.86663  0.66097  0.40437  Biso   1.000  C
  C842     1.0000 0.89513  0.65667  0.43267  Biso   1.000  C
  H629     1.0000 0.88013  0.62807  0.44757  Biso   1.000  H
  C843     1.0000 0.94713  0.69627  0.43827  Biso   1.000  C
  C844     1.0000 0.95263  0.65237  0.48997  Biso   1.000  C
  H630     1.0000 0.97733  0.65847  0.50827  Biso   1.000  H
  H631     1.0000 0.92263  0.65087  0.50017  Biso   1.000  H
  H632     1.0000 0.94313  0.62027  0.47827  Biso   1.000  H
  C845     1.0000 0.97163  0.73647  0.41437  Biso   1.000  C
  C846     1.0000 0.04643  0.81337  0.39617  Biso   1.000  C
  H633     1.0000 0.08253  0.83197  0.40157  Biso   1.000  H
  H634     1.0000 0.04163  0.80137  0.37207  Biso   1.000  H
  H635     1.0000 0.03223  0.83567  0.39907  Biso   1.000  H
  C847     1.0000 0.94133  0.74097  0.38547  Biso   1.000  C
  H636     1.0000 0.95683  0.76777  0.36917  Biso   1.000  H
  C848     1.0000 0.89003  0.70537  0.38267  Biso   1.000  C
  C849     1.0000 0.85883  0.70857  0.35437  Biso   1.000  C
  C850     1.0000 0.80743  0.66967  0.35007  Biso   1.000  C
  C851     1.0000 0.77573  0.67617  0.32207  Biso   1.000  C
  H637     1.0000 0.78943  0.70587  0.30827  Biso   1.000  H
  C852     1.0000 0.72653  0.63737  0.31757  Biso   1.000  C
  C853     1.0000 0.71203  0.68407  0.27147  Biso   1.000  C
  H638     1.0000 0.72203  0.71357  0.28637  Biso   1.000  H
  H639     1.0000 0.74103  0.68887  0.25767  Biso   1.000  H
  H640     1.0000 0.68483  0.67997  0.25577  Biso   1.000  H
  C854     1.0000 0.70423  0.59207  0.33797  Biso   1.000  C
  C855     1.0000 0.63083  0.50957  0.34637  Biso   1.000  C
  H641     1.0000 0.64213  0.51487  0.37067  Biso   1.000  H
  H642     1.0000 0.59413  0.49577  0.34567  Biso   1.000  H
  H643     1.0000 0.63913  0.48577  0.33527  Biso   1.000  H
  C856     1.0000 0.73263  0.58597  0.36377  Biso   1.000  C
  H644     1.0000 0.71833  0.55557  0.37677  Biso   1.000  H
  C857     1.0000 0.78463  0.62617  0.37107  Biso   1.000  C
  C858     1.0000 0.88293  0.75397  0.33077  Biso   1.000  C
  C859     1.0000 0.89213  0.75017  0.29607  Biso   1.000  C
  H645     1.0000 0.88303  0.71777  0.28707  Biso   1.000  H
  C860     1.0000 0.91393  0.79087  0.27357  Biso   1.000  C
  H646     1.0000 0.92133  0.78647  0.25027  Biso   1.000  H
  C861     1.0000 0.92493  0.83917  0.28557  Biso   1.000  C
  C862     1.0000 0.94573  0.88517  0.26127  Biso   1.000  C
  C863     1.0000 0.91473  0.84447  0.32007  Biso   1.000  C
  H647     1.0000 0.92163  0.87657  0.32857  Biso   1.000  H
  C864     1.0000 0.89473  0.80307  0.34227  Biso   1.000  C
  H648     1.0000 0.88863  0.80757  0.36587  Biso   1.000  H
  Zn46     1.0000 0.33333  0.66667  0.93353  Biso   1.000  Zn
  O241     1.0000 0.33333  0.66667  0.88100  Biso   1.000  O
  Zn47     1.0000 0.00000  0.00000  0.26686  Biso   1.000  Zn
  O242     1.0000 0.00000  0.00000  0.21433  Biso   1.000  O
  Zn48     1.0000 0.66667  0.33333  0.60020  Biso   1.000  Zn
  O243     1.0000 0.66667  0.33333  0.54767  Biso   1.000  O
