data_image0
_cell_length_a       21.21
_cell_length_b       36.41
_cell_length_c       19.419
_cell_angle_alpha    90
_cell_angle_beta     94.425
_cell_angle_gamma    90

_symmetry_space_group_name_H-M    "P 1"
_symmetry_int_tables_number       1

loop_
  _symmetry_equiv_pos_as_xyz
  'x, y, z'

loop_
  _atom_site_label
  _atom_site_occupancy
  _atom_site_fract_x
  _atom_site_fract_y
  _atom_site_fract_z
  _atom_site_thermal_displace_type
  _atom_site_B_iso_or_equiv
  _atom_site_type_symbol
  C1       1.0000 0.76020  0.54920  0.72320  Biso   1.000  C
  H1       1.0000 0.79060  0.55510  0.75860  Biso   1.000  H
  C2       1.0000 0.25200  0.20810  0.00780  Biso   1.000  C
  H2       1.0000 0.21860  0.22110  0.02440  Biso   1.000  H
  C3       1.0000 0.22870  0.18650  0.14940  Biso   1.000  C
  C4       1.0000 0.26190  0.20756  0.93850  Biso   1.000  C
  H3       1.0000 0.23470  0.22130  0.90880  Biso   1.000  H
  C5       1.0000 0.34390  0.17030  0.02640  Biso   1.000  C
  H4       1.0000 0.37370  0.15800  0.05540  Biso   1.000  H
  C6       1.0000 0.29420  0.18827  0.05190  Biso   1.000  C
  C7       1.0000 0.34790  0.17116  0.95730  Biso   1.000  C
  H5       1.0000 0.38120  0.15850  0.93980  Biso   1.000  H
  C8       1.0000 0.09860  0.21174  0.48020  Biso   1.000  C
  C9       1.0000 0.04220  0.23407  0.48980  Biso   1.000  C
  C10      1.0000 0.04650  0.27185  0.50060  Biso   1.000  C
  H6       1.0000 0.08600  0.28310  0.50290  Biso   1.000  H
  C11      1.0000 0.93380  0.27690  0.50580  Biso   1.000  C
  C12      1.0000 0.99410  0.29261  0.50780  Biso   1.000  C
  H7       1.0000 0.99840  0.31780  0.51410  Biso   1.000  H
  C13      1.0000 0.37960  0.22678  0.54750  Biso   1.000  C
  C14      1.0000 0.32500  0.20291  0.55250  Biso   1.000  C
  C15      1.0000 0.46130  0.26560  0.60120  Biso   1.000  C
  H8       1.0000 0.48070  0.27600  0.64110  Biso   1.000  H
  C16      1.0000 0.16860  0.16967  0.31960  Biso   1.000  C
  H9       1.0000 0.13470  0.15760  0.33710  Biso   1.000  H
  C17      1.0000 0.17320  0.16967  0.24980  Biso   1.000  C
  H10      1.0000 0.14230  0.15830  0.22070  Biso   1.000  H
  C18      1.0000 0.53990  0.29786  0.53450  Biso   1.000  C
  C19      1.0000 0.45400  0.25809  0.47960  Biso   1.000  C
  H11      1.0000 0.46810  0.26350  0.43660  Biso   1.000  H
  C20      1.0000 0.40980  0.24295  0.60610  Biso   1.000  C
  H12      1.0000 0.39500  0.23840  0.64910  Biso   1.000  H
  C21      1.0000 0.98330  0.21828  0.48470  Biso   1.000  C
  H13      1.0000 0.97910  0.19340  0.47440  Biso   1.000  H
  C22      1.0000 0.40250  0.23490  0.48350  Biso   1.000  C
  H14      1.0000 0.38310  0.22470  0.44340  Biso   1.000  H
  C23      1.0000 0.92910  0.23930  0.49500  Biso   1.000  C
  H15      1.0000 0.88990  0.22790  0.49440  Biso   1.000  H
  C24      1.0000 0.48460  0.27315  0.53750  Biso   1.000  C
  C25      1.0000 0.64960  0.34031  0.52950  Biso   1.000  C
  C26      1.0000 0.22400  0.18666  0.22290  Biso   1.000  C
  C27      1.0000 0.25840  0.20362  0.33760  Biso   1.000  C
  H16      1.0000 0.28800  0.21530  0.36800  Biso   1.000  H
  C28      1.0000 0.26610  0.20506  0.26840  Biso   1.000  C
  H17      1.0000 0.29930  0.21830  0.25210  Biso   1.000  H
  C29      1.0000 0.87060  0.33511  0.49090  Biso   1.000  C
  H18      1.0000 0.90460  0.34640  0.47190  Biso   1.000  H
  C30      1.0000 0.75980  0.44152  0.63490  Biso   1.000  C
  H19      1.0000 0.79170  0.44780  0.66830  Biso   1.000  H
  C31      1.0000 0.76500  0.33918  0.52750  Biso   1.000  C
  C32      1.0000 0.71580  0.50485  0.64210  Biso   1.000  C
  C33      1.0000 0.58270  0.29213  0.48390  Biso   1.000  C
  H20      1.0000 0.57430  0.27380  0.45110  Biso   1.000  H
  C34      1.0000 0.87710  0.29888  0.51310  Biso   1.000  C
  C35      1.0000 0.55180  0.32614  0.57720  Biso   1.000  C
  H21      1.0000 0.52250  0.33180  0.60870  Biso   1.000  H
  C36      1.0000 0.71240  0.39568  0.55750  Biso   1.000  C
  C37      1.0000 0.63690  0.31288  0.48130  Biso   1.000  C
  H22      1.0000 0.66460  0.30840  0.44740  Biso   1.000  H
  C38      1.0000 0.71590  0.46694  0.61320  Biso   1.000  C
  C39      1.0000 0.71750  0.57407  0.70260  Biso   1.000  C
  C40      1.0000 0.75770  0.40591  0.60740  Biso   1.000  C
  H23      1.0000 0.78790  0.38890  0.62360  Biso   1.000  H
  C41      1.0000 0.71940  0.61180  0.73470  Biso   1.000  C
  C42      1.0000 0.81480  0.35527  0.49590  Biso   1.000  C
  H24      1.0000 0.81110  0.37900  0.47840  Biso   1.000  H
  C43      1.0000 0.60700  0.34811  0.57680  Biso   1.000  C
  H25      1.0000 0.61410  0.36730  0.60790  Biso   1.000  H
  C44      1.0000 0.77100  0.30386  0.55200  Biso   1.000  C
  H26      1.0000 0.73800  0.29330  0.57400  Biso   1.000  H
  C45      1.0000 0.66810  0.42174  0.53420  Biso   1.000  C
  H27      1.0000 0.63680  0.41550  0.50000  Biso   1.000  H
  C46      1.0000 0.82500  0.28403  0.54470  Biso   1.000  C
  H28      1.0000 0.82740  0.26000  0.56090  Biso   1.000  H
  C47      1.0000 0.66990  0.45656  0.56070  Biso   1.000  C
  H29      1.0000 0.64020  0.47370  0.54370  Biso   1.000  H
  C48      1.0000 0.67790  0.53087  0.62070  Biso   1.000  C
  H30      1.0000 0.64860  0.52600  0.58370  Biso   1.000  H
  C49      1.0000 0.67830  0.56557  0.64990  Biso   1.000  C
  H31      1.0000 0.65010  0.58320  0.63150  Biso   1.000  H
  C50      1.0000 0.76120  0.51470  0.69400  Biso   1.000  C
  H32      1.0000 0.79240  0.49800  0.70910  Biso   1.000  H
  N1       1.0000 0.28520  0.18729  0.12370  Biso   1.000  N
  H33      1.0000 0.31830  0.18720  0.15220  Biso   1.000  H
  N2       1.0000 0.30715  0.18896  0.91151  Biso   1.000  N
  N3       1.0000 0.21022  0.18612  0.36321  Biso   1.000  N
  N4       1.0000 0.70859  0.35972  0.53080  Biso   1.000  N
  O1       1.0000 0.09209  0.17962  0.45544  Biso   1.000  O
  O2       1.0000 0.15239  0.22491  0.49492  Biso   1.000  O
  O3       1.0000 0.16970  0.18412  0.10650  Biso   1.000  O
  O4       1.0000 0.31352  0.19172  0.60925  Biso   1.000  O
  O5       1.0000 0.29187  0.19528  0.49628  Biso   1.000  O
  O6       1.0000 0.75731  0.61660  0.78648  Biso   1.000  O
  O7       1.0000 0.68073  0.63398  0.70940  Biso   1.000  O
  Zn1      1.0000 0.20285  0.18027  0.46871  Biso   1.000  Zn
  Zn2      1.0000 0.25375  0.15330  0.63754  Biso   1.000  Zn
  C51      1.0000 0.70310  0.29031  0.82320  Biso   1.000  C
  H34      1.0000 0.70390  0.26820  0.84730  Biso   1.000  H
  C52      1.0000 0.03000  0.27518  0.74800  Biso   1.000  C
  C53      1.0000 0.13390  0.23035  0.73750  Biso   1.000  C
  C54      1.0000 0.06080  0.25897  0.80610  Biso   1.000  C
  H35      1.0000 0.04560  0.26300  0.84920  Biso   1.000  H
  C55      1.0000 0.42180  0.21375  0.80010  Biso   1.000  C
  C56      1.0000 0.10220  0.24486  0.67940  Biso   1.000  C
  H36      1.0000 0.11500  0.23890  0.63600  Biso   1.000  H
  C57      1.0000 0.19160  0.20561  0.73120  Biso   1.000  C
  C58      1.0000 0.47870  0.23629  0.79460  Biso   1.000  C
  C59      1.0000 0.11300  0.23719  0.80150  Biso   1.000  C
  H37      1.0000 0.13400  0.22720  0.84100  Biso   1.000  H
  C60      1.0000 0.47520  0.27426  0.78390  Biso   1.000  C
  H38      1.0000 0.43580  0.28550  0.77830  Biso   1.000  H
  C61      1.0000 0.05220  0.26786  0.68440  Biso   1.000  C
  H39      1.0000 0.03290  0.27870  0.64480  Biso   1.000  H
  C62      1.0000 0.97520  0.29966  0.75510  Biso   1.000  C
  C63      1.0000 0.64840  0.30151  0.78970  Biso   1.000  C
  C64      1.0000 0.52980  0.29558  0.78150  Biso   1.000  C
  H40      1.0000 0.52670  0.32070  0.77350  Biso   1.000  H
  C65      1.0000 0.87160  0.34310  0.77490  Biso   1.000  C
  C66      1.0000 0.81730  0.39937  0.81660  Biso   1.000  C
  C67      1.0000 0.58940  0.27874  0.79110  Biso   1.000  C
  C68      1.0000 0.64790  0.33315  0.75460  Biso   1.000  C
  H41      1.0000 0.61050  0.34110  0.73110  Biso   1.000  H
  C69      1.0000 0.84400  0.57032  0.90020  Biso   1.000  C
  H42      1.0000 0.85780  0.59020  0.87530  Biso   1.000  H
  C70      1.0000 0.81800  0.57736  0.96000  Biso   1.000  C
  C71      1.0000 0.86860  0.45745  0.83280  Biso   1.000  C
  H43      1.0000 0.90130  0.47320  0.82360  Biso   1.000  H
  C72      1.0000 0.92520  0.30064  0.70780  Biso   1.000  C
  H44      1.0000 0.92630  0.28630  0.66830  Biso   1.000  H
  C73      1.0000 0.97440  0.32219  0.81370  Biso   1.000  C
  H45      1.0000 0.00910  0.32260  0.84600  Biso   1.000  H
  C74      1.0000 0.75650  0.34249  0.78440  Biso   1.000  C
  C75      1.0000 0.70250  0.35448  0.75260  Biso   1.000  C
  H46      1.0000 0.70110  0.37680  0.72930  Biso   1.000  H
  C76      1.0000 0.92200  0.34388  0.82350  Biso   1.000  C
  H47      1.0000 0.92120  0.35870  0.86240  Biso   1.000  H
  C77      1.0000 0.86510  0.42332  0.80190  Biso   1.000  C
  H48      1.0000 0.89460  0.41650  0.77130  Biso   1.000  H
  C78      1.0000 0.85150  0.53605  0.87400  Biso   1.000  C
  H49      1.0000 0.87340  0.53240  0.83490  Biso   1.000  H
  C79      1.0000 0.53850  0.22072  0.80150  Biso   1.000  C
  H50      1.0000 0.54180  0.19540  0.80780  Biso   1.000  H
  C80      1.0000 0.87190  0.32219  0.71530  Biso   1.000  C
  H51      1.0000 0.83810  0.32250  0.68190  Biso   1.000  H
  C81      1.0000 0.80700  0.61511  0.98390  Biso   1.000  C
  C82      1.0000 0.59240  0.24068  0.79970  Biso   1.000  C
  H52      1.0000 0.63140  0.22900  0.80410  Biso   1.000  H
  C83      1.0000 0.79790  0.54875  0.99500  Biso   1.000  C
  H53      1.0000 0.78100  0.55310  0.03700  Biso   1.000  H
  C84      1.0000 0.82480  0.50612  0.90850  Biso   1.000  C
  C85      1.0000 0.82420  0.46869  0.87720  Biso   1.000  C
  C86      1.0000 0.77680  0.44457  0.88940  Biso   1.000  C
  H54      1.0000 0.74600  0.45180  0.91820  Biso   1.000  H
  C87      1.0000 0.80090  0.51213  0.97170  Biso   1.000  C
  H55      1.0000 0.78740  0.49270  0.99800  Biso   1.000  H
  C88      1.0000 0.77330  0.40985  0.86040  Biso   1.000  C
  H56      1.0000 0.74110  0.39380  0.87050  Biso   1.000  H
  C89      1.0000 0.75770  0.31042  0.82280  Biso   1.000  C
  H57      1.0000 0.79460  0.30270  0.84770  Biso   1.000  H
  N5       1.0000 0.81396  0.36425  0.78420  Biso   1.000  N
  O8       1.0000 0.36816  0.22720  0.78071  Biso   1.000  O
  O9       1.0000 0.22725  0.20162  0.78311  Biso   1.000  O
  O10      1.0000 0.42656  0.18184  0.82351  Biso   1.000  O
  O11      1.0000 0.19784  0.19160  0.67207  Biso   1.000  O
  O12      1.0000 0.79916  0.62168  0.04469  Biso   1.000  O
  O13      1.0000 0.80997  0.64196  0.94075  Biso   1.000  O
  Zn3      1.0000 0.31476  0.18660  0.80838  Biso   1.000  Zn
  C90      1.0000 0.23980  0.04920  0.77680  Biso   1.000  C
  H58      1.0000 0.20940  0.05510  0.74140  Biso   1.000  H
  C91      1.0000 0.74800  0.70810  0.49220  Biso   1.000  C
  H59      1.0000 0.78140  0.72110  0.47560  Biso   1.000  H
  C92      1.0000 0.77130  0.68650  0.35060  Biso   1.000  C
  C93      1.0000 0.73810  0.70756  0.56150  Biso   1.000  C
  H60      1.0000 0.76530  0.72130  0.59120  Biso   1.000  H
  C94      1.0000 0.65610  0.67030  0.47360  Biso   1.000  C
  H61      1.0000 0.62630  0.65800  0.44460  Biso   1.000  H
  C95      1.0000 0.70580  0.68827  0.44810  Biso   1.000  C
  C96      1.0000 0.65210  0.67116  0.54270  Biso   1.000  C
  H62      1.0000 0.61880  0.65850  0.56020  Biso   1.000  H
  C97      1.0000 0.90140  0.71174  0.01980  Biso   1.000  C
  C98      1.0000 0.95780  0.73407  0.01020  Biso   1.000  C
  C99      1.0000 0.95350  0.77185  0.99940  Biso   1.000  C
  H63      1.0000 0.91400  0.78310  0.99710  Biso   1.000  H
  C100     1.0000 0.06620  0.77690  0.99420  Biso   1.000  C
  C101     1.0000 0.00590  0.79261  0.99220  Biso   1.000  C
  H64      1.0000 0.00160  0.81780  0.98590  Biso   1.000  H
  C102     1.0000 0.62040  0.72678  0.95250  Biso   1.000  C
  C103     1.0000 0.67500  0.70291  0.94750  Biso   1.000  C
  C104     1.0000 0.53870  0.76560  0.89880  Biso   1.000  C
  H65      1.0000 0.51930  0.77600  0.85890  Biso   1.000  H
  C105     1.0000 0.83140  0.66967  0.18040  Biso   1.000  C
  H66      1.0000 0.86530  0.65760  0.16290  Biso   1.000  H
  C106     1.0000 0.82680  0.66967  0.25020  Biso   1.000  C
  H67      1.0000 0.85770  0.65830  0.27930  Biso   1.000  H
  C107     1.0000 0.46010  0.79786  0.96550  Biso   1.000  C
  C108     1.0000 0.54600  0.75809  0.02040  Biso   1.000  C
  H68      1.0000 0.53190  0.76350  0.06340  Biso   1.000  H
  C109     1.0000 0.59020  0.74295  0.89390  Biso   1.000  C
  H69      1.0000 0.60500  0.73840  0.85090  Biso   1.000  H
  C110     1.0000 0.01670  0.71828  0.01530  Biso   1.000  C
  H70      1.0000 0.02090  0.69340  0.02560  Biso   1.000  H
  C111     1.0000 0.59750  0.73490  0.01650  Biso   1.000  C
  H71      1.0000 0.61690  0.72470  0.05660  Biso   1.000  H
  C112     1.0000 0.07090  0.73930  0.00500  Biso   1.000  C
  H72      1.0000 0.11010  0.72790  0.00560  Biso   1.000  H
  C113     1.0000 0.51540  0.77315  0.96250  Biso   1.000  C
  C114     1.0000 0.35040  0.84031  0.97050  Biso   1.000  C
  C115     1.0000 0.77600  0.68666  0.27710  Biso   1.000  C
  C116     1.0000 0.74160  0.70362  0.16240  Biso   1.000  C
  H73      1.0000 0.71200  0.71530  0.13200  Biso   1.000  H
  C117     1.0000 0.73390  0.70506  0.23160  Biso   1.000  C
  H74      1.0000 0.70070  0.71830  0.24790  Biso   1.000  H
  C118     1.0000 0.12940  0.83511  0.00910  Biso   1.000  C
  H75      1.0000 0.09540  0.84640  0.02810  Biso   1.000  H
  C119     1.0000 0.24020  0.94152  0.86510  Biso   1.000  C
  H76      1.0000 0.20830  0.94780  0.83170  Biso   1.000  H
  C120     1.0000 0.23500  0.83918  0.97250  Biso   1.000  C
  C121     1.0000 0.28420  0.00485  0.85790  Biso   1.000  C
  C122     1.0000 0.41730  0.79213  0.01610  Biso   1.000  C
  H77      1.0000 0.42570  0.77380  0.04890  Biso   1.000  H
  C123     1.0000 0.12290  0.79888  0.98690  Biso   1.000  C
  C124     1.0000 0.44820  0.82614  0.92280  Biso   1.000  C
  H78      1.0000 0.47750  0.83180  0.89130  Biso   1.000  H
  C125     1.0000 0.28760  0.89568  0.94250  Biso   1.000  C
  C126     1.0000 0.36310  0.81288  0.01870  Biso   1.000  C
  H79      1.0000 0.33540  0.80840  0.05260  Biso   1.000  H
  C127     1.0000 0.28410  0.96694  0.88680  Biso   1.000  C
  C128     1.0000 0.28250  0.07407  0.79740  Biso   1.000  C
  C129     1.0000 0.24230  0.90591  0.89260  Biso   1.000  C
  H80      1.0000 0.21210  0.88890  0.87640  Biso   1.000  H
  C130     1.0000 0.28060  0.11180  0.76530  Biso   1.000  C
  C131     1.0000 0.18520  0.85527  0.00410  Biso   1.000  C
  H81      1.0000 0.18890  0.87900  0.02160  Biso   1.000  H
  C132     1.0000 0.39300  0.84811  0.92320  Biso   1.000  C
  H82      1.0000 0.38590  0.86730  0.89210  Biso   1.000  H
  C133     1.0000 0.22900  0.80386  0.94800  Biso   1.000  C
  H83      1.0000 0.26200  0.79330  0.92600  Biso   1.000  H
  C134     1.0000 0.33190  0.92174  0.96580  Biso   1.000  C
  H84      1.0000 0.36320  0.91550  0.00000  Biso   1.000  H
  C135     1.0000 0.17500  0.78403  0.95530  Biso   1.000  C
  H85      1.0000 0.17260  0.76000  0.93910  Biso   1.000  H
  C136     1.0000 0.33010  0.95656  0.93930  Biso   1.000  C
  H86      1.0000 0.35980  0.97370  0.95630  Biso   1.000  H
  C137     1.0000 0.32210  0.03087  0.87930  Biso   1.000  C
  H87      1.0000 0.35140  0.02600  0.91630  Biso   1.000  H
  C138     1.0000 0.32170  0.06557  0.85010  Biso   1.000  C
  H88      1.0000 0.34990  0.08320  0.86850  Biso   1.000  H
  C139     1.0000 0.23880  0.01470  0.80600  Biso   1.000  C
  H89      1.0000 0.20760  0.99800  0.79090  Biso   1.000  H
  N6       1.0000 0.71480  0.68729  0.37630  Biso   1.000  N
  H90      1.0000 0.68170  0.68720  0.34780  Biso   1.000  H
  N7       1.0000 0.69285  0.68896  0.58849  Biso   1.000  N
  N8       1.0000 0.78978  0.68612  0.13679  Biso   1.000  N
  N9       1.0000 0.29141  0.85972  0.96920  Biso   1.000  N
  O14      1.0000 0.90791  0.67962  0.04456  Biso   1.000  O
  O15      1.0000 0.84761  0.72491  0.00508  Biso   1.000  O
  O16      1.0000 0.83030  0.68412  0.39350  Biso   1.000  O
  O17      1.0000 0.68648  0.69172  0.89075  Biso   1.000  O
  O18      1.0000 0.70813  0.69528  0.00372  Biso   1.000  O
  O19      1.0000 0.24269  0.11660  0.71352  Biso   1.000  O
  O20      1.0000 0.31927  0.13398  0.79060  Biso   1.000  O
  Zn4      1.0000 0.79715  0.68027  0.03129  Biso   1.000  Zn
  Zn5      1.0000 0.74625  0.65330  0.86246  Biso   1.000  Zn
  C140     1.0000 0.29690  0.79031  0.67680  Biso   1.000  C
  H91      1.0000 0.29610  0.76820  0.65270  Biso   1.000  H
  C141     1.0000 0.97000  0.77518  0.75200  Biso   1.000  C
  C142     1.0000 0.86610  0.73035  0.76250  Biso   1.000  C
  C143     1.0000 0.93920  0.75897  0.69390  Biso   1.000  C
  H92      1.0000 0.95440  0.76300  0.65080  Biso   1.000  H
  C144     1.0000 0.57820  0.71375  0.69990  Biso   1.000  C
  C145     1.0000 0.89780  0.74486  0.82060  Biso   1.000  C
  H93      1.0000 0.88500  0.73890  0.86400  Biso   1.000  H
  C146     1.0000 0.80840  0.70561  0.76880  Biso   1.000  C
  C147     1.0000 0.52130  0.73629  0.70540  Biso   1.000  C
  C148     1.0000 0.88700  0.73719  0.69850  Biso   1.000  C
  H94      1.0000 0.86600  0.72720  0.65900  Biso   1.000  H
  C149     1.0000 0.52480  0.77426  0.71610  Biso   1.000  C
  H95      1.0000 0.56420  0.78550  0.72170  Biso   1.000  H
  C150     1.0000 0.94780  0.76786  0.81560  Biso   1.000  C
  H96      1.0000 0.96710  0.77870  0.85520  Biso   1.000  H
  C151     1.0000 0.02480  0.79966  0.74490  Biso   1.000  C
  C152     1.0000 0.35160  0.80151  0.71030  Biso   1.000  C
  C153     1.0000 0.47020  0.79558  0.71850  Biso   1.000  C
  H97      1.0000 0.47330  0.82070  0.72650  Biso   1.000  H
  C154     1.0000 0.12840  0.84310  0.72510  Biso   1.000  C
  C155     1.0000 0.18270  0.89937  0.68340  Biso   1.000  C
  C156     1.0000 0.41060  0.77874  0.70890  Biso   1.000  C
  C157     1.0000 0.35210  0.83315  0.74540  Biso   1.000  C
  H98      1.0000 0.38950  0.84110  0.76890  Biso   1.000  H
  C158     1.0000 0.15600  0.07032  0.59980  Biso   1.000  C
  H99      1.0000 0.14220  0.09020  0.62470  Biso   1.000  H
  C159     1.0000 0.18200  0.07736  0.54000  Biso   1.000  C
  C160     1.0000 0.13140  0.95745  0.66720  Biso   1.000  C
  H100     1.0000 0.09870  0.97320  0.67640  Biso   1.000  H
  C161     1.0000 0.07480  0.80064  0.79220  Biso   1.000  C
  H101     1.0000 0.07370  0.78630  0.83170  Biso   1.000  H
  C162     1.0000 0.02560  0.82219  0.68630  Biso   1.000  C
  H102     1.0000 0.99090  0.82260  0.65400  Biso   1.000  H
  C163     1.0000 0.24350  0.84249  0.71560  Biso   1.000  C
  C164     1.0000 0.29750  0.85448  0.74740  Biso   1.000  C
  H103     1.0000 0.29890  0.87680  0.77070  Biso   1.000  H
  C165     1.0000 0.07800  0.84388  0.67650  Biso   1.000  C
  H104     1.0000 0.07880  0.85870  0.63760  Biso   1.000  H
  C166     1.0000 0.13490  0.92332  0.69810  Biso   1.000  C
  H105     1.0000 0.10540  0.91650  0.72870  Biso   1.000  H
  C167     1.0000 0.14850  0.03605  0.62600  Biso   1.000  C
  H106     1.0000 0.12660  0.03240  0.66510  Biso   1.000  H
  C168     1.0000 0.46150  0.72072  0.69850  Biso   1.000  C
  H107     1.0000 0.45820  0.69540  0.69220  Biso   1.000  H
  C169     1.0000 0.12810  0.82219  0.78470  Biso   1.000  C
  H108     1.0000 0.16190  0.82250  0.81810  Biso   1.000  H
  C170     1.0000 0.19300  0.11511  0.51610  Biso   1.000  C
  C171     1.0000 0.40760  0.74068  0.70030  Biso   1.000  C
  H109     1.0000 0.36860  0.72900  0.69590  Biso   1.000  H
  C172     1.0000 0.20210  0.04875  0.50500  Biso   1.000  C
  H110     1.0000 0.21900  0.05310  0.46300  Biso   1.000  H
  C173     1.0000 0.17520  0.00612  0.59150  Biso   1.000  C
  C174     1.0000 0.17580  0.96869  0.62280  Biso   1.000  C
  C175     1.0000 0.22320  0.94457  0.61060  Biso   1.000  C
  H111     1.0000 0.25400  0.95180  0.58180  Biso   1.000  H
  C176     1.0000 0.19910  0.01213  0.52830  Biso   1.000  C
  H112     1.0000 0.21260  0.99270  0.50200  Biso   1.000  H
  C177     1.0000 0.22670  0.90985  0.63960  Biso   1.000  C
  H113     1.0000 0.25890  0.89380  0.62950  Biso   1.000  H
  C178     1.0000 0.24230  0.81042  0.67720  Biso   1.000  C
  H114     1.0000 0.20540  0.80270  0.65230  Biso   1.000  H
  N10      1.0000 0.18604  0.86425  0.71580  Biso   1.000  N
  O21      1.0000 0.63184  0.72720  0.71929  Biso   1.000  O
  O22      1.0000 0.77275  0.70162  0.71689  Biso   1.000  O
  O23      1.0000 0.57344  0.68184  0.67649  Biso   1.000  O
  O24      1.0000 0.80216  0.69160  0.82793  Biso   1.000  O
  O25      1.0000 0.20084  0.12168  0.45531  Biso   1.000  O
  O26      1.0000 0.19003  0.14196  0.55925  Biso   1.000  O
  Zn6      1.0000 0.68524  0.68660  0.69162  Biso   1.000  Zn
  C179     1.0000 0.23980  0.45080  0.27680  Biso   1.000  C
  H115     1.0000 0.20940  0.44490  0.24140  Biso   1.000  H
  C180     1.0000 0.74800  0.79190  0.99220  Biso   1.000  C
  H116     1.0000 0.78140  0.77890  0.97560  Biso   1.000  H
  C181     1.0000 0.77130  0.81350  0.85060  Biso   1.000  C
  C182     1.0000 0.73810  0.79244  0.06150  Biso   1.000  C
  H117     1.0000 0.76530  0.77870  0.09120  Biso   1.000  H
  C183     1.0000 0.65610  0.82970  0.97360  Biso   1.000  C
  H118     1.0000 0.62630  0.84200  0.94460  Biso   1.000  H
  C184     1.0000 0.70580  0.81173  0.94810  Biso   1.000  C
  C185     1.0000 0.65210  0.82884  0.04270  Biso   1.000  C
  H119     1.0000 0.61880  0.84150  0.06020  Biso   1.000  H
  C186     1.0000 0.90140  0.78826  0.51980  Biso   1.000  C
  C187     1.0000 0.95780  0.76593  0.51020  Biso   1.000  C
  C188     1.0000 0.95350  0.72815  0.49940  Biso   1.000  C
  H120     1.0000 0.91400  0.71690  0.49710  Biso   1.000  H
  C189     1.0000 0.06620  0.72310  0.49420  Biso   1.000  C
  C190     1.0000 0.00590  0.70739  0.49220  Biso   1.000  C
  H121     1.0000 0.00160  0.68220  0.48590  Biso   1.000  H
  C191     1.0000 0.62040  0.77322  0.45250  Biso   1.000  C
  C192     1.0000 0.67500  0.79709  0.44750  Biso   1.000  C
  C193     1.0000 0.53870  0.73440  0.39880  Biso   1.000  C
  H122     1.0000 0.51930  0.72400  0.35890  Biso   1.000  H
  C194     1.0000 0.83140  0.83033  0.68040  Biso   1.000  C
  H123     1.0000 0.86530  0.84240  0.66290  Biso   1.000  H
  C195     1.0000 0.82680  0.83033  0.75020  Biso   1.000  C
  H124     1.0000 0.85770  0.84170  0.77930  Biso   1.000  H
  C196     1.0000 0.46010  0.70214  0.46550  Biso   1.000  C
  C197     1.0000 0.54600  0.74191  0.52040  Biso   1.000  C
  H125     1.0000 0.53190  0.73650  0.56340  Biso   1.000  H
  C198     1.0000 0.59020  0.75705  0.39390  Biso   1.000  C
  H126     1.0000 0.60500  0.76160  0.35090  Biso   1.000  H
  C199     1.0000 0.01670  0.78172  0.51530  Biso   1.000  C
  H127     1.0000 0.02090  0.80660  0.52560  Biso   1.000  H
  C200     1.0000 0.59750  0.76510  0.51650  Biso   1.000  C
  H128     1.0000 0.61690  0.77530  0.55660  Biso   1.000  H
  C201     1.0000 0.07090  0.76070  0.50500  Biso   1.000  C
  H129     1.0000 0.11010  0.77210  0.50560  Biso   1.000  H
  C202     1.0000 0.51540  0.72685  0.46250  Biso   1.000  C
  C203     1.0000 0.35040  0.65969  0.47050  Biso   1.000  C
  C204     1.0000 0.77600  0.81334  0.77710  Biso   1.000  C
  C205     1.0000 0.74160  0.79638  0.66240  Biso   1.000  C
  H130     1.0000 0.71200  0.78470  0.63200  Biso   1.000  H
  C206     1.0000 0.73390  0.79494  0.73160  Biso   1.000  C
  H131     1.0000 0.70070  0.78170  0.74790  Biso   1.000  H
  C207     1.0000 0.12940  0.66489  0.50910  Biso   1.000  C
  H132     1.0000 0.09540  0.65360  0.52810  Biso   1.000  H
  C208     1.0000 0.24020  0.55848  0.36510  Biso   1.000  C
  H133     1.0000 0.20830  0.55220  0.33170  Biso   1.000  H
  C209     1.0000 0.23500  0.66082  0.47250  Biso   1.000  C
  C210     1.0000 0.28420  0.49515  0.35790  Biso   1.000  C
  C211     1.0000 0.41730  0.70787  0.51610  Biso   1.000  C
  H134     1.0000 0.42570  0.72620  0.54890  Biso   1.000  H
  C212     1.0000 0.12290  0.70112  0.48690  Biso   1.000  C
  C213     1.0000 0.44820  0.67386  0.42280  Biso   1.000  C
  H135     1.0000 0.47750  0.66820  0.39130  Biso   1.000  H
  C214     1.0000 0.28760  0.60432  0.44250  Biso   1.000  C
  C215     1.0000 0.36310  0.68712  0.51870  Biso   1.000  C
  H136     1.0000 0.33540  0.69160  0.55260  Biso   1.000  H
  C216     1.0000 0.28410  0.53306  0.38680  Biso   1.000  C
  C217     1.0000 0.28250  0.42593  0.29740  Biso   1.000  C
  C218     1.0000 0.24230  0.59409  0.39260  Biso   1.000  C
  H137     1.0000 0.21210  0.61110  0.37640  Biso   1.000  H
  C219     1.0000 0.28060  0.38820  0.26530  Biso   1.000  C
  C220     1.0000 0.18520  0.64473  0.50410  Biso   1.000  C
  H138     1.0000 0.18890  0.62100  0.52160  Biso   1.000  H
  C221     1.0000 0.39300  0.65189  0.42320  Biso   1.000  C
  H139     1.0000 0.38590  0.63270  0.39210  Biso   1.000  H
  C222     1.0000 0.22900  0.69614  0.44800  Biso   1.000  C
  H140     1.0000 0.26200  0.70670  0.42600  Biso   1.000  H
  C223     1.0000 0.33190  0.57826  0.46580  Biso   1.000  C
  H141     1.0000 0.36320  0.58450  0.50000  Biso   1.000  H
  C224     1.0000 0.17500  0.71597  0.45530  Biso   1.000  C
  H142     1.0000 0.17260  0.74000  0.43910  Biso   1.000  H
  C225     1.0000 0.33010  0.54344  0.43930  Biso   1.000  C
  H143     1.0000 0.35980  0.52630  0.45630  Biso   1.000  H
  C226     1.0000 0.32210  0.46913  0.37930  Biso   1.000  C
  H144     1.0000 0.35140  0.47400  0.41630  Biso   1.000  H
  C227     1.0000 0.32170  0.43443  0.35010  Biso   1.000  C
  H145     1.0000 0.34990  0.41680  0.36850  Biso   1.000  H
  C228     1.0000 0.23880  0.48530  0.30600  Biso   1.000  C
  H146     1.0000 0.20760  0.50200  0.29090  Biso   1.000  H
  N11      1.0000 0.71480  0.81271  0.87630  Biso   1.000  N
  H147     1.0000 0.68170  0.81280  0.84780  Biso   1.000  H
  N12      1.0000 0.69285  0.81104  0.08849  Biso   1.000  N
  N13      1.0000 0.78978  0.81388  0.63679  Biso   1.000  N
  N14      1.0000 0.29141  0.64028  0.46920  Biso   1.000  N
  O27      1.0000 0.90791  0.82038  0.54456  Biso   1.000  O
  O28      1.0000 0.84761  0.77509  0.50508  Biso   1.000  O
  O29      1.0000 0.83030  0.81588  0.89350  Biso   1.000  O
  O30      1.0000 0.68648  0.80828  0.39075  Biso   1.000  O
  O31      1.0000 0.70813  0.80472  0.50372  Biso   1.000  O
  O32      1.0000 0.24269  0.38340  0.21352  Biso   1.000  O
  O33      1.0000 0.31927  0.36602  0.29060  Biso   1.000  O
  Zn7      1.0000 0.79715  0.81973  0.53129  Biso   1.000  Zn
  Zn8      1.0000 0.74625  0.84670  0.36246  Biso   1.000  Zn
  C229     1.0000 0.29690  0.70969  0.17680  Biso   1.000  C
  H148     1.0000 0.29610  0.73180  0.15270  Biso   1.000  H
  C230     1.0000 0.97000  0.72482  0.25200  Biso   1.000  C
  C231     1.0000 0.86610  0.76965  0.26250  Biso   1.000  C
  C232     1.0000 0.93920  0.74103  0.19390  Biso   1.000  C
  H149     1.0000 0.95440  0.73700  0.15080  Biso   1.000  H
  C233     1.0000 0.57820  0.78625  0.19990  Biso   1.000  C
  C234     1.0000 0.89780  0.75514  0.32060  Biso   1.000  C
  H150     1.0000 0.88500  0.76110  0.36400  Biso   1.000  H
  C235     1.0000 0.80840  0.79439  0.26880  Biso   1.000  C
  C236     1.0000 0.52130  0.76371  0.20540  Biso   1.000  C
  C237     1.0000 0.88700  0.76281  0.19850  Biso   1.000  C
  H151     1.0000 0.86600  0.77280  0.15900  Biso   1.000  H
  C238     1.0000 0.52480  0.72574  0.21610  Biso   1.000  C
  H152     1.0000 0.56420  0.71450  0.22170  Biso   1.000  H
  C239     1.0000 0.94780  0.73214  0.31560  Biso   1.000  C
  H153     1.0000 0.96710  0.72130  0.35520  Biso   1.000  H
  C240     1.0000 0.02480  0.70034  0.24490  Biso   1.000  C
  C241     1.0000 0.35160  0.69849  0.21030  Biso   1.000  C
  C242     1.0000 0.47020  0.70442  0.21850  Biso   1.000  C
  H154     1.0000 0.47330  0.67930  0.22650  Biso   1.000  H
  C243     1.0000 0.12840  0.65690  0.22510  Biso   1.000  C
  C244     1.0000 0.18270  0.60063  0.18340  Biso   1.000  C
  C245     1.0000 0.41060  0.72126  0.20890  Biso   1.000  C
  C246     1.0000 0.35210  0.66685  0.24540  Biso   1.000  C
  H155     1.0000 0.38950  0.65890  0.26890  Biso   1.000  H
  C247     1.0000 0.15600  0.42968  0.09980  Biso   1.000  C
  H156     1.0000 0.14220  0.40980  0.12470  Biso   1.000  H
  C248     1.0000 0.18200  0.42264  0.04000  Biso   1.000  C
  C249     1.0000 0.13140  0.54255  0.16720  Biso   1.000  C
  H157     1.0000 0.09870  0.52680  0.17640  Biso   1.000  H
  C250     1.0000 0.07480  0.69936  0.29220  Biso   1.000  C
  H158     1.0000 0.07370  0.71370  0.33170  Biso   1.000  H
  C251     1.0000 0.02560  0.67781  0.18630  Biso   1.000  C
  H159     1.0000 0.99090  0.67740  0.15400  Biso   1.000  H
  C252     1.0000 0.24350  0.65751  0.21560  Biso   1.000  C
  C253     1.0000 0.29750  0.64552  0.24740  Biso   1.000  C
  H160     1.0000 0.29890  0.62320  0.27070  Biso   1.000  H
  C254     1.0000 0.07800  0.65612  0.17650  Biso   1.000  C
  H161     1.0000 0.07880  0.64130  0.13760  Biso   1.000  H
  C255     1.0000 0.13490  0.57668  0.19810  Biso   1.000  C
  H162     1.0000 0.10540  0.58350  0.22870  Biso   1.000  H
  C256     1.0000 0.14850  0.46395  0.12600  Biso   1.000  C
  H163     1.0000 0.12660  0.46760  0.16510  Biso   1.000  H
  C257     1.0000 0.46150  0.77928  0.19850  Biso   1.000  C
  H164     1.0000 0.45820  0.80460  0.19220  Biso   1.000  H
  C258     1.0000 0.12810  0.67781  0.28470  Biso   1.000  C
  H165     1.0000 0.16190  0.67750  0.31810  Biso   1.000  H
  C259     1.0000 0.19300  0.38489  0.01610  Biso   1.000  C
  C260     1.0000 0.40760  0.75932  0.20030  Biso   1.000  C
  H166     1.0000 0.36860  0.77100  0.19590  Biso   1.000  H
  C261     1.0000 0.20210  0.45125  0.00500  Biso   1.000  C
  H167     1.0000 0.21900  0.44690  0.96300  Biso   1.000  H
  C262     1.0000 0.17520  0.49388  0.09150  Biso   1.000  C
  C263     1.0000 0.17580  0.53131  0.12280  Biso   1.000  C
  C264     1.0000 0.22320  0.55543  0.11060  Biso   1.000  C
  H168     1.0000 0.25400  0.54820  0.08180  Biso   1.000  H
  C265     1.0000 0.19910  0.48787  0.02830  Biso   1.000  C
  H169     1.0000 0.21260  0.50730  0.00200  Biso   1.000  H
  C266     1.0000 0.22670  0.59015  0.13960  Biso   1.000  C
  H170     1.0000 0.25890  0.60620  0.12950  Biso   1.000  H
  C267     1.0000 0.24230  0.68958  0.17720  Biso   1.000  C
  H171     1.0000 0.20540  0.69730  0.15230  Biso   1.000  H
  N15      1.0000 0.18604  0.63575  0.21580  Biso   1.000  N
  O34      1.0000 0.63184  0.77280  0.21929  Biso   1.000  O
  O35      1.0000 0.77275  0.79838  0.21689  Biso   1.000  O
  O36      1.0000 0.57344  0.81816  0.17649  Biso   1.000  O
  O37      1.0000 0.80216  0.80840  0.32793  Biso   1.000  O
  O38      1.0000 0.20084  0.37832  0.95531  Biso   1.000  O
  O39      1.0000 0.19003  0.35804  0.05925  Biso   1.000  O
  Zn9      1.0000 0.68524  0.81340  0.19162  Biso   1.000  Zn
  C268     1.0000 0.76020  0.95080  0.22320  Biso   1.000  C
  H172     1.0000 0.79060  0.94490  0.25860  Biso   1.000  H
  C269     1.0000 0.25200  0.29190  0.50780  Biso   1.000  C
  H173     1.0000 0.21860  0.27890  0.52440  Biso   1.000  H
  C270     1.0000 0.22870  0.31350  0.64940  Biso   1.000  C
  C271     1.0000 0.26190  0.29244  0.43850  Biso   1.000  C
  H174     1.0000 0.23470  0.27870  0.40880  Biso   1.000  H
  C272     1.0000 0.34390  0.32970  0.52640  Biso   1.000  C
  H175     1.0000 0.37370  0.34200  0.55540  Biso   1.000  H
  C273     1.0000 0.29420  0.31173  0.55190  Biso   1.000  C
  C274     1.0000 0.34790  0.32884  0.45730  Biso   1.000  C
  H176     1.0000 0.38120  0.34150  0.43980  Biso   1.000  H
  C275     1.0000 0.09860  0.28826  0.98020  Biso   1.000  C
  C276     1.0000 0.04220  0.26593  0.98980  Biso   1.000  C
  C277     1.0000 0.04650  0.22815  0.00060  Biso   1.000  C
  H177     1.0000 0.08600  0.21690  0.00290  Biso   1.000  H
  C278     1.0000 0.93380  0.22310  0.00580  Biso   1.000  C
  C279     1.0000 0.99410  0.20739  0.00780  Biso   1.000  C
  H178     1.0000 0.99840  0.18220  0.01410  Biso   1.000  H
  C280     1.0000 0.37960  0.27322  0.04750  Biso   1.000  C
  C281     1.0000 0.32500  0.29709  0.05250  Biso   1.000  C
  C282     1.0000 0.46130  0.23440  0.10120  Biso   1.000  C
  H179     1.0000 0.48070  0.22400  0.14110  Biso   1.000  H
  C283     1.0000 0.16860  0.33033  0.81960  Biso   1.000  C
  H180     1.0000 0.13470  0.34240  0.83710  Biso   1.000  H
  C284     1.0000 0.17320  0.33033  0.74980  Biso   1.000  C
  H181     1.0000 0.14230  0.34170  0.72070  Biso   1.000  H
  C285     1.0000 0.53990  0.20214  0.03450  Biso   1.000  C
  C286     1.0000 0.45400  0.24191  0.97960  Biso   1.000  C
  H182     1.0000 0.46810  0.23650  0.93660  Biso   1.000  H
  C287     1.0000 0.40980  0.25705  0.10610  Biso   1.000  C
  H183     1.0000 0.39500  0.26160  0.14910  Biso   1.000  H
  C288     1.0000 0.98330  0.28172  0.98470  Biso   1.000  C
  H184     1.0000 0.97910  0.30660  0.97440  Biso   1.000  H
  C289     1.0000 0.40250  0.26510  0.98350  Biso   1.000  C
  H185     1.0000 0.38310  0.27530  0.94340  Biso   1.000  H
  C290     1.0000 0.92910  0.26070  0.99500  Biso   1.000  C
  H186     1.0000 0.88990  0.27210  0.99440  Biso   1.000  H
  C291     1.0000 0.48460  0.22685  0.03750  Biso   1.000  C
  C292     1.0000 0.64960  0.15969  0.02950  Biso   1.000  C
  C293     1.0000 0.22400  0.31334  0.72290  Biso   1.000  C
  C294     1.0000 0.25840  0.29638  0.83760  Biso   1.000  C
  H187     1.0000 0.28800  0.28470  0.86800  Biso   1.000  H
  C295     1.0000 0.26610  0.29494  0.76840  Biso   1.000  C
  H188     1.0000 0.29930  0.28170  0.75210  Biso   1.000  H
  C296     1.0000 0.87060  0.16489  0.99090  Biso   1.000  C
  H189     1.0000 0.90460  0.15360  0.97190  Biso   1.000  H
  C297     1.0000 0.75980  0.05848  0.13490  Biso   1.000  C
  H190     1.0000 0.79170  0.05220  0.16830  Biso   1.000  H
  C298     1.0000 0.76500  0.16082  0.02750  Biso   1.000  C
  C299     1.0000 0.71580  0.99515  0.14210  Biso   1.000  C
  C300     1.0000 0.58270  0.20787  0.98390  Biso   1.000  C
  H191     1.0000 0.57430  0.22620  0.95110  Biso   1.000  H
  C301     1.0000 0.87710  0.20112  0.01310  Biso   1.000  C
  C302     1.0000 0.55180  0.17386  0.07720  Biso   1.000  C
  H192     1.0000 0.52250  0.16820  0.10870  Biso   1.000  H
  C303     1.0000 0.71240  0.10432  0.05750  Biso   1.000  C
  C304     1.0000 0.63690  0.18712  0.98130  Biso   1.000  C
  H193     1.0000 0.66460  0.19160  0.94740  Biso   1.000  H
  C305     1.0000 0.71590  0.03306  0.11320  Biso   1.000  C
  C306     1.0000 0.71750  0.92593  0.20260  Biso   1.000  C
  C307     1.0000 0.75770  0.09409  0.10740  Biso   1.000  C
  H194     1.0000 0.78790  0.11110  0.12360  Biso   1.000  H
  C308     1.0000 0.71940  0.88820  0.23470  Biso   1.000  C
  C309     1.0000 0.81480  0.14473  0.99590  Biso   1.000  C
  H195     1.0000 0.81110  0.12100  0.97840  Biso   1.000  H
  C310     1.0000 0.60700  0.15189  0.07680  Biso   1.000  C
  H196     1.0000 0.61410  0.13270  0.10790  Biso   1.000  H
  C311     1.0000 0.77100  0.19614  0.05200  Biso   1.000  C
  H197     1.0000 0.73800  0.20670  0.07400  Biso   1.000  H
  C312     1.0000 0.66810  0.07826  0.03420  Biso   1.000  C
  H198     1.0000 0.63680  0.08450  0.00000  Biso   1.000  H
  C313     1.0000 0.82500  0.21597  0.04470  Biso   1.000  C
  H199     1.0000 0.82740  0.24000  0.06090  Biso   1.000  H
  C314     1.0000 0.66990  0.04344  0.06070  Biso   1.000  C
  H200     1.0000 0.64020  0.02630  0.04370  Biso   1.000  H
  C315     1.0000 0.67790  0.96913  0.12070  Biso   1.000  C
  H201     1.0000 0.64860  0.97400  0.08370  Biso   1.000  H
  C316     1.0000 0.67830  0.93443  0.14990  Biso   1.000  C
  H202     1.0000 0.65010  0.91680  0.13150  Biso   1.000  H
  C317     1.0000 0.76120  0.98530  0.19400  Biso   1.000  C
  H203     1.0000 0.79240  0.00200  0.20910  Biso   1.000  H
  N16      1.0000 0.28520  0.31271  0.62370  Biso   1.000  N
  H204     1.0000 0.31830  0.31280  0.65220  Biso   1.000  H
  N17      1.0000 0.30715  0.31104  0.41151  Biso   1.000  N
  N18      1.0000 0.21022  0.31388  0.86321  Biso   1.000  N
  N19      1.0000 0.70859  0.14028  0.03080  Biso   1.000  N
  O40      1.0000 0.09209  0.32038  0.95544  Biso   1.000  O
  O41      1.0000 0.15239  0.27509  0.99492  Biso   1.000  O
  O42      1.0000 0.16970  0.31588  0.60650  Biso   1.000  O
  O43      1.0000 0.31352  0.30828  0.10925  Biso   1.000  O
  O44      1.0000 0.29187  0.30472  0.99628  Biso   1.000  O
  O45      1.0000 0.75731  0.88340  0.28648  Biso   1.000  O
  O46      1.0000 0.68073  0.86602  0.20940  Biso   1.000  O
  Zn10     1.0000 0.20285  0.31973  0.96871  Biso   1.000  Zn
  Zn11     1.0000 0.25375  0.34670  0.13754  Biso   1.000  Zn
  C318     1.0000 0.70310  0.20969  0.32320  Biso   1.000  C
  H205     1.0000 0.70390  0.23180  0.34730  Biso   1.000  H
  C319     1.0000 0.03000  0.22482  0.24800  Biso   1.000  C
  C320     1.0000 0.13390  0.26965  0.23750  Biso   1.000  C
  C321     1.0000 0.06080  0.24103  0.30610  Biso   1.000  C
  H206     1.0000 0.04560  0.23700  0.34920  Biso   1.000  H
  C322     1.0000 0.42180  0.28625  0.30010  Biso   1.000  C
  C323     1.0000 0.10220  0.25514  0.17940  Biso   1.000  C
  H207     1.0000 0.11500  0.26110  0.13600  Biso   1.000  H
  C324     1.0000 0.19160  0.29439  0.23120  Biso   1.000  C
  C325     1.0000 0.47870  0.26371  0.29460  Biso   1.000  C
  C326     1.0000 0.11300  0.26281  0.30150  Biso   1.000  C
  H208     1.0000 0.13400  0.27280  0.34100  Biso   1.000  H
  C327     1.0000 0.47520  0.22574  0.28390  Biso   1.000  C
  H209     1.0000 0.43580  0.21450  0.27830  Biso   1.000  H
  C328     1.0000 0.05220  0.23214  0.18440  Biso   1.000  C
  H210     1.0000 0.03290  0.22130  0.14480  Biso   1.000  H
  C329     1.0000 0.97520  0.20034  0.25510  Biso   1.000  C
  C330     1.0000 0.64840  0.19849  0.28970  Biso   1.000  C
  C331     1.0000 0.52980  0.20442  0.28150  Biso   1.000  C
  H211     1.0000 0.52670  0.17930  0.27350  Biso   1.000  H
  C332     1.0000 0.87160  0.15690  0.27490  Biso   1.000  C
  C333     1.0000 0.81730  0.10063  0.31660  Biso   1.000  C
  C334     1.0000 0.58940  0.22126  0.29110  Biso   1.000  C
  C335     1.0000 0.64790  0.16685  0.25460  Biso   1.000  C
  H212     1.0000 0.61050  0.15890  0.23110  Biso   1.000  H
  C336     1.0000 0.84400  0.92968  0.40020  Biso   1.000  C
  H213     1.0000 0.85780  0.90980  0.37530  Biso   1.000  H
  C337     1.0000 0.81800  0.92264  0.46000  Biso   1.000  C
  C338     1.0000 0.86860  0.04255  0.33280  Biso   1.000  C
  H214     1.0000 0.90130  0.02680  0.32360  Biso   1.000  H
  C339     1.0000 0.92520  0.19936  0.20780  Biso   1.000  C
  H215     1.0000 0.92630  0.21370  0.16830  Biso   1.000  H
  C340     1.0000 0.97440  0.17781  0.31370  Biso   1.000  C
  H216     1.0000 0.00910  0.17740  0.34600  Biso   1.000  H
  C341     1.0000 0.75650  0.15751  0.28440  Biso   1.000  C
  C342     1.0000 0.70250  0.14552  0.25260  Biso   1.000  C
  H217     1.0000 0.70110  0.12320  0.22930  Biso   1.000  H
  C343     1.0000 0.92200  0.15612  0.32350  Biso   1.000  C
  H218     1.0000 0.92120  0.14130  0.36240  Biso   1.000  H
  C344     1.0000 0.86510  0.07668  0.30190  Biso   1.000  C
  H219     1.0000 0.89460  0.08350  0.27130  Biso   1.000  H
  C345     1.0000 0.85150  0.96395  0.37400  Biso   1.000  C
  H220     1.0000 0.87340  0.96760  0.33490  Biso   1.000  H
  C346     1.0000 0.53850  0.27928  0.30150  Biso   1.000  C
  H221     1.0000 0.54180  0.30460  0.30780  Biso   1.000  H
  C347     1.0000 0.87190  0.17781  0.21530  Biso   1.000  C
  H222     1.0000 0.83810  0.17750  0.18190  Biso   1.000  H
  C348     1.0000 0.80700  0.88489  0.48390  Biso   1.000  C
  C349     1.0000 0.59240  0.25932  0.29970  Biso   1.000  C
  H223     1.0000 0.63140  0.27100  0.30410  Biso   1.000  H
  C350     1.0000 0.79790  0.95125  0.49500  Biso   1.000  C
  H224     1.0000 0.78100  0.94690  0.53700  Biso   1.000  H
  C351     1.0000 0.82480  0.99388  0.40850  Biso   1.000  C
  C352     1.0000 0.82420  0.03131  0.37720  Biso   1.000  C
  C353     1.0000 0.77680  0.05543  0.38940  Biso   1.000  C
  H225     1.0000 0.74600  0.04820  0.41820  Biso   1.000  H
  C354     1.0000 0.80090  0.98787  0.47170  Biso   1.000  C
  H226     1.0000 0.78740  0.00730  0.49800  Biso   1.000  H
  C355     1.0000 0.77330  0.09015  0.36040  Biso   1.000  C
  H227     1.0000 0.74110  0.10620  0.37050  Biso   1.000  H
  C356     1.0000 0.75770  0.18958  0.32280  Biso   1.000  C
  H228     1.0000 0.79460  0.19730  0.34770  Biso   1.000  H
  N20      1.0000 0.81396  0.13575  0.28420  Biso   1.000  N
  O47      1.0000 0.36816  0.27280  0.28071  Biso   1.000  O
  O48      1.0000 0.22725  0.29838  0.28311  Biso   1.000  O
  O49      1.0000 0.42656  0.31816  0.32351  Biso   1.000  O
  O50      1.0000 0.19784  0.30840  0.17207  Biso   1.000  O
  O51      1.0000 0.79916  0.87832  0.54469  Biso   1.000  O
  O52      1.0000 0.80997  0.85804  0.44075  Biso   1.000  O
  Zn12     1.0000 0.31476  0.31340  0.30838  Biso   1.000  Zn
