data_image0
_cell_length_a       36.8
_cell_length_b       21.661
_cell_length_c       44.65
_cell_angle_alpha    90
_cell_angle_beta     100.4
_cell_angle_gamma    90

_symmetry_space_group_name_H-M    "P 1"
_symmetry_int_tables_number       1

loop_
  _symmetry_equiv_pos_as_xyz
  'x, y, z'

loop_
  _atom_site_label
  _atom_site_occupancy
  _atom_site_fract_x
  _atom_site_fract_y
  _atom_site_fract_z
  _atom_site_thermal_displace_type
  _atom_site_B_iso_or_equiv
  _atom_site_type_symbol
  C1       1.0000 0.95137  0.01460  0.74570  Biso   1.000  C
  H1       1.0000 0.96770  0.99010  0.73730  Biso   1.000  H
  C2       1.0000 0.93223  0.05570  0.79015  Biso   1.000  C
  C3       1.0000 0.90697  0.08760  0.74032  Biso   1.000  C
  H2       1.0000 0.88910  0.11190  0.72840  Biso   1.000  H
  C4       1.0000 0.93400  0.05070  0.82421  Biso   1.000  C
  C5       1.0000 0.96600  0.03270  0.87442  Biso   1.000  C
  H3       1.0000 0.98770  0.02260  0.88770  Biso   1.000  H
  C6       1.0000 0.99030  0.83670  0.02760  Biso   1.000  C
  H4       1.0000 0.98160  0.85660  0.00930  Biso   1.000  H
  C7       1.0000 0.32589  0.51730  0.04480  Biso   1.000  C
  C8       1.0000 0.07086  0.35810  0.06682  Biso   1.000  C
  H5       1.0000 0.08190  0.32320  0.07670  Biso   1.000  H
  C9       1.0000 0.04475  0.68990  0.05560  Biso   1.000  C
  C10      1.0000 0.07660  0.46690  0.05350  Biso   1.000  C
  C11      1.0000 0.93476  0.04400  0.88470  Biso   1.000  C
  C12      1.0000 0.97268  0.18940  0.04596  Biso   1.000  C
  C13      1.0000 0.98525  0.85930  0.05360  Biso   1.000  C
  C14      1.0000 0.95801  0.00360  0.93785  Biso   1.000  C
  H6       1.0000 0.97400  0.97920  0.92910  Biso   1.000  H
  C15      1.0000 0.06490  0.67890  0.03429  Biso   1.000  C
  H7       1.0000 0.06740  0.70970  0.02030  Biso   1.000  H
  C16      1.0000 0.95190  0.13260  0.04080  Biso   1.000  C
  C17      1.0000 0.01039  0.18670  0.05145  Biso   1.000  C
  H8       1.0000 0.02250  0.14890  0.05380  Biso   1.000  H
  C18      1.0000 0.07943  0.57920  0.05360  Biso   1.000  C
  C19      1.0000 0.99844  0.83350  0.08200  Biso   1.000  C
  H9       1.0000 0.99550  0.85210  0.10010  Biso   1.000  H
  C20      1.0000 0.03003  0.24120  0.05337  Biso   1.000  C
  H10      1.0000 0.05560  0.23820  0.05620  Biso   1.000  H
  C21      1.0000 0.03345  0.35610  0.04970  Biso   1.000  C
  C22      1.0000 0.95774  0.99780  0.96791  Biso   1.000  C
  H11      1.0000 0.97270  0.96890  0.97960  Biso   1.000  H
  C23      1.0000 0.93585  0.04340  0.92039  Biso   1.000  C
  C24      1.0000 0.01502  0.29940  0.05145  Biso   1.000  C
  C25      1.0000 0.04130  0.46270  0.03790  Biso   1.000  C
  H12      1.0000 0.03090  0.49750  0.02750  Biso   1.000  H
  C26      1.0000 0.27500  0.55180  0.07040  Biso   1.000  C
  H13      1.0000 0.26670  0.57190  0.08630  Biso   1.000  H
  C27      1.0000 0.89980  0.06040  0.83662  Biso   1.000  C
  H14      1.0000 0.87710  0.06810  0.82430  Biso   1.000  H
  C28      1.0000 0.00973  0.78030  0.02871  Biso   1.000  C
  H15      1.0000 0.01350  0.76140  0.01080  Biso   1.000  H
  C29      1.0000 0.04061  0.64230  0.07636  Biso   1.000  C
  H16      1.0000 0.02550  0.64890  0.09060  Biso   1.000  H
  C30      1.0000 0.01757  0.77380  0.08062  Biso   1.000  C
  H17      1.0000 0.02550  0.75140  0.09840  Biso   1.000  H
  C31      1.0000 0.02290  0.75390  0.05606  Biso   1.000  C
  C32      1.0000 0.97493  0.30200  0.04577  Biso   1.000  C
  H18      1.0000 0.96280  0.33990  0.04390  Biso   1.000  H
  C33      1.0000 0.95375  0.00890  0.77696  Biso   1.000  C
  H19      1.0000 0.96760  0.97850  0.78850  Biso   1.000  H
  C34      1.0000 0.31368  0.54880  0.07040  Biso   1.000  C
  H20      1.0000 0.33070  0.56630  0.08610  Biso   1.000  H
  C35      1.0000 0.08950  0.41390  0.06793  Biso   1.000  C
  H21      1.0000 0.11310  0.41520  0.07960  Biso   1.000  H
  C36      1.0000 0.15025  0.47390  0.03810  Biso   1.000  C
  H22      1.0000 0.13570  0.44060  0.03010  Biso   1.000  H
  C37      1.0000 0.02070  0.41140  0.03660  Biso   1.000  C
  H23      1.0000 0.99640  0.41320  0.02620  Biso   1.000  H
  C38      1.0000 0.95520  0.24790  0.04327  Biso   1.000  C
  H24      1.0000 0.92950  0.24970  0.03970  Biso   1.000  H
  C39      1.0000 0.15807  0.56890  0.06460  Biso   1.000  C
  H25      1.0000 0.14830  0.60230  0.07350  Biso   1.000  H
  C40      1.0000 0.90391  0.05710  0.86624  Biso   1.000  C
  H26      1.0000 0.88320  0.06480  0.87490  Biso   1.000  H
  C41      1.0000 0.96044  0.92040  0.05320  Biso   1.000  C
  C42      1.0000 0.36730  0.51770  0.04760  Biso   1.000  C
  C43      1.0000 0.21049  0.52380  0.04835  Biso   1.000  C
  C44      1.0000 0.08212  0.62330  0.03242  Biso   1.000  C
  H27      1.0000 0.09540  0.61580  0.01690  Biso   1.000  H
  C45      1.0000 0.13460  0.52170  0.05310  Biso   1.000  C
  C46      1.0000 0.18951  0.47610  0.03490  Biso   1.000  C
  H28      1.0000 0.19960  0.44590  0.02400  Biso   1.000  H
  C47      1.0000 0.05787  0.58770  0.07610  Biso   1.000  C
  H29      1.0000 0.05560  0.55700  0.09010  Biso   1.000  H
  C48      1.0000 0.19393  0.56960  0.06360  Biso   1.000  C
  H30      1.0000 0.20850  0.60140  0.07330  Biso   1.000  H
  C49      1.0000 0.30160  0.49320  0.02340  Biso   1.000  C
  H31      1.0000 0.30940  0.47340  0.00720  Biso   1.000  H
  C50      1.0000 0.96489  0.03650  0.84320  Biso   1.000  C
  H32      1.0000 0.98630  0.02890  0.83550  Biso   1.000  H
  C51      1.0000 0.24912  0.52530  0.04710  Biso   1.000  C
  C52      1.0000 0.26400  0.49640  0.02410  Biso   1.000  C
  H33      1.0000 0.24780  0.47810  0.00820  Biso   1.000  H
  C53      1.0000 0.91004  0.09070  0.77050  Biso   1.000  C
  H34      1.0000 0.89550  0.11950  0.77830  Biso   1.000  H
  C54      1.0000 0.91354  0.08140  0.93294  Biso   1.000  C
  H35      1.0000 0.89870  0.11070  0.92140  Biso   1.000  H
  C55      1.0000 0.91400  0.07460  0.96290  Biso   1.000  C
  H36      1.0000 0.89820  0.09970  0.97160  Biso   1.000  H
  N1       1.0000 0.92878  0.05040  0.72584  Biso   1.000  N
  N2       1.0000 0.09620  0.52350  0.05265  Biso   1.000  N
  N3       1.0000 0.93448  0.03630  0.98090  Biso   1.000  N
  O1       1.0000 0.96718  0.08100  0.04624  Biso   1.000  O
  O2       1.0000 0.94852  0.94140  0.02825  Biso   1.000  O
  O3       1.0000 0.91671  0.13495  0.02918  Biso   1.000  O
  O4       1.0000 0.38974  0.52070  0.07008  Biso   1.000  O
  O5       1.0000 0.95625  0.93650  0.07943  Biso   1.000  O
  O6       1.0000 0.37456  0.51170  0.01961  Biso   1.000  O
  Zn1      1.0000 0.92903  0.02452  0.02626  Biso   1.000  Zn
  C56      1.0000 0.31260  0.56940  0.64760  Biso   1.000  C
  C57      1.0000 0.30300  0.58260  0.67420  Biso   1.000  C
  H37      1.0000 0.32090  0.58950  0.69140  Biso   1.000  H
  C58      1.0000 0.97320  0.85750  0.67773  Biso   1.000  C
  H38      1.0000 0.96500  0.87330  0.69470  Biso   1.000  H
  C59      1.0000 0.96647  0.89090  0.65070  Biso   1.000  C
  C60      1.0000 0.99130  0.80250  0.68030  Biso   1.000  C
  H39      1.0000 0.99410  0.78040  0.69840  Biso   1.000  H
  C61      1.0000 0.99870  0.81150  0.62820  Biso   1.000  C
  H40      1.0000 0.00640  0.79610  0.61090  Biso   1.000  H
  C62      1.0000 0.25120  0.56200  0.62270  Biso   1.000  C
  H41      1.0000 0.23460  0.55920  0.60430  Biso   1.000  H
  C63      1.0000 0.97920  0.86990  0.62692  Biso   1.000  C
  H42      1.0000 0.97570  0.89280  0.60900  Biso   1.000  H
  C64      1.0000 0.28870  0.56050  0.62370  Biso   1.000  C
  H43      1.0000 0.29710  0.55230  0.60570  Biso   1.000  H
  C65      1.0000 0.26510  0.58590  0.67590  Biso   1.000  C
  H44      1.0000 0.25770  0.60010  0.69350  Biso   1.000  H
  C66      1.0000 0.00576  0.77880  0.65528  Biso   1.000  C
  C67      1.0000 0.23870  0.56800  0.65090  Biso   1.000  C
  C68      1.0000 0.02529  0.72130  0.65652  Biso   1.000  C
  C69      1.0000 0.13950  0.51760  0.63870  Biso   1.000  C
  H45      1.0000 0.12500  0.48760  0.62740  Biso   1.000  H
  C70      1.0000 0.03230  0.38150  0.65980  Biso   1.000  C
  C71      1.0000 0.01030  0.32030  0.65880  Biso   1.000  C
  C72      1.0000 0.07370  0.65860  0.64428  Biso   1.000  C
  H46      1.0000 0.09290  0.65350  0.63350  Biso   1.000  H
  C73      1.0000 0.97630  0.20620  0.65540  Biso   1.000  C
  C74      1.0000 0.95230  0.14470  0.65580  Biso   1.000  C
  C75      1.0000 0.19890  0.56350  0.65310  Biso   1.000  C
  C76      1.0000 0.00760  0.21430  0.67437  Biso   1.000  C
  H47      1.0000 0.01670  0.18290  0.68780  Biso   1.000  H
  C77      1.0000 0.97677  0.31030  0.63820  Biso   1.000  C
  H48      1.0000 0.96610  0.34260  0.62590  Biso   1.000  H
  C78      1.0000 0.02800  0.27120  0.67480  Biso   1.000  C
  H49      1.0000 0.05210  0.27460  0.68540  Biso   1.000  H
  C79      1.0000 0.01770  0.67110  0.67570  Biso   1.000  C
  H50      1.0000 0.99930  0.67550  0.68740  Biso   1.000  H
  C80      1.0000 0.06730  0.38960  0.67640  Biso   1.000  C
  H51      1.0000 0.07860  0.35770  0.68850  Biso   1.000  H
  C81      1.0000 0.95930  0.25180  0.63610  Biso   1.000  C
  H52      1.0000 0.93750  0.24440  0.62240  Biso   1.000  H
  C82      1.0000 0.06790  0.49700  0.66130  Biso   1.000  C
  C83      1.0000 0.06580  0.61070  0.66140  Biso   1.000  C
  C84      1.0000 0.12430  0.55670  0.65900  Biso   1.000  C
  C85      1.0000 0.03400  0.49210  0.64470  Biso   1.000  C
  H53      1.0000 0.02280  0.52490  0.63320  Biso   1.000  H
  C86      1.0000 0.08510  0.44380  0.67510  Biso   1.000  C
  H54      1.0000 0.11000  0.44590  0.68370  Biso   1.000  H
  C87      1.0000 0.18610  0.60660  0.67390  Biso   1.000  C
  H55      1.0000 0.20130  0.63680  0.68430  Biso   1.000  H
  C88      1.0000 0.05620  0.71240  0.64171  Biso   1.000  C
  H56      1.0000 0.06400  0.74410  0.63030  Biso   1.000  H
  C89      1.0000 0.03720  0.61730  0.67700  Biso   1.000  C
  H57      1.0000 0.03100  0.58460  0.68860  Biso   1.000  H
  C90      1.0000 0.01530  0.43220  0.64540  Biso   1.000  C
  H58      1.0000 0.99080  0.42880  0.63560  Biso   1.000  H
  C91      1.0000 0.14740  0.59920  0.67720  Biso   1.000  C
  H59      1.0000 0.13800  0.62280  0.69140  Biso   1.000  H
  C92      1.0000 0.94922  0.95680  0.65060  Biso   1.000  C
  C93      1.0000 0.17430  0.52470  0.63620  Biso   1.000  C
  H60      1.0000 0.18290  0.50110  0.62150  Biso   1.000  H
  C94      1.0000 0.35410  0.56330  0.64510  Biso   1.000  C
  N4       1.0000 0.08646  0.55440  0.66132  Biso   1.000  N
  O7       1.0000 0.94164  0.97320  0.67745  Biso   1.000  O
  O8       1.0000 0.94249  0.98310  0.62658  Biso   1.000  O
  O9       1.0000 0.96398  0.11450  0.67750  Biso   1.000  O
  O10      1.0000 0.36388  0.54760  0.62321  Biso   1.000  O
  O11      1.0000 0.37476  0.57420  0.67106  Biso   1.000  O
  O12      1.0000 0.93154  0.12870  0.62991  Biso   1.000  O
  Zn2      1.0000 0.92656  0.05406  0.68204  Biso   1.000  Zn
  Zn3      1.0000 0.91041  0.04844  0.60123  Biso   1.000  Zn
  C95      1.0000 0.45137  0.51460  0.74570  Biso   1.000  C
  H61      1.0000 0.46770  0.49010  0.73730  Biso   1.000  H
  C96      1.0000 0.43223  0.55570  0.79015  Biso   1.000  C
  C97      1.0000 0.40697  0.58760  0.74032  Biso   1.000  C
  H62      1.0000 0.38910  0.61190  0.72840  Biso   1.000  H
  C98      1.0000 0.43400  0.55070  0.82421  Biso   1.000  C
  C99      1.0000 0.46600  0.53270  0.87442  Biso   1.000  C
  H63      1.0000 0.48770  0.52260  0.88770  Biso   1.000  H
  C100     1.0000 0.49030  0.33670  0.02760  Biso   1.000  C
  H64      1.0000 0.48160  0.35660  0.00930  Biso   1.000  H
  C101     1.0000 0.82589  0.01730  0.04480  Biso   1.000  C
  C102     1.0000 0.57086  0.85810  0.06682  Biso   1.000  C
  H65      1.0000 0.58190  0.82320  0.07670  Biso   1.000  H
  C103     1.0000 0.54475  0.18990  0.05560  Biso   1.000  C
  C104     1.0000 0.57660  0.96690  0.05350  Biso   1.000  C
  C105     1.0000 0.43476  0.54400  0.88470  Biso   1.000  C
  C106     1.0000 0.47268  0.68940  0.04596  Biso   1.000  C
  C107     1.0000 0.48525  0.35930  0.05360  Biso   1.000  C
  C108     1.0000 0.45801  0.50360  0.93785  Biso   1.000  C
  H66      1.0000 0.47400  0.47920  0.92910  Biso   1.000  H
  C109     1.0000 0.56490  0.17890  0.03429  Biso   1.000  C
  H67      1.0000 0.56740  0.20970  0.02030  Biso   1.000  H
  C110     1.0000 0.45190  0.63260  0.04080  Biso   1.000  C
  C111     1.0000 0.51039  0.68670  0.05145  Biso   1.000  C
  H68      1.0000 0.52250  0.64890  0.05380  Biso   1.000  H
  C112     1.0000 0.57943  0.07920  0.05360  Biso   1.000  C
  C113     1.0000 0.49844  0.33350  0.08200  Biso   1.000  C
  H69      1.0000 0.49550  0.35210  0.10010  Biso   1.000  H
  C114     1.0000 0.53003  0.74120  0.05337  Biso   1.000  C
  H70      1.0000 0.55560  0.73820  0.05620  Biso   1.000  H
  C115     1.0000 0.53345  0.85610  0.04970  Biso   1.000  C
  C116     1.0000 0.45774  0.49780  0.96791  Biso   1.000  C
  H71      1.0000 0.47270  0.46890  0.97960  Biso   1.000  H
  C117     1.0000 0.43585  0.54340  0.92039  Biso   1.000  C
  C118     1.0000 0.51502  0.79940  0.05145  Biso   1.000  C
  C119     1.0000 0.54130  0.96270  0.03790  Biso   1.000  C
  H72      1.0000 0.53090  0.99750  0.02750  Biso   1.000  H
  C120     1.0000 0.77500  0.05180  0.07040  Biso   1.000  C
  H73      1.0000 0.76670  0.07190  0.08630  Biso   1.000  H
  C121     1.0000 0.39980  0.56040  0.83662  Biso   1.000  C
  H74      1.0000 0.37710  0.56810  0.82430  Biso   1.000  H
  C122     1.0000 0.50973  0.28030  0.02871  Biso   1.000  C
  H75      1.0000 0.51350  0.26140  0.01080  Biso   1.000  H
  C123     1.0000 0.54061  0.14230  0.07636  Biso   1.000  C
  H76      1.0000 0.52550  0.14890  0.09060  Biso   1.000  H
  C124     1.0000 0.51757  0.27380  0.08062  Biso   1.000  C
  H77      1.0000 0.52550  0.25140  0.09840  Biso   1.000  H
  C125     1.0000 0.52290  0.25390  0.05606  Biso   1.000  C
  C126     1.0000 0.47493  0.80200  0.04577  Biso   1.000  C
  H78      1.0000 0.46280  0.83990  0.04390  Biso   1.000  H
  C127     1.0000 0.45375  0.50890  0.77696  Biso   1.000  C
  H79      1.0000 0.46760  0.47850  0.78850  Biso   1.000  H
  C128     1.0000 0.81368  0.04880  0.07040  Biso   1.000  C
  H80      1.0000 0.83070  0.06630  0.08610  Biso   1.000  H
  C129     1.0000 0.58950  0.91390  0.06793  Biso   1.000  C
  H81      1.0000 0.61310  0.91520  0.07960  Biso   1.000  H
  C130     1.0000 0.65025  0.97390  0.03810  Biso   1.000  C
  H82      1.0000 0.63570  0.94060  0.03010  Biso   1.000  H
  C131     1.0000 0.52070  0.91140  0.03660  Biso   1.000  C
  H83      1.0000 0.49640  0.91320  0.02620  Biso   1.000  H
  C132     1.0000 0.45520  0.74790  0.04327  Biso   1.000  C
  H84      1.0000 0.42950  0.74970  0.03970  Biso   1.000  H
  C133     1.0000 0.65807  0.06890  0.06460  Biso   1.000  C
  H85      1.0000 0.64830  0.10230  0.07350  Biso   1.000  H
  C134     1.0000 0.40391  0.55710  0.86624  Biso   1.000  C
  H86      1.0000 0.38320  0.56480  0.87490  Biso   1.000  H
  C135     1.0000 0.46044  0.42040  0.05320  Biso   1.000  C
  C136     1.0000 0.86730  0.01770  0.04760  Biso   1.000  C
  C137     1.0000 0.71049  0.02380  0.04835  Biso   1.000  C
  C138     1.0000 0.58212  0.12330  0.03242  Biso   1.000  C
  H87      1.0000 0.59540  0.11580  0.01690  Biso   1.000  H
  C139     1.0000 0.63460  0.02170  0.05310  Biso   1.000  C
  C140     1.0000 0.68951  0.97610  0.03490  Biso   1.000  C
  H88      1.0000 0.69960  0.94590  0.02400  Biso   1.000  H
  C141     1.0000 0.55787  0.08770  0.07610  Biso   1.000  C
  H89      1.0000 0.55560  0.05700  0.09010  Biso   1.000  H
  C142     1.0000 0.69393  0.06960  0.06360  Biso   1.000  C
  H90      1.0000 0.70850  0.10140  0.07330  Biso   1.000  H
  C143     1.0000 0.80160  0.99320  0.02340  Biso   1.000  C
  H91      1.0000 0.80940  0.97340  0.00720  Biso   1.000  H
  C144     1.0000 0.46489  0.53650  0.84320  Biso   1.000  C
  H92      1.0000 0.48630  0.52890  0.83550  Biso   1.000  H
  C145     1.0000 0.74912  0.02530  0.04710  Biso   1.000  C
  C146     1.0000 0.76400  0.99640  0.02410  Biso   1.000  C
  H93      1.0000 0.74780  0.97810  0.00820  Biso   1.000  H
  C147     1.0000 0.41004  0.59070  0.77050  Biso   1.000  C
  H94      1.0000 0.39550  0.61950  0.77830  Biso   1.000  H
  C148     1.0000 0.41354  0.58140  0.93294  Biso   1.000  C
  H95      1.0000 0.39870  0.61070  0.92140  Biso   1.000  H
  C149     1.0000 0.41400  0.57460  0.96290  Biso   1.000  C
  H96      1.0000 0.39820  0.59970  0.97160  Biso   1.000  H
  N5       1.0000 0.42878  0.55040  0.72584  Biso   1.000  N
  N6       1.0000 0.59620  0.02350  0.05265  Biso   1.000  N
  N7       1.0000 0.43448  0.53630  0.98090  Biso   1.000  N
  O13      1.0000 0.46718  0.58100  0.04624  Biso   1.000  O
  O14      1.0000 0.44852  0.44140  0.02825  Biso   1.000  O
  O15      1.0000 0.41671  0.63495  0.02918  Biso   1.000  O
  O16      1.0000 0.88974  0.02070  0.07008  Biso   1.000  O
  O17      1.0000 0.45625  0.43650  0.07943  Biso   1.000  O
  O18      1.0000 0.87456  0.01170  0.01961  Biso   1.000  O
  Zn4      1.0000 0.42903  0.52452  0.02626  Biso   1.000  Zn
  C150     1.0000 0.81260  0.06940  0.64760  Biso   1.000  C
  C151     1.0000 0.80300  0.08260  0.67420  Biso   1.000  C
  H97      1.0000 0.82090  0.08950  0.69140  Biso   1.000  H
  C152     1.0000 0.47320  0.35750  0.67773  Biso   1.000  C
  H98      1.0000 0.46500  0.37330  0.69470  Biso   1.000  H
  C153     1.0000 0.46647  0.39090  0.65070  Biso   1.000  C
  C154     1.0000 0.49130  0.30250  0.68030  Biso   1.000  C
  H99      1.0000 0.49410  0.28040  0.69840  Biso   1.000  H
  C155     1.0000 0.49870  0.31150  0.62820  Biso   1.000  C
  H100     1.0000 0.50640  0.29610  0.61090  Biso   1.000  H
  C156     1.0000 0.75120  0.06200  0.62270  Biso   1.000  C
  H101     1.0000 0.73460  0.05920  0.60430  Biso   1.000  H
  C157     1.0000 0.47920  0.36990  0.62692  Biso   1.000  C
  H102     1.0000 0.47570  0.39280  0.60900  Biso   1.000  H
  C158     1.0000 0.78870  0.06050  0.62370  Biso   1.000  C
  H103     1.0000 0.79710  0.05230  0.60570  Biso   1.000  H
  C159     1.0000 0.76510  0.08590  0.67590  Biso   1.000  C
  H104     1.0000 0.75770  0.10010  0.69350  Biso   1.000  H
  C160     1.0000 0.50576  0.27880  0.65528  Biso   1.000  C
  C161     1.0000 0.73870  0.06800  0.65090  Biso   1.000  C
  C162     1.0000 0.52529  0.22130  0.65652  Biso   1.000  C
  C163     1.0000 0.63950  0.01760  0.63870  Biso   1.000  C
  H105     1.0000 0.62500  0.98760  0.62740  Biso   1.000  H
  C164     1.0000 0.53230  0.88150  0.65980  Biso   1.000  C
  C165     1.0000 0.51030  0.82030  0.65880  Biso   1.000  C
  C166     1.0000 0.57370  0.15860  0.64428  Biso   1.000  C
  H106     1.0000 0.59290  0.15350  0.63350  Biso   1.000  H
  C167     1.0000 0.47630  0.70620  0.65540  Biso   1.000  C
  C168     1.0000 0.45230  0.64470  0.65580  Biso   1.000  C
  C169     1.0000 0.69890  0.06350  0.65310  Biso   1.000  C
  C170     1.0000 0.50760  0.71430  0.67437  Biso   1.000  C
  H107     1.0000 0.51670  0.68290  0.68780  Biso   1.000  H
  C171     1.0000 0.47677  0.81030  0.63820  Biso   1.000  C
  H108     1.0000 0.46610  0.84260  0.62590  Biso   1.000  H
  C172     1.0000 0.52800  0.77120  0.67480  Biso   1.000  C
  H109     1.0000 0.55210  0.77460  0.68540  Biso   1.000  H
  C173     1.0000 0.51770  0.17110  0.67570  Biso   1.000  C
  H110     1.0000 0.49930  0.17550  0.68740  Biso   1.000  H
  C174     1.0000 0.56730  0.88960  0.67640  Biso   1.000  C
  H111     1.0000 0.57860  0.85770  0.68850  Biso   1.000  H
  C175     1.0000 0.45930  0.75180  0.63610  Biso   1.000  C
  H112     1.0000 0.43750  0.74440  0.62240  Biso   1.000  H
  C176     1.0000 0.56790  0.99700  0.66130  Biso   1.000  C
  C177     1.0000 0.56580  0.11070  0.66140  Biso   1.000  C
  C178     1.0000 0.62430  0.05670  0.65900  Biso   1.000  C
  C179     1.0000 0.53400  0.99210  0.64470  Biso   1.000  C
  H113     1.0000 0.52280  0.02490  0.63320  Biso   1.000  H
  C180     1.0000 0.58510  0.94380  0.67510  Biso   1.000  C
  H114     1.0000 0.61000  0.94590  0.68370  Biso   1.000  H
  C181     1.0000 0.68610  0.10660  0.67390  Biso   1.000  C
  H115     1.0000 0.70130  0.13680  0.68430  Biso   1.000  H
  C182     1.0000 0.55620  0.21240  0.64171  Biso   1.000  C
  H116     1.0000 0.56400  0.24410  0.63030  Biso   1.000  H
  C183     1.0000 0.53720  0.11730  0.67700  Biso   1.000  C
  H117     1.0000 0.53100  0.08460  0.68860  Biso   1.000  H
  C184     1.0000 0.51530  0.93220  0.64540  Biso   1.000  C
  H118     1.0000 0.49080  0.92880  0.63560  Biso   1.000  H
  C185     1.0000 0.64740  0.09920  0.67720  Biso   1.000  C
  H119     1.0000 0.63800  0.12280  0.69140  Biso   1.000  H
  C186     1.0000 0.44922  0.45680  0.65060  Biso   1.000  C
  C187     1.0000 0.67430  0.02470  0.63620  Biso   1.000  C
  H120     1.0000 0.68290  0.00110  0.62150  Biso   1.000  H
  C188     1.0000 0.85410  0.06330  0.64510  Biso   1.000  C
  N8       1.0000 0.58646  0.05440  0.66132  Biso   1.000  N
  O19      1.0000 0.44164  0.47320  0.67745  Biso   1.000  O
  O20      1.0000 0.44249  0.48310  0.62658  Biso   1.000  O
  O21      1.0000 0.46398  0.61450  0.67750  Biso   1.000  O
  O22      1.0000 0.86388  0.04760  0.62321  Biso   1.000  O
  O23      1.0000 0.87476  0.07420  0.67106  Biso   1.000  O
  O24      1.0000 0.43154  0.62870  0.62991  Biso   1.000  O
  Zn5      1.0000 0.42656  0.55406  0.68204  Biso   1.000  Zn
  Zn6      1.0000 0.41041  0.54844  0.60123  Biso   1.000  Zn
  C189     1.0000 0.95137  0.98540  0.24570  Biso   1.000  C
  H121     1.0000 0.96770  0.00990  0.23730  Biso   1.000  H
  C190     1.0000 0.93223  0.94430  0.29015  Biso   1.000  C
  C191     1.0000 0.90697  0.91240  0.24032  Biso   1.000  C
  H122     1.0000 0.88910  0.88810  0.22840  Biso   1.000  H
  C192     1.0000 0.93400  0.94930  0.32421  Biso   1.000  C
  C193     1.0000 0.96600  0.96730  0.37442  Biso   1.000  C
  H123     1.0000 0.98770  0.97740  0.38770  Biso   1.000  H
  C194     1.0000 0.99030  0.16330  0.52760  Biso   1.000  C
  H124     1.0000 0.98160  0.14340  0.50930  Biso   1.000  H
  C195     1.0000 0.32589  0.48270  0.54480  Biso   1.000  C
  C196     1.0000 0.07086  0.64190  0.56682  Biso   1.000  C
  H125     1.0000 0.08190  0.67680  0.57670  Biso   1.000  H
  C197     1.0000 0.04475  0.31010  0.55560  Biso   1.000  C
  C198     1.0000 0.07660  0.53310  0.55350  Biso   1.000  C
  C199     1.0000 0.93476  0.95600  0.38470  Biso   1.000  C
  C200     1.0000 0.97268  0.81060  0.54596  Biso   1.000  C
  C201     1.0000 0.98525  0.14070  0.55360  Biso   1.000  C
  C202     1.0000 0.95801  0.99640  0.43785  Biso   1.000  C
  H126     1.0000 0.97400  0.02080  0.42910  Biso   1.000  H
  C203     1.0000 0.06490  0.32110  0.53429  Biso   1.000  C
  H127     1.0000 0.06740  0.29030  0.52030  Biso   1.000  H
  C204     1.0000 0.95190  0.86740  0.54080  Biso   1.000  C
  C205     1.0000 0.01039  0.81330  0.55145  Biso   1.000  C
  H128     1.0000 0.02250  0.85110  0.55380  Biso   1.000  H
  C206     1.0000 0.07943  0.42080  0.55360  Biso   1.000  C
  C207     1.0000 0.99844  0.16650  0.58200  Biso   1.000  C
  H129     1.0000 0.99550  0.14790  0.60010  Biso   1.000  H
  C208     1.0000 0.03003  0.75880  0.55337  Biso   1.000  C
  H130     1.0000 0.05560  0.76180  0.55620  Biso   1.000  H
  C209     1.0000 0.03345  0.64390  0.54970  Biso   1.000  C
  C210     1.0000 0.95774  0.00220  0.46791  Biso   1.000  C
  H131     1.0000 0.97270  0.03110  0.47960  Biso   1.000  H
  C211     1.0000 0.93585  0.95660  0.42039  Biso   1.000  C
  C212     1.0000 0.01502  0.70060  0.55145  Biso   1.000  C
  C213     1.0000 0.04130  0.53730  0.53790  Biso   1.000  C
  H132     1.0000 0.03090  0.50250  0.52750  Biso   1.000  H
  C214     1.0000 0.27500  0.44820  0.57040  Biso   1.000  C
  H133     1.0000 0.26670  0.42810  0.58630  Biso   1.000  H
  C215     1.0000 0.89980  0.93960  0.33662  Biso   1.000  C
  H134     1.0000 0.87710  0.93190  0.32430  Biso   1.000  H
  C216     1.0000 0.00973  0.21970  0.52871  Biso   1.000  C
  H135     1.0000 0.01350  0.23860  0.51080  Biso   1.000  H
  C217     1.0000 0.04061  0.35770  0.57636  Biso   1.000  C
  H136     1.0000 0.02550  0.35110  0.59060  Biso   1.000  H
  C218     1.0000 0.01757  0.22620  0.58062  Biso   1.000  C
  H137     1.0000 0.02550  0.24860  0.59840  Biso   1.000  H
  C219     1.0000 0.02290  0.24610  0.55606  Biso   1.000  C
  C220     1.0000 0.97493  0.69800  0.54577  Biso   1.000  C
  H138     1.0000 0.96280  0.66010  0.54390  Biso   1.000  H
  C221     1.0000 0.95375  0.99110  0.27696  Biso   1.000  C
  H139     1.0000 0.96760  0.02150  0.28850  Biso   1.000  H
  C222     1.0000 0.31368  0.45120  0.57040  Biso   1.000  C
  H140     1.0000 0.33070  0.43370  0.58610  Biso   1.000  H
  C223     1.0000 0.08950  0.58610  0.56793  Biso   1.000  C
  H141     1.0000 0.11310  0.58480  0.57960  Biso   1.000  H
  C224     1.0000 0.15025  0.52610  0.53810  Biso   1.000  C
  H142     1.0000 0.13570  0.55940  0.53010  Biso   1.000  H
  C225     1.0000 0.02070  0.58860  0.53660  Biso   1.000  C
  H143     1.0000 0.99640  0.58680  0.52620  Biso   1.000  H
  C226     1.0000 0.95520  0.75210  0.54327  Biso   1.000  C
  H144     1.0000 0.92950  0.75030  0.53970  Biso   1.000  H
  C227     1.0000 0.15807  0.43110  0.56460  Biso   1.000  C
  H145     1.0000 0.14830  0.39770  0.57350  Biso   1.000  H
  C228     1.0000 0.90391  0.94290  0.36624  Biso   1.000  C
  H146     1.0000 0.88320  0.93520  0.37490  Biso   1.000  H
  C229     1.0000 0.96044  0.07960  0.55320  Biso   1.000  C
  C230     1.0000 0.36730  0.48230  0.54760  Biso   1.000  C
  C231     1.0000 0.21049  0.47620  0.54835  Biso   1.000  C
  C232     1.0000 0.08212  0.37670  0.53242  Biso   1.000  C
  H147     1.0000 0.09540  0.38420  0.51690  Biso   1.000  H
  C233     1.0000 0.13460  0.47830  0.55310  Biso   1.000  C
  C234     1.0000 0.18951  0.52390  0.53490  Biso   1.000  C
  H148     1.0000 0.19960  0.55410  0.52400  Biso   1.000  H
  C235     1.0000 0.05787  0.41230  0.57610  Biso   1.000  C
  H149     1.0000 0.05560  0.44300  0.59010  Biso   1.000  H
  C236     1.0000 0.19393  0.43040  0.56360  Biso   1.000  C
  H150     1.0000 0.20850  0.39860  0.57330  Biso   1.000  H
  C237     1.0000 0.30160  0.50680  0.52340  Biso   1.000  C
  H151     1.0000 0.30940  0.52660  0.50720  Biso   1.000  H
  C238     1.0000 0.96489  0.96350  0.34320  Biso   1.000  C
  H152     1.0000 0.98630  0.97110  0.33550  Biso   1.000  H
  C239     1.0000 0.24912  0.47470  0.54710  Biso   1.000  C
  C240     1.0000 0.26400  0.50360  0.52410  Biso   1.000  C
  H153     1.0000 0.24780  0.52190  0.50820  Biso   1.000  H
  C241     1.0000 0.91004  0.90930  0.27050  Biso   1.000  C
  H154     1.0000 0.89550  0.88050  0.27830  Biso   1.000  H
  C242     1.0000 0.91354  0.91860  0.43294  Biso   1.000  C
  H155     1.0000 0.89870  0.88930  0.42140  Biso   1.000  H
  C243     1.0000 0.91400  0.92540  0.46290  Biso   1.000  C
  H156     1.0000 0.89820  0.90030  0.47160  Biso   1.000  H
  N9       1.0000 0.92878  0.94960  0.22584  Biso   1.000  N
  N10      1.0000 0.09620  0.47650  0.55265  Biso   1.000  N
  N11      1.0000 0.93448  0.96370  0.48090  Biso   1.000  N
  O25      1.0000 0.96718  0.91900  0.54624  Biso   1.000  O
  O26      1.0000 0.94852  0.05860  0.52825  Biso   1.000  O
  O27      1.0000 0.91671  0.86505  0.52918  Biso   1.000  O
  O28      1.0000 0.38974  0.47930  0.57008  Biso   1.000  O
  O29      1.0000 0.95625  0.06350  0.57943  Biso   1.000  O
  O30      1.0000 0.37456  0.48830  0.51961  Biso   1.000  O
  Zn7      1.0000 0.92903  0.97548  0.52626  Biso   1.000  Zn
  C244     1.0000 0.31260  0.43060  0.14760  Biso   1.000  C
  C245     1.0000 0.30300  0.41740  0.17420  Biso   1.000  C
  H157     1.0000 0.32090  0.41050  0.19140  Biso   1.000  H
  C246     1.0000 0.97320  0.14250  0.17773  Biso   1.000  C
  H158     1.0000 0.96500  0.12670  0.19470  Biso   1.000  H
  C247     1.0000 0.96647  0.10910  0.15070  Biso   1.000  C
  C248     1.0000 0.99130  0.19750  0.18030  Biso   1.000  C
  H159     1.0000 0.99410  0.21960  0.19840  Biso   1.000  H
  C249     1.0000 0.99870  0.18850  0.12820  Biso   1.000  C
  H160     1.0000 0.00640  0.20390  0.11090  Biso   1.000  H
  C250     1.0000 0.25120  0.43800  0.12270  Biso   1.000  C
  H161     1.0000 0.23460  0.44080  0.10430  Biso   1.000  H
  C251     1.0000 0.97920  0.13010  0.12692  Biso   1.000  C
  H162     1.0000 0.97570  0.10720  0.10900  Biso   1.000  H
  C252     1.0000 0.28870  0.43950  0.12370  Biso   1.000  C
  H163     1.0000 0.29710  0.44770  0.10570  Biso   1.000  H
  C253     1.0000 0.26510  0.41410  0.17590  Biso   1.000  C
  H164     1.0000 0.25770  0.39990  0.19350  Biso   1.000  H
  C254     1.0000 0.00576  0.22120  0.15528  Biso   1.000  C
  C255     1.0000 0.23870  0.43200  0.15090  Biso   1.000  C
  C256     1.0000 0.02529  0.27870  0.15652  Biso   1.000  C
  C257     1.0000 0.13950  0.48240  0.13870  Biso   1.000  C
  H165     1.0000 0.12500  0.51240  0.12740  Biso   1.000  H
  C258     1.0000 0.03230  0.61850  0.15980  Biso   1.000  C
  C259     1.0000 0.01030  0.67970  0.15880  Biso   1.000  C
  C260     1.0000 0.07370  0.34140  0.14428  Biso   1.000  C
  H166     1.0000 0.09290  0.34650  0.13350  Biso   1.000  H
  C261     1.0000 0.97630  0.79380  0.15540  Biso   1.000  C
  C262     1.0000 0.95230  0.85530  0.15580  Biso   1.000  C
  C263     1.0000 0.19890  0.43650  0.15310  Biso   1.000  C
  C264     1.0000 0.00760  0.78570  0.17437  Biso   1.000  C
  H167     1.0000 0.01670  0.81710  0.18780  Biso   1.000  H
  C265     1.0000 0.97677  0.68970  0.13820  Biso   1.000  C
  H168     1.0000 0.96610  0.65740  0.12590  Biso   1.000  H
  C266     1.0000 0.02800  0.72880  0.17480  Biso   1.000  C
  H169     1.0000 0.05210  0.72540  0.18540  Biso   1.000  H
  C267     1.0000 0.01770  0.32890  0.17570  Biso   1.000  C
  H170     1.0000 0.99930  0.32450  0.18740  Biso   1.000  H
  C268     1.0000 0.06730  0.61040  0.17640  Biso   1.000  C
  H171     1.0000 0.07860  0.64230  0.18850  Biso   1.000  H
  C269     1.0000 0.95930  0.74820  0.13610  Biso   1.000  C
  H172     1.0000 0.93750  0.75560  0.12240  Biso   1.000  H
  C270     1.0000 0.06790  0.50300  0.16130  Biso   1.000  C
  C271     1.0000 0.06580  0.38930  0.16140  Biso   1.000  C
  C272     1.0000 0.12430  0.44330  0.15900  Biso   1.000  C
  C273     1.0000 0.03400  0.50790  0.14470  Biso   1.000  C
  H173     1.0000 0.02280  0.47510  0.13320  Biso   1.000  H
  C274     1.0000 0.08510  0.55620  0.17510  Biso   1.000  C
  H174     1.0000 0.11000  0.55410  0.18370  Biso   1.000  H
  C275     1.0000 0.18610  0.39340  0.17390  Biso   1.000  C
  H175     1.0000 0.20130  0.36320  0.18430  Biso   1.000  H
  C276     1.0000 0.05620  0.28760  0.14171  Biso   1.000  C
  H176     1.0000 0.06400  0.25590  0.13030  Biso   1.000  H
  C277     1.0000 0.03720  0.38270  0.17700  Biso   1.000  C
  H177     1.0000 0.03100  0.41540  0.18860  Biso   1.000  H
  C278     1.0000 0.01530  0.56780  0.14540  Biso   1.000  C
  H178     1.0000 0.99080  0.57120  0.13560  Biso   1.000  H
  C279     1.0000 0.14740  0.40080  0.17720  Biso   1.000  C
  H179     1.0000 0.13800  0.37720  0.19140  Biso   1.000  H
  C280     1.0000 0.94922  0.04320  0.15060  Biso   1.000  C
  C281     1.0000 0.17430  0.47530  0.13620  Biso   1.000  C
  H180     1.0000 0.18290  0.49890  0.12150  Biso   1.000  H
  C282     1.0000 0.35410  0.43670  0.14510  Biso   1.000  C
  N12      1.0000 0.08646  0.44560  0.16132  Biso   1.000  N
  O31      1.0000 0.94164  0.02680  0.17745  Biso   1.000  O
  O32      1.0000 0.94249  0.01690  0.12658  Biso   1.000  O
  O33      1.0000 0.96398  0.88550  0.17750  Biso   1.000  O
  O34      1.0000 0.36388  0.45240  0.12321  Biso   1.000  O
  O35      1.0000 0.37476  0.42580  0.17106  Biso   1.000  O
  O36      1.0000 0.93154  0.87130  0.12991  Biso   1.000  O
  Zn8      1.0000 0.92656  0.94594  0.18204  Biso   1.000  Zn
  Zn9      1.0000 0.91041  0.95156  0.10123  Biso   1.000  Zn
  C283     1.0000 0.45137  0.48540  0.24570  Biso   1.000  C
  H181     1.0000 0.46770  0.50990  0.23730  Biso   1.000  H
  C284     1.0000 0.43223  0.44430  0.29015  Biso   1.000  C
  C285     1.0000 0.40697  0.41240  0.24032  Biso   1.000  C
  H182     1.0000 0.38910  0.38810  0.22840  Biso   1.000  H
  C286     1.0000 0.43400  0.44930  0.32421  Biso   1.000  C
  C287     1.0000 0.46600  0.46730  0.37442  Biso   1.000  C
  H183     1.0000 0.48770  0.47740  0.38770  Biso   1.000  H
  C288     1.0000 0.49030  0.66330  0.52760  Biso   1.000  C
  H184     1.0000 0.48160  0.64340  0.50930  Biso   1.000  H
  C289     1.0000 0.82589  0.98270  0.54480  Biso   1.000  C
  C290     1.0000 0.57086  0.14190  0.56682  Biso   1.000  C
  H185     1.0000 0.58190  0.17680  0.57670  Biso   1.000  H
  C291     1.0000 0.54475  0.81010  0.55560  Biso   1.000  C
  C292     1.0000 0.57660  0.03310  0.55350  Biso   1.000  C
  C293     1.0000 0.43476  0.45600  0.38470  Biso   1.000  C
  C294     1.0000 0.47268  0.31060  0.54596  Biso   1.000  C
  C295     1.0000 0.48525  0.64070  0.55360  Biso   1.000  C
  C296     1.0000 0.45801  0.49640  0.43785  Biso   1.000  C
  H186     1.0000 0.47400  0.52080  0.42910  Biso   1.000  H
  C297     1.0000 0.56490  0.82110  0.53429  Biso   1.000  C
  H187     1.0000 0.56740  0.79030  0.52030  Biso   1.000  H
  C298     1.0000 0.45190  0.36740  0.54080  Biso   1.000  C
  C299     1.0000 0.51039  0.31330  0.55145  Biso   1.000  C
  H188     1.0000 0.52250  0.35110  0.55380  Biso   1.000  H
  C300     1.0000 0.57943  0.92080  0.55360  Biso   1.000  C
  C301     1.0000 0.49844  0.66650  0.58200  Biso   1.000  C
  H189     1.0000 0.49550  0.64790  0.60010  Biso   1.000  H
  C302     1.0000 0.53003  0.25880  0.55337  Biso   1.000  C
  H190     1.0000 0.55560  0.26180  0.55620  Biso   1.000  H
  C303     1.0000 0.53345  0.14390  0.54970  Biso   1.000  C
  C304     1.0000 0.45774  0.50220  0.46791  Biso   1.000  C
  H191     1.0000 0.47270  0.53110  0.47960  Biso   1.000  H
  C305     1.0000 0.43585  0.45660  0.42039  Biso   1.000  C
  C306     1.0000 0.51502  0.20060  0.55145  Biso   1.000  C
  C307     1.0000 0.54130  0.03730  0.53790  Biso   1.000  C
  H192     1.0000 0.53090  0.00250  0.52750  Biso   1.000  H
  C308     1.0000 0.77500  0.94820  0.57040  Biso   1.000  C
  H193     1.0000 0.76670  0.92810  0.58630  Biso   1.000  H
  C309     1.0000 0.39980  0.43960  0.33662  Biso   1.000  C
  H194     1.0000 0.37710  0.43190  0.32430  Biso   1.000  H
  C310     1.0000 0.50973  0.71970  0.52871  Biso   1.000  C
  H195     1.0000 0.51350  0.73860  0.51080  Biso   1.000  H
  C311     1.0000 0.54061  0.85770  0.57636  Biso   1.000  C
  H196     1.0000 0.52550  0.85110  0.59060  Biso   1.000  H
  C312     1.0000 0.51757  0.72620  0.58062  Biso   1.000  C
  H197     1.0000 0.52550  0.74860  0.59840  Biso   1.000  H
  C313     1.0000 0.52290  0.74610  0.55606  Biso   1.000  C
  C314     1.0000 0.47493  0.19800  0.54577  Biso   1.000  C
  H198     1.0000 0.46280  0.16010  0.54390  Biso   1.000  H
  C315     1.0000 0.45375  0.49110  0.27696  Biso   1.000  C
  H199     1.0000 0.46760  0.52150  0.28850  Biso   1.000  H
  C316     1.0000 0.81368  0.95120  0.57040  Biso   1.000  C
  H200     1.0000 0.83070  0.93370  0.58610  Biso   1.000  H
  C317     1.0000 0.58950  0.08610  0.56793  Biso   1.000  C
  H201     1.0000 0.61310  0.08480  0.57960  Biso   1.000  H
  C318     1.0000 0.65025  0.02610  0.53810  Biso   1.000  C
  H202     1.0000 0.63570  0.05940  0.53010  Biso   1.000  H
  C319     1.0000 0.52070  0.08860  0.53660  Biso   1.000  C
  H203     1.0000 0.49640  0.08680  0.52620  Biso   1.000  H
  C320     1.0000 0.45520  0.25210  0.54327  Biso   1.000  C
  H204     1.0000 0.42950  0.25030  0.53970  Biso   1.000  H
  C321     1.0000 0.65807  0.93110  0.56460  Biso   1.000  C
  H205     1.0000 0.64830  0.89770  0.57350  Biso   1.000  H
  C322     1.0000 0.40391  0.44290  0.36624  Biso   1.000  C
  H206     1.0000 0.38320  0.43520  0.37490  Biso   1.000  H
  C323     1.0000 0.46044  0.57960  0.55320  Biso   1.000  C
  C324     1.0000 0.86730  0.98230  0.54760  Biso   1.000  C
  C325     1.0000 0.71049  0.97620  0.54835  Biso   1.000  C
  C326     1.0000 0.58212  0.87670  0.53242  Biso   1.000  C
  H207     1.0000 0.59540  0.88420  0.51690  Biso   1.000  H
  C327     1.0000 0.63460  0.97830  0.55310  Biso   1.000  C
  C328     1.0000 0.68951  0.02390  0.53490  Biso   1.000  C
  H208     1.0000 0.69960  0.05410  0.52400  Biso   1.000  H
  C329     1.0000 0.55787  0.91230  0.57610  Biso   1.000  C
  H209     1.0000 0.55560  0.94300  0.59010  Biso   1.000  H
  C330     1.0000 0.69393  0.93040  0.56360  Biso   1.000  C
  H210     1.0000 0.70850  0.89860  0.57330  Biso   1.000  H
  C331     1.0000 0.80160  0.00680  0.52340  Biso   1.000  C
  H211     1.0000 0.80940  0.02660  0.50720  Biso   1.000  H
  C332     1.0000 0.46489  0.46350  0.34320  Biso   1.000  C
  H212     1.0000 0.48630  0.47110  0.33550  Biso   1.000  H
  C333     1.0000 0.74912  0.97470  0.54710  Biso   1.000  C
  C334     1.0000 0.76400  0.00360  0.52410  Biso   1.000  C
  H213     1.0000 0.74780  0.02190  0.50820  Biso   1.000  H
  C335     1.0000 0.41004  0.40930  0.27050  Biso   1.000  C
  H214     1.0000 0.39550  0.38050  0.27830  Biso   1.000  H
  C336     1.0000 0.41354  0.41860  0.43294  Biso   1.000  C
  H215     1.0000 0.39870  0.38930  0.42140  Biso   1.000  H
  C337     1.0000 0.41400  0.42540  0.46290  Biso   1.000  C
  H216     1.0000 0.39820  0.40030  0.47160  Biso   1.000  H
  N13      1.0000 0.42878  0.44960  0.22584  Biso   1.000  N
  N14      1.0000 0.59620  0.97650  0.55265  Biso   1.000  N
  N15      1.0000 0.43448  0.46370  0.48090  Biso   1.000  N
  O37      1.0000 0.46718  0.41900  0.54624  Biso   1.000  O
  O38      1.0000 0.44852  0.55860  0.52825  Biso   1.000  O
  O39      1.0000 0.41671  0.36505  0.52918  Biso   1.000  O
  O40      1.0000 0.88974  0.97930  0.57008  Biso   1.000  O
  O41      1.0000 0.45625  0.56350  0.57943  Biso   1.000  O
  O42      1.0000 0.87456  0.98830  0.51961  Biso   1.000  O
  Zn10     1.0000 0.42903  0.47548  0.52626  Biso   1.000  Zn
  C338     1.0000 0.81260  0.93060  0.14760  Biso   1.000  C
  C339     1.0000 0.80300  0.91740  0.17420  Biso   1.000  C
  H217     1.0000 0.82090  0.91050  0.19140  Biso   1.000  H
  C340     1.0000 0.47320  0.64250  0.17773  Biso   1.000  C
  H218     1.0000 0.46500  0.62670  0.19470  Biso   1.000  H
  C341     1.0000 0.46647  0.60910  0.15070  Biso   1.000  C
  C342     1.0000 0.49130  0.69750  0.18030  Biso   1.000  C
  H219     1.0000 0.49410  0.71960  0.19840  Biso   1.000  H
  C343     1.0000 0.49870  0.68850  0.12820  Biso   1.000  C
  H220     1.0000 0.50640  0.70390  0.11090  Biso   1.000  H
  C344     1.0000 0.75120  0.93800  0.12270  Biso   1.000  C
  H221     1.0000 0.73460  0.94080  0.10430  Biso   1.000  H
  C345     1.0000 0.47920  0.63010  0.12692  Biso   1.000  C
  H222     1.0000 0.47570  0.60720  0.10900  Biso   1.000  H
  C346     1.0000 0.78870  0.93950  0.12370  Biso   1.000  C
  H223     1.0000 0.79710  0.94770  0.10570  Biso   1.000  H
  C347     1.0000 0.76510  0.91410  0.17590  Biso   1.000  C
  H224     1.0000 0.75770  0.89990  0.19350  Biso   1.000  H
  C348     1.0000 0.50576  0.72120  0.15528  Biso   1.000  C
  C349     1.0000 0.73870  0.93200  0.15090  Biso   1.000  C
  C350     1.0000 0.52529  0.77870  0.15652  Biso   1.000  C
  C351     1.0000 0.63950  0.98240  0.13870  Biso   1.000  C
  H225     1.0000 0.62500  0.01240  0.12740  Biso   1.000  H
  C352     1.0000 0.53230  0.11850  0.15980  Biso   1.000  C
  C353     1.0000 0.51030  0.17970  0.15880  Biso   1.000  C
  C354     1.0000 0.57370  0.84140  0.14428  Biso   1.000  C
  H226     1.0000 0.59290  0.84650  0.13350  Biso   1.000  H
  C355     1.0000 0.47630  0.29380  0.15540  Biso   1.000  C
  C356     1.0000 0.45230  0.35530  0.15580  Biso   1.000  C
  C357     1.0000 0.69890  0.93650  0.15310  Biso   1.000  C
  C358     1.0000 0.50760  0.28570  0.17437  Biso   1.000  C
  H227     1.0000 0.51670  0.31710  0.18780  Biso   1.000  H
  C359     1.0000 0.47677  0.18970  0.13820  Biso   1.000  C
  H228     1.0000 0.46610  0.15740  0.12590  Biso   1.000  H
  C360     1.0000 0.52800  0.22880  0.17480  Biso   1.000  C
  H229     1.0000 0.55210  0.22540  0.18540  Biso   1.000  H
  C361     1.0000 0.51770  0.82890  0.17570  Biso   1.000  C
  H230     1.0000 0.49930  0.82450  0.18740  Biso   1.000  H
  C362     1.0000 0.56730  0.11040  0.17640  Biso   1.000  C
  H231     1.0000 0.57860  0.14230  0.18850  Biso   1.000  H
  C363     1.0000 0.45930  0.24820  0.13610  Biso   1.000  C
  H232     1.0000 0.43750  0.25560  0.12240  Biso   1.000  H
  C364     1.0000 0.56790  0.00300  0.16130  Biso   1.000  C
  C365     1.0000 0.56580  0.88930  0.16140  Biso   1.000  C
  C366     1.0000 0.62430  0.94330  0.15900  Biso   1.000  C
  C367     1.0000 0.53400  0.00790  0.14470  Biso   1.000  C
  H233     1.0000 0.52280  0.97510  0.13320  Biso   1.000  H
  C368     1.0000 0.58510  0.05620  0.17510  Biso   1.000  C
  H234     1.0000 0.61000  0.05410  0.18370  Biso   1.000  H
  C369     1.0000 0.68610  0.89340  0.17390  Biso   1.000  C
  H235     1.0000 0.70130  0.86320  0.18430  Biso   1.000  H
  C370     1.0000 0.55620  0.78760  0.14171  Biso   1.000  C
  H236     1.0000 0.56400  0.75590  0.13030  Biso   1.000  H
  C371     1.0000 0.53720  0.88270  0.17700  Biso   1.000  C
  H237     1.0000 0.53100  0.91540  0.18860  Biso   1.000  H
  C372     1.0000 0.51530  0.06780  0.14540  Biso   1.000  C
  H238     1.0000 0.49080  0.07120  0.13560  Biso   1.000  H
  C373     1.0000 0.64740  0.90080  0.17720  Biso   1.000  C
  H239     1.0000 0.63800  0.87720  0.19140  Biso   1.000  H
  C374     1.0000 0.44922  0.54320  0.15060  Biso   1.000  C
  C375     1.0000 0.67430  0.97530  0.13620  Biso   1.000  C
  H240     1.0000 0.68290  0.99890  0.12150  Biso   1.000  H
  C376     1.0000 0.85410  0.93670  0.14510  Biso   1.000  C
  N16      1.0000 0.58646  0.94560  0.16132  Biso   1.000  N
  O43      1.0000 0.44164  0.52680  0.17745  Biso   1.000  O
  O44      1.0000 0.44249  0.51690  0.12658  Biso   1.000  O
  O45      1.0000 0.46398  0.38550  0.17750  Biso   1.000  O
  O46      1.0000 0.86388  0.95240  0.12321  Biso   1.000  O
  O47      1.0000 0.87476  0.92580  0.17106  Biso   1.000  O
  O48      1.0000 0.43154  0.37130  0.12991  Biso   1.000  O
  Zn11     1.0000 0.42656  0.44594  0.18204  Biso   1.000  Zn
  Zn12     1.0000 0.41041  0.45156  0.10123  Biso   1.000  Zn
  C377     1.0000 0.04863  0.01460  0.75430  Biso   1.000  C
  H241     1.0000 0.03230  0.99010  0.76270  Biso   1.000  H
  C378     1.0000 0.06777  0.05570  0.70985  Biso   1.000  C
  C379     1.0000 0.09303  0.08760  0.75968  Biso   1.000  C
  H242     1.0000 0.11090  0.11190  0.77160  Biso   1.000  H
  C380     1.0000 0.06600  0.05070  0.67579  Biso   1.000  C
  C381     1.0000 0.03400  0.03270  0.62558  Biso   1.000  C
  H243     1.0000 0.01230  0.02260  0.61230  Biso   1.000  H
  C382     1.0000 0.00970  0.83670  0.47240  Biso   1.000  C
  H244     1.0000 0.01840  0.85660  0.49070  Biso   1.000  H
  C383     1.0000 0.67411  0.51730  0.45520  Biso   1.000  C
  C384     1.0000 0.92914  0.35810  0.43318  Biso   1.000  C
  H245     1.0000 0.91810  0.32320  0.42330  Biso   1.000  H
  C385     1.0000 0.95525  0.68990  0.44440  Biso   1.000  C
  C386     1.0000 0.92340  0.46690  0.44650  Biso   1.000  C
  C387     1.0000 0.06524  0.04400  0.61530  Biso   1.000  C
  C388     1.0000 0.02732  0.18940  0.45404  Biso   1.000  C
  C389     1.0000 0.01475  0.85930  0.44640  Biso   1.000  C
  C390     1.0000 0.04199  0.00360  0.56215  Biso   1.000  C
  H246     1.0000 0.02600  0.97920  0.57090  Biso   1.000  H
  C391     1.0000 0.93510  0.67890  0.46571  Biso   1.000  C
  H247     1.0000 0.93260  0.70970  0.47970  Biso   1.000  H
  C392     1.0000 0.04810  0.13260  0.45920  Biso   1.000  C
  C393     1.0000 0.98961  0.18670  0.44855  Biso   1.000  C
  H248     1.0000 0.97750  0.14890  0.44620  Biso   1.000  H
  C394     1.0000 0.92057  0.57920  0.44640  Biso   1.000  C
  C395     1.0000 0.00156  0.83350  0.41800  Biso   1.000  C
  H249     1.0000 0.00450  0.85210  0.39990  Biso   1.000  H
  C396     1.0000 0.96997  0.24120  0.44663  Biso   1.000  C
  H250     1.0000 0.94440  0.23820  0.44380  Biso   1.000  H
  C397     1.0000 0.96655  0.35610  0.45030  Biso   1.000  C
  C398     1.0000 0.04226  0.99780  0.53209  Biso   1.000  C
  H251     1.0000 0.02730  0.96890  0.52040  Biso   1.000  H
  C399     1.0000 0.06415  0.04340  0.57961  Biso   1.000  C
  C400     1.0000 0.98498  0.29940  0.44855  Biso   1.000  C
  C401     1.0000 0.95870  0.46270  0.46210  Biso   1.000  C
  H252     1.0000 0.96910  0.49750  0.47250  Biso   1.000  H
  C402     1.0000 0.72500  0.55180  0.42960  Biso   1.000  C
  H253     1.0000 0.73330  0.57190  0.41370  Biso   1.000  H
  C403     1.0000 0.10020  0.06040  0.66338  Biso   1.000  C
  H254     1.0000 0.12290  0.06810  0.67570  Biso   1.000  H
  C404     1.0000 0.99027  0.78030  0.47129  Biso   1.000  C
  H255     1.0000 0.98650  0.76140  0.48920  Biso   1.000  H
  C405     1.0000 0.95939  0.64230  0.42364  Biso   1.000  C
  H256     1.0000 0.97450  0.64890  0.40940  Biso   1.000  H
  C406     1.0000 0.98243  0.77380  0.41938  Biso   1.000  C
  H257     1.0000 0.97450  0.75140  0.40160  Biso   1.000  H
  C407     1.0000 0.97710  0.75390  0.44394  Biso   1.000  C
  C408     1.0000 0.02507  0.30200  0.45423  Biso   1.000  C
  H258     1.0000 0.03720  0.33990  0.45610  Biso   1.000  H
  C409     1.0000 0.04625  0.00890  0.72304  Biso   1.000  C
  H259     1.0000 0.03240  0.97850  0.71150  Biso   1.000  H
  C410     1.0000 0.68632  0.54880  0.42960  Biso   1.000  C
  H260     1.0000 0.66930  0.56630  0.41390  Biso   1.000  H
  C411     1.0000 0.91050  0.41390  0.43207  Biso   1.000  C
  H261     1.0000 0.88690  0.41520  0.42040  Biso   1.000  H
  C412     1.0000 0.84975  0.47390  0.46190  Biso   1.000  C
  H262     1.0000 0.86430  0.44060  0.46990  Biso   1.000  H
  C413     1.0000 0.97930  0.41140  0.46340  Biso   1.000  C
  H263     1.0000 0.00360  0.41320  0.47380  Biso   1.000  H
  C414     1.0000 0.04480  0.24790  0.45673  Biso   1.000  C
  H264     1.0000 0.07050  0.24970  0.46030  Biso   1.000  H
  C415     1.0000 0.84193  0.56890  0.43540  Biso   1.000  C
  H265     1.0000 0.85170  0.60230  0.42650  Biso   1.000  H
  C416     1.0000 0.09609  0.05710  0.63376  Biso   1.000  C
  H266     1.0000 0.11680  0.06480  0.62510  Biso   1.000  H
  C417     1.0000 0.03956  0.92040  0.44680  Biso   1.000  C
  C418     1.0000 0.63270  0.51770  0.45240  Biso   1.000  C
  C419     1.0000 0.78951  0.52380  0.45165  Biso   1.000  C
  C420     1.0000 0.91788  0.62330  0.46758  Biso   1.000  C
  H267     1.0000 0.90460  0.61580  0.48310  Biso   1.000  H
  C421     1.0000 0.86540  0.52170  0.44690  Biso   1.000  C
  C422     1.0000 0.81049  0.47610  0.46510  Biso   1.000  C
  H268     1.0000 0.80040  0.44590  0.47600  Biso   1.000  H
  C423     1.0000 0.94213  0.58770  0.42390  Biso   1.000  C
  H269     1.0000 0.94440  0.55700  0.40990  Biso   1.000  H
  C424     1.0000 0.80607  0.56960  0.43640  Biso   1.000  C
  H270     1.0000 0.79150  0.60140  0.42670  Biso   1.000  H
  C425     1.0000 0.69840  0.49320  0.47660  Biso   1.000  C
  H271     1.0000 0.69060  0.47340  0.49280  Biso   1.000  H
  C426     1.0000 0.03511  0.03650  0.65680  Biso   1.000  C
  H272     1.0000 0.01370  0.02890  0.66450  Biso   1.000  H
  C427     1.0000 0.75088  0.52530  0.45290  Biso   1.000  C
  C428     1.0000 0.73600  0.49640  0.47590  Biso   1.000  C
  H273     1.0000 0.75220  0.47810  0.49180  Biso   1.000  H
  C429     1.0000 0.08996  0.09070  0.72950  Biso   1.000  C
  H274     1.0000 0.10450  0.11950  0.72170  Biso   1.000  H
  C430     1.0000 0.08646  0.08140  0.56706  Biso   1.000  C
  H275     1.0000 0.10130  0.11070  0.57860  Biso   1.000  H
  C431     1.0000 0.08600  0.07460  0.53710  Biso   1.000  C
  H276     1.0000 0.10180  0.09970  0.52840  Biso   1.000  H
  N17      1.0000 0.07122  0.05040  0.77416  Biso   1.000  N
  N18      1.0000 0.90380  0.52350  0.44735  Biso   1.000  N
  N19      1.0000 0.06552  0.03630  0.51910  Biso   1.000  N
  O49      1.0000 0.03282  0.08100  0.45376  Biso   1.000  O
  O50      1.0000 0.05148  0.94140  0.47175  Biso   1.000  O
  O51      1.0000 0.08329  0.13495  0.47082  Biso   1.000  O
  O52      1.0000 0.61026  0.52070  0.42992  Biso   1.000  O
  O53      1.0000 0.04375  0.93650  0.42057  Biso   1.000  O
  O54      1.0000 0.62544  0.51170  0.48039  Biso   1.000  O
  Zn13     1.0000 0.07097  0.02452  0.47374  Biso   1.000  Zn
  C432     1.0000 0.68740  0.56940  0.85240  Biso   1.000  C
  C433     1.0000 0.69700  0.58260  0.82580  Biso   1.000  C
  H277     1.0000 0.67910  0.58950  0.80860  Biso   1.000  H
  C434     1.0000 0.02680  0.85750  0.82227  Biso   1.000  C
  H278     1.0000 0.03500  0.87330  0.80530  Biso   1.000  H
  C435     1.0000 0.03353  0.89090  0.84930  Biso   1.000  C
  C436     1.0000 0.00870  0.80250  0.81970  Biso   1.000  C
  H279     1.0000 0.00590  0.78040  0.80160  Biso   1.000  H
  C437     1.0000 0.00130  0.81150  0.87180  Biso   1.000  C
  H280     1.0000 0.99360  0.79610  0.88910  Biso   1.000  H
  C438     1.0000 0.74880  0.56200  0.87730  Biso   1.000  C
  H281     1.0000 0.76540  0.55920  0.89570  Biso   1.000  H
  C439     1.0000 0.02080  0.86990  0.87308  Biso   1.000  C
  H282     1.0000 0.02430  0.89280  0.89100  Biso   1.000  H
  C440     1.0000 0.71130  0.56050  0.87630  Biso   1.000  C
  H283     1.0000 0.70290  0.55230  0.89430  Biso   1.000  H
  C441     1.0000 0.73490  0.58590  0.82410  Biso   1.000  C
  H284     1.0000 0.74230  0.60010  0.80650  Biso   1.000  H
  C442     1.0000 0.99424  0.77880  0.84472  Biso   1.000  C
  C443     1.0000 0.76130  0.56800  0.84910  Biso   1.000  C
  C444     1.0000 0.97471  0.72130  0.84348  Biso   1.000  C
  C445     1.0000 0.86050  0.51760  0.86130  Biso   1.000  C
  H285     1.0000 0.87500  0.48760  0.87260  Biso   1.000  H
  C446     1.0000 0.96770  0.38150  0.84020  Biso   1.000  C
  C447     1.0000 0.98970  0.32030  0.84120  Biso   1.000  C
  C448     1.0000 0.92630  0.65860  0.85572  Biso   1.000  C
  H286     1.0000 0.90710  0.65350  0.86650  Biso   1.000  H
  C449     1.0000 0.02370  0.20620  0.84460  Biso   1.000  C
  C450     1.0000 0.04770  0.14470  0.84420  Biso   1.000  C
  C451     1.0000 0.80110  0.56350  0.84690  Biso   1.000  C
  C452     1.0000 0.99240  0.21430  0.82563  Biso   1.000  C
  H287     1.0000 0.98330  0.18290  0.81220  Biso   1.000  H
  C453     1.0000 0.02323  0.31030  0.86180  Biso   1.000  C
  H288     1.0000 0.03390  0.34260  0.87410  Biso   1.000  H
  C454     1.0000 0.97200  0.27120  0.82520  Biso   1.000  C
  H289     1.0000 0.94790  0.27460  0.81460  Biso   1.000  H
  C455     1.0000 0.98230  0.67110  0.82430  Biso   1.000  C
  H290     1.0000 0.00070  0.67550  0.81260  Biso   1.000  H
  C456     1.0000 0.93270  0.38960  0.82360  Biso   1.000  C
  H291     1.0000 0.92140  0.35770  0.81150  Biso   1.000  H
  C457     1.0000 0.04070  0.25180  0.86390  Biso   1.000  C
  H292     1.0000 0.06250  0.24440  0.87760  Biso   1.000  H
  C458     1.0000 0.93210  0.49700  0.83870  Biso   1.000  C
  C459     1.0000 0.93420  0.61070  0.83860  Biso   1.000  C
  C460     1.0000 0.87570  0.55670  0.84100  Biso   1.000  C
  C461     1.0000 0.96600  0.49210  0.85530  Biso   1.000  C
  H293     1.0000 0.97720  0.52490  0.86680  Biso   1.000  H
  C462     1.0000 0.91490  0.44380  0.82490  Biso   1.000  C
  H294     1.0000 0.89000  0.44590  0.81630  Biso   1.000  H
  C463     1.0000 0.81390  0.60660  0.82610  Biso   1.000  C
  H295     1.0000 0.79870  0.63680  0.81570  Biso   1.000  H
  C464     1.0000 0.94380  0.71240  0.85829  Biso   1.000  C
  H296     1.0000 0.93600  0.74410  0.86970  Biso   1.000  H
  C465     1.0000 0.96280  0.61730  0.82300  Biso   1.000  C
  H297     1.0000 0.96900  0.58460  0.81140  Biso   1.000  H
  C466     1.0000 0.98470  0.43220  0.85460  Biso   1.000  C
  H298     1.0000 0.00920  0.42880  0.86440  Biso   1.000  H
  C467     1.0000 0.85260  0.59920  0.82280  Biso   1.000  C
  H299     1.0000 0.86200  0.62280  0.80860  Biso   1.000  H
  C468     1.0000 0.05078  0.95680  0.84940  Biso   1.000  C
  C469     1.0000 0.82570  0.52470  0.86380  Biso   1.000  C
  H300     1.0000 0.81710  0.50110  0.87850  Biso   1.000  H
  C470     1.0000 0.64590  0.56330  0.85490  Biso   1.000  C
  N20      1.0000 0.91354  0.55440  0.83868  Biso   1.000  N
  O55      1.0000 0.05836  0.97320  0.82255  Biso   1.000  O
  O56      1.0000 0.05751  0.98310  0.87342  Biso   1.000  O
  O57      1.0000 0.03602  0.11450  0.82250  Biso   1.000  O
  O58      1.0000 0.63612  0.54760  0.87679  Biso   1.000  O
  O59      1.0000 0.62524  0.57420  0.82894  Biso   1.000  O
  O60      1.0000 0.06846  0.12870  0.87009  Biso   1.000  O
  Zn14     1.0000 0.07344  0.05406  0.81796  Biso   1.000  Zn
  Zn15     1.0000 0.08959  0.04844  0.89877  Biso   1.000  Zn
  C471     1.0000 0.54863  0.51460  0.75430  Biso   1.000  C
  H301     1.0000 0.53230  0.49010  0.76270  Biso   1.000  H
  C472     1.0000 0.56777  0.55570  0.70985  Biso   1.000  C
  C473     1.0000 0.59303  0.58760  0.75968  Biso   1.000  C
  H302     1.0000 0.61090  0.61190  0.77160  Biso   1.000  H
  C474     1.0000 0.56600  0.55070  0.67579  Biso   1.000  C
  C475     1.0000 0.53400  0.53270  0.62558  Biso   1.000  C
  H303     1.0000 0.51230  0.52260  0.61230  Biso   1.000  H
  C476     1.0000 0.50970  0.33670  0.47240  Biso   1.000  C
  H304     1.0000 0.51840  0.35660  0.49070  Biso   1.000  H
  C477     1.0000 0.17411  0.01730  0.45520  Biso   1.000  C
  C478     1.0000 0.42914  0.85810  0.43318  Biso   1.000  C
  H305     1.0000 0.41810  0.82320  0.42330  Biso   1.000  H
  C479     1.0000 0.45525  0.18990  0.44440  Biso   1.000  C
  C480     1.0000 0.42340  0.96690  0.44650  Biso   1.000  C
  C481     1.0000 0.56524  0.54400  0.61530  Biso   1.000  C
  C482     1.0000 0.52732  0.68940  0.45404  Biso   1.000  C
  C483     1.0000 0.51475  0.35930  0.44640  Biso   1.000  C
  C484     1.0000 0.54199  0.50360  0.56215  Biso   1.000  C
  H306     1.0000 0.52600  0.47920  0.57090  Biso   1.000  H
  C485     1.0000 0.43510  0.17890  0.46571  Biso   1.000  C
  H307     1.0000 0.43260  0.20970  0.47970  Biso   1.000  H
  C486     1.0000 0.54810  0.63260  0.45920  Biso   1.000  C
  C487     1.0000 0.48961  0.68670  0.44855  Biso   1.000  C
  H308     1.0000 0.47750  0.64890  0.44620  Biso   1.000  H
  C488     1.0000 0.42057  0.07920  0.44640  Biso   1.000  C
  C489     1.0000 0.50156  0.33350  0.41800  Biso   1.000  C
  H309     1.0000 0.50450  0.35210  0.39990  Biso   1.000  H
  C490     1.0000 0.46997  0.74120  0.44663  Biso   1.000  C
  H310     1.0000 0.44440  0.73820  0.44380  Biso   1.000  H
  C491     1.0000 0.46655  0.85610  0.45030  Biso   1.000  C
  C492     1.0000 0.54226  0.49780  0.53209  Biso   1.000  C
  H311     1.0000 0.52730  0.46890  0.52040  Biso   1.000  H
  C493     1.0000 0.56415  0.54340  0.57961  Biso   1.000  C
  C494     1.0000 0.48498  0.79940  0.44855  Biso   1.000  C
  C495     1.0000 0.45870  0.96270  0.46210  Biso   1.000  C
  H312     1.0000 0.46910  0.99750  0.47250  Biso   1.000  H
  C496     1.0000 0.22500  0.05180  0.42960  Biso   1.000  C
  H313     1.0000 0.23330  0.07190  0.41370  Biso   1.000  H
  C497     1.0000 0.60020  0.56040  0.66338  Biso   1.000  C
  H314     1.0000 0.62290  0.56810  0.67570  Biso   1.000  H
  C498     1.0000 0.49027  0.28030  0.47129  Biso   1.000  C
  H315     1.0000 0.48650  0.26140  0.48920  Biso   1.000  H
  C499     1.0000 0.45939  0.14230  0.42364  Biso   1.000  C
  H316     1.0000 0.47450  0.14890  0.40940  Biso   1.000  H
  C500     1.0000 0.48243  0.27380  0.41938  Biso   1.000  C
  H317     1.0000 0.47450  0.25140  0.40160  Biso   1.000  H
  C501     1.0000 0.47710  0.25390  0.44394  Biso   1.000  C
  C502     1.0000 0.52507  0.80200  0.45423  Biso   1.000  C
  H318     1.0000 0.53720  0.83990  0.45610  Biso   1.000  H
  C503     1.0000 0.54625  0.50890  0.72304  Biso   1.000  C
  H319     1.0000 0.53240  0.47850  0.71150  Biso   1.000  H
  C504     1.0000 0.18632  0.04880  0.42960  Biso   1.000  C
  H320     1.0000 0.16930  0.06630  0.41390  Biso   1.000  H
  C505     1.0000 0.41050  0.91390  0.43207  Biso   1.000  C
  H321     1.0000 0.38690  0.91520  0.42040  Biso   1.000  H
  C506     1.0000 0.34975  0.97390  0.46190  Biso   1.000  C
  H322     1.0000 0.36430  0.94060  0.46990  Biso   1.000  H
  C507     1.0000 0.47930  0.91140  0.46340  Biso   1.000  C
  H323     1.0000 0.50360  0.91320  0.47380  Biso   1.000  H
  C508     1.0000 0.54480  0.74790  0.45673  Biso   1.000  C
  H324     1.0000 0.57050  0.74970  0.46030  Biso   1.000  H
  C509     1.0000 0.34193  0.06890  0.43540  Biso   1.000  C
  H325     1.0000 0.35170  0.10230  0.42650  Biso   1.000  H
  C510     1.0000 0.59609  0.55710  0.63376  Biso   1.000  C
  H326     1.0000 0.61680  0.56480  0.62510  Biso   1.000  H
  C511     1.0000 0.53956  0.42040  0.44680  Biso   1.000  C
  C512     1.0000 0.13270  0.01770  0.45240  Biso   1.000  C
  C513     1.0000 0.28951  0.02380  0.45165  Biso   1.000  C
  C514     1.0000 0.41788  0.12330  0.46758  Biso   1.000  C
  H327     1.0000 0.40460  0.11580  0.48310  Biso   1.000  H
  C515     1.0000 0.36540  0.02170  0.44690  Biso   1.000  C
  C516     1.0000 0.31049  0.97610  0.46510  Biso   1.000  C
  H328     1.0000 0.30040  0.94590  0.47600  Biso   1.000  H
  C517     1.0000 0.44213  0.08770  0.42390  Biso   1.000  C
  H329     1.0000 0.44440  0.05700  0.40990  Biso   1.000  H
  C518     1.0000 0.30607  0.06960  0.43640  Biso   1.000  C
  H330     1.0000 0.29150  0.10140  0.42670  Biso   1.000  H
  C519     1.0000 0.19840  0.99320  0.47660  Biso   1.000  C
  H331     1.0000 0.19060  0.97340  0.49280  Biso   1.000  H
  C520     1.0000 0.53511  0.53650  0.65680  Biso   1.000  C
  H332     1.0000 0.51370  0.52890  0.66450  Biso   1.000  H
  C521     1.0000 0.25088  0.02530  0.45290  Biso   1.000  C
  C522     1.0000 0.23600  0.99640  0.47590  Biso   1.000  C
  H333     1.0000 0.25220  0.97810  0.49180  Biso   1.000  H
  C523     1.0000 0.58996  0.59070  0.72950  Biso   1.000  C
  H334     1.0000 0.60450  0.61950  0.72170  Biso   1.000  H
  C524     1.0000 0.58646  0.58140  0.56706  Biso   1.000  C
  H335     1.0000 0.60130  0.61070  0.57860  Biso   1.000  H
  C525     1.0000 0.58600  0.57460  0.53710  Biso   1.000  C
  H336     1.0000 0.60180  0.59970  0.52840  Biso   1.000  H
  N21      1.0000 0.57122  0.55040  0.77416  Biso   1.000  N
  N22      1.0000 0.40380  0.02350  0.44735  Biso   1.000  N
  N23      1.0000 0.56552  0.53630  0.51910  Biso   1.000  N
  O61      1.0000 0.53282  0.58100  0.45376  Biso   1.000  O
  O62      1.0000 0.55148  0.44140  0.47175  Biso   1.000  O
  O63      1.0000 0.58329  0.63495  0.47082  Biso   1.000  O
  O64      1.0000 0.11026  0.02070  0.42992  Biso   1.000  O
  O65      1.0000 0.54375  0.43650  0.42057  Biso   1.000  O
  O66      1.0000 0.12544  0.01170  0.48039  Biso   1.000  O
  Zn16     1.0000 0.57097  0.52452  0.47374  Biso   1.000  Zn
  C526     1.0000 0.18740  0.06940  0.85240  Biso   1.000  C
  C527     1.0000 0.19700  0.08260  0.82580  Biso   1.000  C
  H337     1.0000 0.17910  0.08950  0.80860  Biso   1.000  H
  C528     1.0000 0.52680  0.35750  0.82227  Biso   1.000  C
  H338     1.0000 0.53500  0.37330  0.80530  Biso   1.000  H
  C529     1.0000 0.53353  0.39090  0.84930  Biso   1.000  C
  C530     1.0000 0.50870  0.30250  0.81970  Biso   1.000  C
  H339     1.0000 0.50590  0.28040  0.80160  Biso   1.000  H
  C531     1.0000 0.50130  0.31150  0.87180  Biso   1.000  C
  H340     1.0000 0.49360  0.29610  0.88910  Biso   1.000  H
  C532     1.0000 0.24880  0.06200  0.87730  Biso   1.000  C
  H341     1.0000 0.26540  0.05920  0.89570  Biso   1.000  H
  C533     1.0000 0.52080  0.36990  0.87308  Biso   1.000  C
  H342     1.0000 0.52430  0.39280  0.89100  Biso   1.000  H
  C534     1.0000 0.21130  0.06050  0.87630  Biso   1.000  C
  H343     1.0000 0.20290  0.05230  0.89430  Biso   1.000  H
  C535     1.0000 0.23490  0.08590  0.82410  Biso   1.000  C
  H344     1.0000 0.24230  0.10010  0.80650  Biso   1.000  H
  C536     1.0000 0.49424  0.27880  0.84472  Biso   1.000  C
  C537     1.0000 0.26130  0.06800  0.84910  Biso   1.000  C
  C538     1.0000 0.47471  0.22130  0.84348  Biso   1.000  C
  C539     1.0000 0.36050  0.01760  0.86130  Biso   1.000  C
  H345     1.0000 0.37500  0.98760  0.87260  Biso   1.000  H
  C540     1.0000 0.46770  0.88150  0.84020  Biso   1.000  C
  C541     1.0000 0.48970  0.82030  0.84120  Biso   1.000  C
  C542     1.0000 0.42630  0.15860  0.85572  Biso   1.000  C
  H346     1.0000 0.40710  0.15350  0.86650  Biso   1.000  H
  C543     1.0000 0.52370  0.70620  0.84460  Biso   1.000  C
  C544     1.0000 0.54770  0.64470  0.84420  Biso   1.000  C
  C545     1.0000 0.30110  0.06350  0.84690  Biso   1.000  C
  C546     1.0000 0.49240  0.71430  0.82563  Biso   1.000  C
  H347     1.0000 0.48330  0.68290  0.81220  Biso   1.000  H
  C547     1.0000 0.52323  0.81030  0.86180  Biso   1.000  C
  H348     1.0000 0.53390  0.84260  0.87410  Biso   1.000  H
  C548     1.0000 0.47200  0.77120  0.82520  Biso   1.000  C
  H349     1.0000 0.44790  0.77460  0.81460  Biso   1.000  H
  C549     1.0000 0.48230  0.17110  0.82430  Biso   1.000  C
  H350     1.0000 0.50070  0.17550  0.81260  Biso   1.000  H
  C550     1.0000 0.43270  0.88960  0.82360  Biso   1.000  C
  H351     1.0000 0.42140  0.85770  0.81150  Biso   1.000  H
  C551     1.0000 0.54070  0.75180  0.86390  Biso   1.000  C
  H352     1.0000 0.56250  0.74440  0.87760  Biso   1.000  H
  C552     1.0000 0.43210  0.99700  0.83870  Biso   1.000  C
  C553     1.0000 0.43420  0.11070  0.83860  Biso   1.000  C
  C554     1.0000 0.37570  0.05670  0.84100  Biso   1.000  C
  C555     1.0000 0.46600  0.99210  0.85530  Biso   1.000  C
  H353     1.0000 0.47720  0.02490  0.86680  Biso   1.000  H
  C556     1.0000 0.41490  0.94380  0.82490  Biso   1.000  C
  H354     1.0000 0.39000  0.94590  0.81630  Biso   1.000  H
  C557     1.0000 0.31390  0.10660  0.82610  Biso   1.000  C
  H355     1.0000 0.29870  0.13680  0.81570  Biso   1.000  H
  C558     1.0000 0.44380  0.21240  0.85829  Biso   1.000  C
  H356     1.0000 0.43600  0.24410  0.86970  Biso   1.000  H
  C559     1.0000 0.46280  0.11730  0.82300  Biso   1.000  C
  H357     1.0000 0.46900  0.08460  0.81140  Biso   1.000  H
  C560     1.0000 0.48470  0.93220  0.85460  Biso   1.000  C
  H358     1.0000 0.50920  0.92880  0.86440  Biso   1.000  H
  C561     1.0000 0.35260  0.09920  0.82280  Biso   1.000  C
  H359     1.0000 0.36200  0.12280  0.80860  Biso   1.000  H
  C562     1.0000 0.55078  0.45680  0.84940  Biso   1.000  C
  C563     1.0000 0.32570  0.02470  0.86380  Biso   1.000  C
  H360     1.0000 0.31710  0.00110  0.87850  Biso   1.000  H
  C564     1.0000 0.14590  0.06330  0.85490  Biso   1.000  C
  N24      1.0000 0.41354  0.05440  0.83868  Biso   1.000  N
  O67      1.0000 0.55836  0.47320  0.82255  Biso   1.000  O
  O68      1.0000 0.55751  0.48310  0.87342  Biso   1.000  O
  O69      1.0000 0.53602  0.61450  0.82250  Biso   1.000  O
  O70      1.0000 0.13612  0.04760  0.87679  Biso   1.000  O
  O71      1.0000 0.12524  0.07420  0.82894  Biso   1.000  O
  O72      1.0000 0.56846  0.62870  0.87009  Biso   1.000  O
  Zn17     1.0000 0.57344  0.55406  0.81796  Biso   1.000  Zn
  Zn18     1.0000 0.58959  0.54844  0.89877  Biso   1.000  Zn
  C565     1.0000 0.04863  0.98540  0.25430  Biso   1.000  C
  H361     1.0000 0.03230  0.00990  0.26270  Biso   1.000  H
  C566     1.0000 0.06777  0.94430  0.20985  Biso   1.000  C
  C567     1.0000 0.09303  0.91240  0.25968  Biso   1.000  C
  H362     1.0000 0.11090  0.88810  0.27160  Biso   1.000  H
  C568     1.0000 0.06600  0.94930  0.17579  Biso   1.000  C
  C569     1.0000 0.03400  0.96730  0.12558  Biso   1.000  C
  H363     1.0000 0.01230  0.97740  0.11230  Biso   1.000  H
  C570     1.0000 0.00970  0.16330  0.97240  Biso   1.000  C
  H364     1.0000 0.01840  0.14340  0.99070  Biso   1.000  H
  C571     1.0000 0.67411  0.48270  0.95520  Biso   1.000  C
  C572     1.0000 0.92914  0.64190  0.93318  Biso   1.000  C
  H365     1.0000 0.91810  0.67680  0.92330  Biso   1.000  H
  C573     1.0000 0.95525  0.31010  0.94440  Biso   1.000  C
  C574     1.0000 0.92340  0.53310  0.94650  Biso   1.000  C
  C575     1.0000 0.06524  0.95600  0.11530  Biso   1.000  C
  C576     1.0000 0.02732  0.81060  0.95404  Biso   1.000  C
  C577     1.0000 0.01475  0.14070  0.94640  Biso   1.000  C
  C578     1.0000 0.04199  0.99640  0.06215  Biso   1.000  C
  H366     1.0000 0.02600  0.02080  0.07090  Biso   1.000  H
  C579     1.0000 0.93510  0.32110  0.96571  Biso   1.000  C
  H367     1.0000 0.93260  0.29030  0.97970  Biso   1.000  H
  C580     1.0000 0.04810  0.86740  0.95920  Biso   1.000  C
  C581     1.0000 0.98961  0.81330  0.94855  Biso   1.000  C
  H368     1.0000 0.97750  0.85110  0.94620  Biso   1.000  H
  C582     1.0000 0.92057  0.42080  0.94640  Biso   1.000  C
  C583     1.0000 0.00156  0.16650  0.91800  Biso   1.000  C
  H369     1.0000 0.00450  0.14790  0.89990  Biso   1.000  H
  C584     1.0000 0.96997  0.75880  0.94663  Biso   1.000  C
  H370     1.0000 0.94440  0.76180  0.94380  Biso   1.000  H
  C585     1.0000 0.96655  0.64390  0.95030  Biso   1.000  C
  C586     1.0000 0.04226  0.00220  0.03209  Biso   1.000  C
  H371     1.0000 0.02730  0.03110  0.02040  Biso   1.000  H
  C587     1.0000 0.06415  0.95660  0.07961  Biso   1.000  C
  C588     1.0000 0.98498  0.70060  0.94855  Biso   1.000  C
  C589     1.0000 0.95870  0.53730  0.96210  Biso   1.000  C
  H372     1.0000 0.96910  0.50250  0.97250  Biso   1.000  H
  C590     1.0000 0.72500  0.44820  0.92960  Biso   1.000  C
  H373     1.0000 0.73330  0.42810  0.91370  Biso   1.000  H
  C591     1.0000 0.10020  0.93960  0.16338  Biso   1.000  C
  H374     1.0000 0.12290  0.93190  0.17570  Biso   1.000  H
  C592     1.0000 0.99027  0.21970  0.97129  Biso   1.000  C
  H375     1.0000 0.98650  0.23860  0.98920  Biso   1.000  H
  C593     1.0000 0.95939  0.35770  0.92364  Biso   1.000  C
  H376     1.0000 0.97450  0.35110  0.90940  Biso   1.000  H
  C594     1.0000 0.98243  0.22620  0.91938  Biso   1.000  C
  H377     1.0000 0.97450  0.24860  0.90160  Biso   1.000  H
  C595     1.0000 0.97710  0.24610  0.94394  Biso   1.000  C
  C596     1.0000 0.02507  0.69800  0.95423  Biso   1.000  C
  H378     1.0000 0.03720  0.66010  0.95610  Biso   1.000  H
  C597     1.0000 0.04625  0.99110  0.22304  Biso   1.000  C
  H379     1.0000 0.03240  0.02150  0.21150  Biso   1.000  H
  C598     1.0000 0.68632  0.45120  0.92960  Biso   1.000  C
  H380     1.0000 0.66930  0.43370  0.91390  Biso   1.000  H
  C599     1.0000 0.91050  0.58610  0.93207  Biso   1.000  C
  H381     1.0000 0.88690  0.58480  0.92040  Biso   1.000  H
  C600     1.0000 0.84975  0.52610  0.96190  Biso   1.000  C
  H382     1.0000 0.86430  0.55940  0.96990  Biso   1.000  H
  C601     1.0000 0.97930  0.58860  0.96340  Biso   1.000  C
  H383     1.0000 0.00360  0.58680  0.97380  Biso   1.000  H
  C602     1.0000 0.04480  0.75210  0.95673  Biso   1.000  C
  H384     1.0000 0.07050  0.75030  0.96030  Biso   1.000  H
  C603     1.0000 0.84193  0.43110  0.93540  Biso   1.000  C
  H385     1.0000 0.85170  0.39770  0.92650  Biso   1.000  H
  C604     1.0000 0.09609  0.94290  0.13376  Biso   1.000  C
  H386     1.0000 0.11680  0.93520  0.12510  Biso   1.000  H
  C605     1.0000 0.03956  0.07960  0.94680  Biso   1.000  C
  C606     1.0000 0.63270  0.48230  0.95240  Biso   1.000  C
  C607     1.0000 0.78951  0.47620  0.95165  Biso   1.000  C
  C608     1.0000 0.91788  0.37670  0.96758  Biso   1.000  C
  H387     1.0000 0.90460  0.38420  0.98310  Biso   1.000  H
  C609     1.0000 0.86540  0.47830  0.94690  Biso   1.000  C
  C610     1.0000 0.81049  0.52390  0.96510  Biso   1.000  C
  H388     1.0000 0.80040  0.55410  0.97600  Biso   1.000  H
  C611     1.0000 0.94213  0.41230  0.92390  Biso   1.000  C
  H389     1.0000 0.94440  0.44300  0.90990  Biso   1.000  H
  C612     1.0000 0.80607  0.43040  0.93640  Biso   1.000  C
  H390     1.0000 0.79150  0.39860  0.92670  Biso   1.000  H
  C613     1.0000 0.69840  0.50680  0.97660  Biso   1.000  C
  H391     1.0000 0.69060  0.52660  0.99280  Biso   1.000  H
  C614     1.0000 0.03511  0.96350  0.15680  Biso   1.000  C
  H392     1.0000 0.01370  0.97110  0.16450  Biso   1.000  H
  C615     1.0000 0.75088  0.47470  0.95290  Biso   1.000  C
  C616     1.0000 0.73600  0.50360  0.97590  Biso   1.000  C
  H393     1.0000 0.75220  0.52190  0.99180  Biso   1.000  H
  C617     1.0000 0.08996  0.90930  0.22950  Biso   1.000  C
  H394     1.0000 0.10450  0.88050  0.22170  Biso   1.000  H
  C618     1.0000 0.08646  0.91860  0.06706  Biso   1.000  C
  H395     1.0000 0.10130  0.88930  0.07860  Biso   1.000  H
  C619     1.0000 0.08600  0.92540  0.03710  Biso   1.000  C
  H396     1.0000 0.10180  0.90030  0.02840  Biso   1.000  H
  N25      1.0000 0.07122  0.94960  0.27416  Biso   1.000  N
  N26      1.0000 0.90380  0.47650  0.94735  Biso   1.000  N
  N27      1.0000 0.06552  0.96370  0.01910  Biso   1.000  N
  O73      1.0000 0.03282  0.91900  0.95376  Biso   1.000  O
  O74      1.0000 0.05148  0.05860  0.97175  Biso   1.000  O
  O75      1.0000 0.08329  0.86505  0.97082  Biso   1.000  O
  O76      1.0000 0.61026  0.47930  0.92992  Biso   1.000  O
  O77      1.0000 0.04375  0.06350  0.92057  Biso   1.000  O
  O78      1.0000 0.62544  0.48830  0.98039  Biso   1.000  O
  Zn19     1.0000 0.07097  0.97548  0.97374  Biso   1.000  Zn
  C620     1.0000 0.68740  0.43060  0.35240  Biso   1.000  C
  C621     1.0000 0.69700  0.41740  0.32580  Biso   1.000  C
  H397     1.0000 0.67910  0.41050  0.30860  Biso   1.000  H
  C622     1.0000 0.02680  0.14250  0.32227  Biso   1.000  C
  H398     1.0000 0.03500  0.12670  0.30530  Biso   1.000  H
  C623     1.0000 0.03353  0.10910  0.34930  Biso   1.000  C
  C624     1.0000 0.00870  0.19750  0.31970  Biso   1.000  C
  H399     1.0000 0.00590  0.21960  0.30160  Biso   1.000  H
  C625     1.0000 0.00130  0.18850  0.37180  Biso   1.000  C
  H400     1.0000 0.99360  0.20390  0.38910  Biso   1.000  H
  C626     1.0000 0.74880  0.43800  0.37730  Biso   1.000  C
  H401     1.0000 0.76540  0.44080  0.39570  Biso   1.000  H
  C627     1.0000 0.02080  0.13010  0.37308  Biso   1.000  C
  H402     1.0000 0.02430  0.10720  0.39100  Biso   1.000  H
  C628     1.0000 0.71130  0.43950  0.37630  Biso   1.000  C
  H403     1.0000 0.70290  0.44770  0.39430  Biso   1.000  H
  C629     1.0000 0.73490  0.41410  0.32410  Biso   1.000  C
  H404     1.0000 0.74230  0.39990  0.30650  Biso   1.000  H
  C630     1.0000 0.99424  0.22120  0.34472  Biso   1.000  C
  C631     1.0000 0.76130  0.43200  0.34910  Biso   1.000  C
  C632     1.0000 0.97471  0.27870  0.34348  Biso   1.000  C
  C633     1.0000 0.86050  0.48240  0.36130  Biso   1.000  C
  H405     1.0000 0.87500  0.51240  0.37260  Biso   1.000  H
  C634     1.0000 0.96770  0.61850  0.34020  Biso   1.000  C
  C635     1.0000 0.98970  0.67970  0.34120  Biso   1.000  C
  C636     1.0000 0.92630  0.34140  0.35572  Biso   1.000  C
  H406     1.0000 0.90710  0.34650  0.36650  Biso   1.000  H
  C637     1.0000 0.02370  0.79380  0.34460  Biso   1.000  C
  C638     1.0000 0.04770  0.85530  0.34420  Biso   1.000  C
  C639     1.0000 0.80110  0.43650  0.34690  Biso   1.000  C
  C640     1.0000 0.99240  0.78570  0.32563  Biso   1.000  C
  H407     1.0000 0.98330  0.81710  0.31220  Biso   1.000  H
  C641     1.0000 0.02323  0.68970  0.36180  Biso   1.000  C
  H408     1.0000 0.03390  0.65740  0.37410  Biso   1.000  H
  C642     1.0000 0.97200  0.72880  0.32520  Biso   1.000  C
  H409     1.0000 0.94790  0.72540  0.31460  Biso   1.000  H
  C643     1.0000 0.98230  0.32890  0.32430  Biso   1.000  C
  H410     1.0000 0.00070  0.32450  0.31260  Biso   1.000  H
  C644     1.0000 0.93270  0.61040  0.32360  Biso   1.000  C
  H411     1.0000 0.92140  0.64230  0.31150  Biso   1.000  H
  C645     1.0000 0.04070  0.74820  0.36390  Biso   1.000  C
  H412     1.0000 0.06250  0.75560  0.37760  Biso   1.000  H
  C646     1.0000 0.93210  0.50300  0.33870  Biso   1.000  C
  C647     1.0000 0.93420  0.38930  0.33860  Biso   1.000  C
  C648     1.0000 0.87570  0.44330  0.34100  Biso   1.000  C
  C649     1.0000 0.96600  0.50790  0.35530  Biso   1.000  C
  H413     1.0000 0.97720  0.47510  0.36680  Biso   1.000  H
  C650     1.0000 0.91490  0.55620  0.32490  Biso   1.000  C
  H414     1.0000 0.89000  0.55410  0.31630  Biso   1.000  H
  C651     1.0000 0.81390  0.39340  0.32610  Biso   1.000  C
  H415     1.0000 0.79870  0.36320  0.31570  Biso   1.000  H
  C652     1.0000 0.94380  0.28760  0.35829  Biso   1.000  C
  H416     1.0000 0.93600  0.25590  0.36970  Biso   1.000  H
  C653     1.0000 0.96280  0.38270  0.32300  Biso   1.000  C
  H417     1.0000 0.96900  0.41540  0.31140  Biso   1.000  H
  C654     1.0000 0.98470  0.56780  0.35460  Biso   1.000  C
  H418     1.0000 0.00920  0.57120  0.36440  Biso   1.000  H
  C655     1.0000 0.85260  0.40080  0.32280  Biso   1.000  C
  H419     1.0000 0.86200  0.37720  0.30860  Biso   1.000  H
  C656     1.0000 0.05078  0.04320  0.34940  Biso   1.000  C
  C657     1.0000 0.82570  0.47530  0.36380  Biso   1.000  C
  H420     1.0000 0.81710  0.49890  0.37850  Biso   1.000  H
  C658     1.0000 0.64590  0.43670  0.35490  Biso   1.000  C
  N28      1.0000 0.91354  0.44560  0.33868  Biso   1.000  N
  O79      1.0000 0.05836  0.02680  0.32255  Biso   1.000  O
  O80      1.0000 0.05751  0.01690  0.37342  Biso   1.000  O
  O81      1.0000 0.03602  0.88550  0.32250  Biso   1.000  O
  O82      1.0000 0.63612  0.45240  0.37679  Biso   1.000  O
  O83      1.0000 0.62524  0.42580  0.32894  Biso   1.000  O
  O84      1.0000 0.06846  0.87130  0.37009  Biso   1.000  O
  Zn20     1.0000 0.07344  0.94594  0.31796  Biso   1.000  Zn
  Zn21     1.0000 0.08959  0.95156  0.39877  Biso   1.000  Zn
  C659     1.0000 0.54863  0.48540  0.25430  Biso   1.000  C
  H421     1.0000 0.53230  0.50990  0.26270  Biso   1.000  H
  C660     1.0000 0.56777  0.44430  0.20985  Biso   1.000  C
  C661     1.0000 0.59303  0.41240  0.25968  Biso   1.000  C
  H422     1.0000 0.61090  0.38810  0.27160  Biso   1.000  H
  C662     1.0000 0.56600  0.44930  0.17579  Biso   1.000  C
  C663     1.0000 0.53400  0.46730  0.12558  Biso   1.000  C
  H423     1.0000 0.51230  0.47740  0.11230  Biso   1.000  H
  C664     1.0000 0.50970  0.66330  0.97240  Biso   1.000  C
  H424     1.0000 0.51840  0.64340  0.99070  Biso   1.000  H
  C665     1.0000 0.17411  0.98270  0.95520  Biso   1.000  C
  C666     1.0000 0.42914  0.14190  0.93318  Biso   1.000  C
  H425     1.0000 0.41810  0.17680  0.92330  Biso   1.000  H
  C667     1.0000 0.45525  0.81010  0.94440  Biso   1.000  C
  C668     1.0000 0.42340  0.03310  0.94650  Biso   1.000  C
  C669     1.0000 0.56524  0.45600  0.11530  Biso   1.000  C
  C670     1.0000 0.52732  0.31060  0.95404  Biso   1.000  C
  C671     1.0000 0.51475  0.64070  0.94640  Biso   1.000  C
  C672     1.0000 0.54199  0.49640  0.06215  Biso   1.000  C
  H426     1.0000 0.52600  0.52080  0.07090  Biso   1.000  H
  C673     1.0000 0.43510  0.82110  0.96571  Biso   1.000  C
  H427     1.0000 0.43260  0.79030  0.97970  Biso   1.000  H
  C674     1.0000 0.54810  0.36740  0.95920  Biso   1.000  C
  C675     1.0000 0.48961  0.31330  0.94855  Biso   1.000  C
  H428     1.0000 0.47750  0.35110  0.94620  Biso   1.000  H
  C676     1.0000 0.42057  0.92080  0.94640  Biso   1.000  C
  C677     1.0000 0.50156  0.66650  0.91800  Biso   1.000  C
  H429     1.0000 0.50450  0.64790  0.89990  Biso   1.000  H
  C678     1.0000 0.46997  0.25880  0.94663  Biso   1.000  C
  H430     1.0000 0.44440  0.26180  0.94380  Biso   1.000  H
  C679     1.0000 0.46655  0.14390  0.95030  Biso   1.000  C
  C680     1.0000 0.54226  0.50220  0.03209  Biso   1.000  C
  H431     1.0000 0.52730  0.53110  0.02040  Biso   1.000  H
  C681     1.0000 0.56415  0.45660  0.07961  Biso   1.000  C
  C682     1.0000 0.48498  0.20060  0.94855  Biso   1.000  C
  C683     1.0000 0.45870  0.03730  0.96210  Biso   1.000  C
  H432     1.0000 0.46910  0.00250  0.97250  Biso   1.000  H
  C684     1.0000 0.22500  0.94820  0.92960  Biso   1.000  C
  H433     1.0000 0.23330  0.92810  0.91370  Biso   1.000  H
  C685     1.0000 0.60020  0.43960  0.16338  Biso   1.000  C
  H434     1.0000 0.62290  0.43190  0.17570  Biso   1.000  H
  C686     1.0000 0.49027  0.71970  0.97129  Biso   1.000  C
  H435     1.0000 0.48650  0.73860  0.98920  Biso   1.000  H
  C687     1.0000 0.45939  0.85770  0.92364  Biso   1.000  C
  H436     1.0000 0.47450  0.85110  0.90940  Biso   1.000  H
  C688     1.0000 0.48243  0.72620  0.91938  Biso   1.000  C
  H437     1.0000 0.47450  0.74860  0.90160  Biso   1.000  H
  C689     1.0000 0.47710  0.74610  0.94394  Biso   1.000  C
  C690     1.0000 0.52507  0.19800  0.95423  Biso   1.000  C
  H438     1.0000 0.53720  0.16010  0.95610  Biso   1.000  H
  C691     1.0000 0.54625  0.49110  0.22304  Biso   1.000  C
  H439     1.0000 0.53240  0.52150  0.21150  Biso   1.000  H
  C692     1.0000 0.18632  0.95120  0.92960  Biso   1.000  C
  H440     1.0000 0.16930  0.93370  0.91390  Biso   1.000  H
  C693     1.0000 0.41050  0.08610  0.93207  Biso   1.000  C
  H441     1.0000 0.38690  0.08480  0.92040  Biso   1.000  H
  C694     1.0000 0.34975  0.02610  0.96190  Biso   1.000  C
  H442     1.0000 0.36430  0.05940  0.96990  Biso   1.000  H
  C695     1.0000 0.47930  0.08860  0.96340  Biso   1.000  C
  H443     1.0000 0.50360  0.08680  0.97380  Biso   1.000  H
  C696     1.0000 0.54480  0.25210  0.95673  Biso   1.000  C
  H444     1.0000 0.57050  0.25030  0.96030  Biso   1.000  H
  C697     1.0000 0.34193  0.93110  0.93540  Biso   1.000  C
  H445     1.0000 0.35170  0.89770  0.92650  Biso   1.000  H
  C698     1.0000 0.59609  0.44290  0.13376  Biso   1.000  C
  H446     1.0000 0.61680  0.43520  0.12510  Biso   1.000  H
  C699     1.0000 0.53956  0.57960  0.94680  Biso   1.000  C
  C700     1.0000 0.13270  0.98230  0.95240  Biso   1.000  C
  C701     1.0000 0.28951  0.97620  0.95165  Biso   1.000  C
  C702     1.0000 0.41788  0.87670  0.96758  Biso   1.000  C
  H447     1.0000 0.40460  0.88420  0.98310  Biso   1.000  H
  C703     1.0000 0.36540  0.97830  0.94690  Biso   1.000  C
  C704     1.0000 0.31049  0.02390  0.96510  Biso   1.000  C
  H448     1.0000 0.30040  0.05410  0.97600  Biso   1.000  H
  C705     1.0000 0.44213  0.91230  0.92390  Biso   1.000  C
  H449     1.0000 0.44440  0.94300  0.90990  Biso   1.000  H
  C706     1.0000 0.30607  0.93040  0.93640  Biso   1.000  C
  H450     1.0000 0.29150  0.89860  0.92670  Biso   1.000  H
  C707     1.0000 0.19840  0.00680  0.97660  Biso   1.000  C
  H451     1.0000 0.19060  0.02660  0.99280  Biso   1.000  H
  C708     1.0000 0.53511  0.46350  0.15680  Biso   1.000  C
  H452     1.0000 0.51370  0.47110  0.16450  Biso   1.000  H
  C709     1.0000 0.25088  0.97470  0.95290  Biso   1.000  C
  C710     1.0000 0.23600  0.00360  0.97590  Biso   1.000  C
  H453     1.0000 0.25220  0.02190  0.99180  Biso   1.000  H
  C711     1.0000 0.58996  0.40930  0.22950  Biso   1.000  C
  H454     1.0000 0.60450  0.38050  0.22170  Biso   1.000  H
  C712     1.0000 0.58646  0.41860  0.06706  Biso   1.000  C
  H455     1.0000 0.60130  0.38930  0.07860  Biso   1.000  H
  C713     1.0000 0.58600  0.42540  0.03710  Biso   1.000  C
  H456     1.0000 0.60180  0.40030  0.02840  Biso   1.000  H
  N29      1.0000 0.57122  0.44960  0.27416  Biso   1.000  N
  N30      1.0000 0.40380  0.97650  0.94735  Biso   1.000  N
  N31      1.0000 0.56552  0.46370  0.01910  Biso   1.000  N
  O85      1.0000 0.53282  0.41900  0.95376  Biso   1.000  O
  O86      1.0000 0.55148  0.55860  0.97175  Biso   1.000  O
  O87      1.0000 0.58329  0.36505  0.97082  Biso   1.000  O
  O88      1.0000 0.11026  0.97930  0.92992  Biso   1.000  O
  O89      1.0000 0.54375  0.56350  0.92057  Biso   1.000  O
  O90      1.0000 0.12544  0.98830  0.98039  Biso   1.000  O
  Zn22     1.0000 0.57097  0.47548  0.97374  Biso   1.000  Zn
  C714     1.0000 0.18740  0.93060  0.35240  Biso   1.000  C
  C715     1.0000 0.19700  0.91740  0.32580  Biso   1.000  C
  H457     1.0000 0.17910  0.91050  0.30860  Biso   1.000  H
  C716     1.0000 0.52680  0.64250  0.32227  Biso   1.000  C
  H458     1.0000 0.53500  0.62670  0.30530  Biso   1.000  H
  C717     1.0000 0.53353  0.60910  0.34930  Biso   1.000  C
  C718     1.0000 0.50870  0.69750  0.31970  Biso   1.000  C
  H459     1.0000 0.50590  0.71960  0.30160  Biso   1.000  H
  C719     1.0000 0.50130  0.68850  0.37180  Biso   1.000  C
  H460     1.0000 0.49360  0.70390  0.38910  Biso   1.000  H
  C720     1.0000 0.24880  0.93800  0.37730  Biso   1.000  C
  H461     1.0000 0.26540  0.94080  0.39570  Biso   1.000  H
  C721     1.0000 0.52080  0.63010  0.37308  Biso   1.000  C
  H462     1.0000 0.52430  0.60720  0.39100  Biso   1.000  H
  C722     1.0000 0.21130  0.93950  0.37630  Biso   1.000  C
  H463     1.0000 0.20290  0.94770  0.39430  Biso   1.000  H
  C723     1.0000 0.23490  0.91410  0.32410  Biso   1.000  C
  H464     1.0000 0.24230  0.89990  0.30650  Biso   1.000  H
  C724     1.0000 0.49424  0.72120  0.34472  Biso   1.000  C
  C725     1.0000 0.26130  0.93200  0.34910  Biso   1.000  C
  C726     1.0000 0.47471  0.77870  0.34348  Biso   1.000  C
  C727     1.0000 0.36050  0.98240  0.36130  Biso   1.000  C
  H465     1.0000 0.37500  0.01240  0.37260  Biso   1.000  H
  C728     1.0000 0.46770  0.11850  0.34020  Biso   1.000  C
  C729     1.0000 0.48970  0.17970  0.34120  Biso   1.000  C
  C730     1.0000 0.42630  0.84140  0.35572  Biso   1.000  C
  H466     1.0000 0.40710  0.84650  0.36650  Biso   1.000  H
  C731     1.0000 0.52370  0.29380  0.34460  Biso   1.000  C
  C732     1.0000 0.54770  0.35530  0.34420  Biso   1.000  C
  C733     1.0000 0.30110  0.93650  0.34690  Biso   1.000  C
  C734     1.0000 0.49240  0.28570  0.32563  Biso   1.000  C
  H467     1.0000 0.48330  0.31710  0.31220  Biso   1.000  H
  C735     1.0000 0.52323  0.18970  0.36180  Biso   1.000  C
  H468     1.0000 0.53390  0.15740  0.37410  Biso   1.000  H
  C736     1.0000 0.47200  0.22880  0.32520  Biso   1.000  C
  H469     1.0000 0.44790  0.22540  0.31460  Biso   1.000  H
  C737     1.0000 0.48230  0.82890  0.32430  Biso   1.000  C
  H470     1.0000 0.50070  0.82450  0.31260  Biso   1.000  H
  C738     1.0000 0.43270  0.11040  0.32360  Biso   1.000  C
  H471     1.0000 0.42140  0.14230  0.31150  Biso   1.000  H
  C739     1.0000 0.54070  0.24820  0.36390  Biso   1.000  C
  H472     1.0000 0.56250  0.25560  0.37760  Biso   1.000  H
  C740     1.0000 0.43210  0.00300  0.33870  Biso   1.000  C
  C741     1.0000 0.43420  0.88930  0.33860  Biso   1.000  C
  C742     1.0000 0.37570  0.94330  0.34100  Biso   1.000  C
  C743     1.0000 0.46600  0.00790  0.35530  Biso   1.000  C
  H473     1.0000 0.47720  0.97510  0.36680  Biso   1.000  H
  C744     1.0000 0.41490  0.05620  0.32490  Biso   1.000  C
  H474     1.0000 0.39000  0.05410  0.31630  Biso   1.000  H
  C745     1.0000 0.31390  0.89340  0.32610  Biso   1.000  C
  H475     1.0000 0.29870  0.86320  0.31570  Biso   1.000  H
  C746     1.0000 0.44380  0.78760  0.35829  Biso   1.000  C
  H476     1.0000 0.43600  0.75590  0.36970  Biso   1.000  H
  C747     1.0000 0.46280  0.88270  0.32300  Biso   1.000  C
  H477     1.0000 0.46900  0.91540  0.31140  Biso   1.000  H
  C748     1.0000 0.48470  0.06780  0.35460  Biso   1.000  C
  H478     1.0000 0.50920  0.07120  0.36440  Biso   1.000  H
  C749     1.0000 0.35260  0.90080  0.32280  Biso   1.000  C
  H479     1.0000 0.36200  0.87720  0.30860  Biso   1.000  H
  C750     1.0000 0.55078  0.54320  0.34940  Biso   1.000  C
  C751     1.0000 0.32570  0.97530  0.36380  Biso   1.000  C
  H480     1.0000 0.31710  0.99890  0.37850  Biso   1.000  H
  C752     1.0000 0.14590  0.93670  0.35490  Biso   1.000  C
  N32      1.0000 0.41354  0.94560  0.33868  Biso   1.000  N
  O91      1.0000 0.55836  0.52680  0.32255  Biso   1.000  O
  O92      1.0000 0.55751  0.51690  0.37342  Biso   1.000  O
  O93      1.0000 0.53602  0.38550  0.32250  Biso   1.000  O
  O94      1.0000 0.13612  0.95240  0.37679  Biso   1.000  O
  O95      1.0000 0.12524  0.92580  0.32894  Biso   1.000  O
  O96      1.0000 0.56846  0.37130  0.37009  Biso   1.000  O
  Zn23     1.0000 0.57344  0.44594  0.31796  Biso   1.000  Zn
  Zn24     1.0000 0.58959  0.45156  0.39877  Biso   1.000  Zn
