data_image0
_cell_length_a       28.8037
_cell_length_b       28.8037
_cell_length_c       28.8037
_cell_angle_alpha    90
_cell_angle_beta     90
_cell_angle_gamma    90

_symmetry_space_group_name_H-M    "P 1"
_symmetry_int_tables_number       1

loop_
  _symmetry_equiv_pos_as_xyz
  'x, y, z'

loop_
  _atom_site_label
  _atom_site_occupancy
  _atom_site_fract_x
  _atom_site_fract_y
  _atom_site_fract_z
  _atom_site_thermal_displace_type
  _atom_site_B_iso_or_equiv
  _atom_site_type_symbol
  C1       1.0000 0.96500  0.57350  0.90150  Biso   1.000  C
  C2       1.0000 0.00620  0.55890  0.92950  Biso   1.000  C
  C3       1.0000 0.01960  0.58390  0.96780  Biso   1.000  C
  H1       1.0000 0.00260  0.60980  0.97670  Biso   1.000  H
  C4       1.0000 0.83930  0.58340  0.84720  Biso   1.000  C
  H2       1.0000 0.81690  0.60410  0.83200  Biso   1.000  H
  C5       1.0000 0.83490  0.53540  0.82510  Biso   1.000  C
  C6       1.0000 0.83890  0.53200  0.77170  Biso   1.000  C
  C7       1.0000 0.87700  0.53200  0.73520  Biso   1.000  C
  C8       1.0000 0.92450  0.69400  0.96630  Biso   1.000  C
  H3       1.0000 0.92110  0.66290  0.97430  Biso   1.000  H
  C9       1.0000 0.93420  0.72640  0.00300  Biso   1.000  C
  H4       1.0000 0.93610  0.71710  0.03380  Biso   1.000  H
  C10      1.0000 0.94040  0.77050  0.99050  Biso   1.000  C
  H5       1.0000 0.94800  0.79240  0.01290  Biso   1.000  H
  C11      1.0000 0.93600  0.78320  0.94790  Biso   1.000  C
  H6       1.0000 0.93940  0.81440  0.94010  Biso   1.000  H
  C12      1.0000 0.92560  0.74880  0.91130  Biso   1.000  C
  H7       1.0000 0.92300  0.75830  0.88060  Biso   1.000  H
  N1       1.0000 0.92010  0.70530  0.92170  Biso   1.000  N
  O1       1.0000 0.94836  0.61240  0.91144  Biso   1.000  O
  O2       1.0000 0.94951  0.54710  0.86990  Biso   1.000  O
  O3       1.0000 0.88350  0.59721  0.83440  Biso   1.000  O
  H8       1.0000 0.90260  0.57980  0.84630  Biso   1.000  H
  C13      1.0000 0.53500  0.42650  0.40150  Biso   1.000  C
  C14      1.0000 0.49380  0.44110  0.42950  Biso   1.000  C
  C15      1.0000 0.48040  0.41610  0.46780  Biso   1.000  C
  H9       1.0000 0.49740  0.39020  0.47670  Biso   1.000  H
  C16      1.0000 0.66070  0.41660  0.34720  Biso   1.000  C
  H10      1.0000 0.68310  0.39590  0.33200  Biso   1.000  H
  C17      1.0000 0.66510  0.46460  0.32510  Biso   1.000  C
  C18      1.0000 0.66110  0.46800  0.27170  Biso   1.000  C
  C19      1.0000 0.62300  0.46800  0.23520  Biso   1.000  C
  C20      1.0000 0.57550  0.30600  0.46630  Biso   1.000  C
  H11      1.0000 0.57890  0.33710  0.47430  Biso   1.000  H
  C21      1.0000 0.56580  0.27360  0.50300  Biso   1.000  C
  H12      1.0000 0.56390  0.28290  0.53380  Biso   1.000  H
  C22      1.0000 0.55960  0.22950  0.49050  Biso   1.000  C
  H13      1.0000 0.55200  0.20760  0.51290  Biso   1.000  H
  C23      1.0000 0.56400  0.21680  0.44790  Biso   1.000  C
  H14      1.0000 0.56060  0.18560  0.44010  Biso   1.000  H
  C24      1.0000 0.57440  0.25120  0.41130  Biso   1.000  C
  H15      1.0000 0.57700  0.24170  0.38060  Biso   1.000  H
  N2       1.0000 0.57990  0.29470  0.42170  Biso   1.000  N
  O4       1.0000 0.55164  0.38760  0.41144  Biso   1.000  O
  O5       1.0000 0.55049  0.45290  0.36990  Biso   1.000  O
  O6       1.0000 0.61650  0.40279  0.33440  Biso   1.000  O
  H16      1.0000 0.59740  0.42020  0.34630  Biso   1.000  H
  C25      1.0000 0.03500  0.07350  0.59850  Biso   1.000  C
  C26      1.0000 0.99380  0.05890  0.57050  Biso   1.000  C
  C27      1.0000 0.98040  0.08390  0.53220  Biso   1.000  C
  H17      1.0000 0.99740  0.10980  0.52330  Biso   1.000  H
  C28      1.0000 0.16070  0.08340  0.65280  Biso   1.000  C
  H18      1.0000 0.18310  0.10410  0.66800  Biso   1.000  H
  C29      1.0000 0.16510  0.03540  0.67490  Biso   1.000  C
  C30      1.0000 0.16110  0.03200  0.72830  Biso   1.000  C
  C31      1.0000 0.12300  0.03200  0.76480  Biso   1.000  C
  C32      1.0000 0.07550  0.19400  0.53370  Biso   1.000  C
  H19      1.0000 0.07890  0.16290  0.52570  Biso   1.000  H
  C33      1.0000 0.06580  0.22640  0.49700  Biso   1.000  C
  H20      1.0000 0.06390  0.21710  0.46620  Biso   1.000  H
  C34      1.0000 0.05960  0.27050  0.50950  Biso   1.000  C
  H21      1.0000 0.05200  0.29240  0.48710  Biso   1.000  H
  C35      1.0000 0.06400  0.28320  0.55210  Biso   1.000  C
  H22      1.0000 0.06060  0.31440  0.55990  Biso   1.000  H
  C36      1.0000 0.07440  0.24880  0.58870  Biso   1.000  C
  H23      1.0000 0.07700  0.25830  0.61940  Biso   1.000  H
  N3       1.0000 0.07990  0.20530  0.57830  Biso   1.000  N
  O7       1.0000 0.05164  0.11240  0.58856  Biso   1.000  O
  O8       1.0000 0.05049  0.04710  0.63010  Biso   1.000  O
  O9       1.0000 0.11650  0.09721  0.66560  Biso   1.000  O
  H24      1.0000 0.09740  0.07980  0.65370  Biso   1.000  H
  C37      1.0000 0.46500  0.92650  0.09850  Biso   1.000  C
  C38      1.0000 0.50620  0.94110  0.07050  Biso   1.000  C
  C39      1.0000 0.51960  0.91610  0.03220  Biso   1.000  C
  H25      1.0000 0.50260  0.89020  0.02330  Biso   1.000  H
  C40      1.0000 0.33930  0.91660  0.15280  Biso   1.000  C
  H26      1.0000 0.31690  0.89590  0.16800  Biso   1.000  H
  C41      1.0000 0.33490  0.96460  0.17490  Biso   1.000  C
  C42      1.0000 0.33890  0.96800  0.22830  Biso   1.000  C
  C43      1.0000 0.37700  0.96800  0.26480  Biso   1.000  C
  C44      1.0000 0.42450  0.80600  0.03370  Biso   1.000  C
  H27      1.0000 0.42110  0.83710  0.02570  Biso   1.000  H
  C45      1.0000 0.43420  0.77360  0.99700  Biso   1.000  C
  H28      1.0000 0.43610  0.78290  0.96620  Biso   1.000  H
  C46      1.0000 0.44040  0.72950  0.00950  Biso   1.000  C
  H29      1.0000 0.44800  0.70760  0.98710  Biso   1.000  H
  C47      1.0000 0.43600  0.71680  0.05210  Biso   1.000  C
  H30      1.0000 0.43940  0.68560  0.05990  Biso   1.000  H
  C48      1.0000 0.42560  0.75120  0.08870  Biso   1.000  C
  H31      1.0000 0.42300  0.74170  0.11940  Biso   1.000  H
  N4       1.0000 0.42010  0.79470  0.07830  Biso   1.000  N
  O10      1.0000 0.44836  0.88760  0.08856  Biso   1.000  O
  O11      1.0000 0.44951  0.95290  0.13010  Biso   1.000  O
  O12      1.0000 0.38350  0.90279  0.16560  Biso   1.000  O
  H32      1.0000 0.40260  0.92020  0.15370  Biso   1.000  H
  C49      1.0000 0.90150  0.96500  0.57350  Biso   1.000  C
  C50      1.0000 0.92950  0.00620  0.55890  Biso   1.000  C
  C51      1.0000 0.96780  0.01960  0.58390  Biso   1.000  C
  H33      1.0000 0.97670  0.00260  0.60980  Biso   1.000  H
  C52      1.0000 0.84720  0.83930  0.58340  Biso   1.000  C
  H34      1.0000 0.83200  0.81690  0.60410  Biso   1.000  H
  C53      1.0000 0.82510  0.83490  0.53540  Biso   1.000  C
  C54      1.0000 0.77170  0.83890  0.53200  Biso   1.000  C
  C55      1.0000 0.73520  0.87700  0.53200  Biso   1.000  C
  C56      1.0000 0.96630  0.92450  0.69400  Biso   1.000  C
  H35      1.0000 0.97430  0.92110  0.66290  Biso   1.000  H
  C57      1.0000 0.00300  0.93420  0.72640  Biso   1.000  C
  H36      1.0000 0.03380  0.93610  0.71710  Biso   1.000  H
  C58      1.0000 0.99050  0.94040  0.77050  Biso   1.000  C
  H37      1.0000 0.01290  0.94800  0.79240  Biso   1.000  H
  C59      1.0000 0.94790  0.93600  0.78320  Biso   1.000  C
  H38      1.0000 0.94010  0.93940  0.81440  Biso   1.000  H
  C60      1.0000 0.91130  0.92560  0.74880  Biso   1.000  C
  H39      1.0000 0.88060  0.92300  0.75830  Biso   1.000  H
  N5       1.0000 0.92170  0.92010  0.70530  Biso   1.000  N
  O13      1.0000 0.91144  0.94836  0.61240  Biso   1.000  O
  O14      1.0000 0.86990  0.94951  0.54710  Biso   1.000  O
  O15      1.0000 0.83440  0.88350  0.59721  Biso   1.000  O
  H40      1.0000 0.84630  0.90260  0.57980  Biso   1.000  H
  C61      1.0000 0.40150  0.53500  0.42650  Biso   1.000  C
  C62      1.0000 0.42950  0.49380  0.44110  Biso   1.000  C
  C63      1.0000 0.46780  0.48040  0.41610  Biso   1.000  C
  H41      1.0000 0.47670  0.49740  0.39020  Biso   1.000  H
  C64      1.0000 0.34720  0.66070  0.41660  Biso   1.000  C
  H42      1.0000 0.33200  0.68310  0.39590  Biso   1.000  H
  C65      1.0000 0.32510  0.66510  0.46460  Biso   1.000  C
  C66      1.0000 0.27170  0.66110  0.46800  Biso   1.000  C
  C67      1.0000 0.23520  0.62300  0.46800  Biso   1.000  C
  C68      1.0000 0.46630  0.57550  0.30600  Biso   1.000  C
  H43      1.0000 0.47430  0.57890  0.33710  Biso   1.000  H
  C69      1.0000 0.50300  0.56580  0.27360  Biso   1.000  C
  H44      1.0000 0.53380  0.56390  0.28290  Biso   1.000  H
  C70      1.0000 0.49050  0.55960  0.22950  Biso   1.000  C
  H45      1.0000 0.51290  0.55200  0.20760  Biso   1.000  H
  C71      1.0000 0.44790  0.56400  0.21680  Biso   1.000  C
  H46      1.0000 0.44010  0.56060  0.18560  Biso   1.000  H
  C72      1.0000 0.41130  0.57440  0.25120  Biso   1.000  C
  H47      1.0000 0.38060  0.57700  0.24170  Biso   1.000  H
  N6       1.0000 0.42170  0.57990  0.29470  Biso   1.000  N
  O16      1.0000 0.41144  0.55164  0.38760  Biso   1.000  O
  O17      1.0000 0.36990  0.55049  0.45290  Biso   1.000  O
  O18      1.0000 0.33440  0.61650  0.40279  Biso   1.000  O
  H48      1.0000 0.34630  0.59740  0.42020  Biso   1.000  H
  C73      1.0000 0.59850  0.03500  0.07350  Biso   1.000  C
  C74      1.0000 0.57050  0.99380  0.05890  Biso   1.000  C
  C75      1.0000 0.53220  0.98040  0.08390  Biso   1.000  C
  H49      1.0000 0.52330  0.99740  0.10980  Biso   1.000  H
  C76      1.0000 0.65280  0.16070  0.08340  Biso   1.000  C
  H50      1.0000 0.66800  0.18310  0.10410  Biso   1.000  H
  C77      1.0000 0.67490  0.16510  0.03540  Biso   1.000  C
  C78      1.0000 0.72830  0.16110  0.03200  Biso   1.000  C
  C79      1.0000 0.76480  0.12300  0.03200  Biso   1.000  C
  C80      1.0000 0.53370  0.07550  0.19400  Biso   1.000  C
  H51      1.0000 0.52570  0.07890  0.16290  Biso   1.000  H
  C81      1.0000 0.49700  0.06580  0.22640  Biso   1.000  C
  H52      1.0000 0.46620  0.06390  0.21710  Biso   1.000  H
  C82      1.0000 0.50950  0.05960  0.27050  Biso   1.000  C
  H53      1.0000 0.48710  0.05200  0.29240  Biso   1.000  H
  C83      1.0000 0.55210  0.06400  0.28320  Biso   1.000  C
  H54      1.0000 0.55990  0.06060  0.31440  Biso   1.000  H
  C84      1.0000 0.58870  0.07440  0.24880  Biso   1.000  C
  H55      1.0000 0.61940  0.07700  0.25830  Biso   1.000  H
  N7       1.0000 0.57830  0.07990  0.20530  Biso   1.000  N
  O19      1.0000 0.58856  0.05164  0.11240  Biso   1.000  O
  O20      1.0000 0.63010  0.05049  0.04710  Biso   1.000  O
  O21      1.0000 0.66560  0.11650  0.09721  Biso   1.000  O
  H56      1.0000 0.65370  0.09740  0.07980  Biso   1.000  H
  C85      1.0000 0.09850  0.46500  0.92650  Biso   1.000  C
  C86      1.0000 0.07050  0.50620  0.94110  Biso   1.000  C
  C87      1.0000 0.03220  0.51960  0.91610  Biso   1.000  C
  H57      1.0000 0.02330  0.50260  0.89020  Biso   1.000  H
  C88      1.0000 0.15280  0.33930  0.91660  Biso   1.000  C
  H58      1.0000 0.16800  0.31690  0.89590  Biso   1.000  H
  C89      1.0000 0.17490  0.33490  0.96460  Biso   1.000  C
  C90      1.0000 0.22830  0.33890  0.96800  Biso   1.000  C
  C91      1.0000 0.26480  0.37700  0.96800  Biso   1.000  C
  C92      1.0000 0.03370  0.42450  0.80600  Biso   1.000  C
  H59      1.0000 0.02570  0.42110  0.83710  Biso   1.000  H
  C93      1.0000 0.99700  0.43420  0.77360  Biso   1.000  C
  H60      1.0000 0.96620  0.43610  0.78290  Biso   1.000  H
  C94      1.0000 0.00950  0.44040  0.72950  Biso   1.000  C
  H61      1.0000 0.98710  0.44800  0.70760  Biso   1.000  H
  C95      1.0000 0.05210  0.43600  0.71680  Biso   1.000  C
  H62      1.0000 0.05990  0.43940  0.68560  Biso   1.000  H
  C96      1.0000 0.08870  0.42560  0.75120  Biso   1.000  C
  H63      1.0000 0.11940  0.42300  0.74170  Biso   1.000  H
  N8       1.0000 0.07830  0.42010  0.79470  Biso   1.000  N
  O22      1.0000 0.08856  0.44836  0.88760  Biso   1.000  O
  O23      1.0000 0.13010  0.44951  0.95290  Biso   1.000  O
  O24      1.0000 0.16560  0.38350  0.90279  Biso   1.000  O
  H64      1.0000 0.15370  0.40260  0.92020  Biso   1.000  H
  C97      1.0000 0.57350  0.90150  0.96500  Biso   1.000  C
  C98      1.0000 0.55890  0.92950  0.00620  Biso   1.000  C
  C99      1.0000 0.58390  0.96780  0.01960  Biso   1.000  C
  H65      1.0000 0.60980  0.97670  0.00260  Biso   1.000  H
  C100     1.0000 0.58340  0.84720  0.83930  Biso   1.000  C
  H66      1.0000 0.60410  0.83200  0.81690  Biso   1.000  H
  C101     1.0000 0.53540  0.82510  0.83490  Biso   1.000  C
  C102     1.0000 0.53200  0.77170  0.83890  Biso   1.000  C
  C103     1.0000 0.53200  0.73520  0.87700  Biso   1.000  C
  C104     1.0000 0.69400  0.96630  0.92450  Biso   1.000  C
  H67      1.0000 0.66290  0.97430  0.92110  Biso   1.000  H
  C105     1.0000 0.72640  0.00300  0.93420  Biso   1.000  C
  H68      1.0000 0.71710  0.03380  0.93610  Biso   1.000  H
  C106     1.0000 0.77050  0.99050  0.94040  Biso   1.000  C
  H69      1.0000 0.79240  0.01290  0.94800  Biso   1.000  H
  C107     1.0000 0.78320  0.94790  0.93600  Biso   1.000  C
  H70      1.0000 0.81440  0.94010  0.93940  Biso   1.000  H
  C108     1.0000 0.74880  0.91130  0.92560  Biso   1.000  C
  H71      1.0000 0.75830  0.88060  0.92300  Biso   1.000  H
  N9       1.0000 0.70530  0.92170  0.92010  Biso   1.000  N
  O25      1.0000 0.61240  0.91144  0.94836  Biso   1.000  O
  O26      1.0000 0.54710  0.86990  0.94951  Biso   1.000  O
  O27      1.0000 0.59721  0.83440  0.88350  Biso   1.000  O
  H72      1.0000 0.57980  0.84630  0.90260  Biso   1.000  H
  C109     1.0000 0.42650  0.40150  0.53500  Biso   1.000  C
  C110     1.0000 0.44110  0.42950  0.49380  Biso   1.000  C
  C111     1.0000 0.41610  0.46780  0.48040  Biso   1.000  C
  H73      1.0000 0.39020  0.47670  0.49740  Biso   1.000  H
  C112     1.0000 0.41660  0.34720  0.66070  Biso   1.000  C
  H74      1.0000 0.39590  0.33200  0.68310  Biso   1.000  H
  C113     1.0000 0.46460  0.32510  0.66510  Biso   1.000  C
  C114     1.0000 0.46800  0.27170  0.66110  Biso   1.000  C
  C115     1.0000 0.46800  0.23520  0.62300  Biso   1.000  C
  C116     1.0000 0.30600  0.46630  0.57550  Biso   1.000  C
  H75      1.0000 0.33710  0.47430  0.57890  Biso   1.000  H
  C117     1.0000 0.27360  0.50300  0.56580  Biso   1.000  C
  H76      1.0000 0.28290  0.53380  0.56390  Biso   1.000  H
  C118     1.0000 0.22950  0.49050  0.55960  Biso   1.000  C
  H77      1.0000 0.20760  0.51290  0.55200  Biso   1.000  H
  C119     1.0000 0.21680  0.44790  0.56400  Biso   1.000  C
  H78      1.0000 0.18560  0.44010  0.56060  Biso   1.000  H
  C120     1.0000 0.25120  0.41130  0.57440  Biso   1.000  C
  H79      1.0000 0.24170  0.38060  0.57700  Biso   1.000  H
  N10      1.0000 0.29470  0.42170  0.57990  Biso   1.000  N
  O28      1.0000 0.38760  0.41144  0.55164  Biso   1.000  O
  O29      1.0000 0.45290  0.36990  0.55049  Biso   1.000  O
  O30      1.0000 0.40279  0.33440  0.61650  Biso   1.000  O
  H80      1.0000 0.42020  0.34630  0.59740  Biso   1.000  H
  C121     1.0000 0.07350  0.59850  0.03500  Biso   1.000  C
  C122     1.0000 0.05890  0.57050  0.99380  Biso   1.000  C
  C123     1.0000 0.08390  0.53220  0.98040  Biso   1.000  C
  H81      1.0000 0.10980  0.52330  0.99740  Biso   1.000  H
  C124     1.0000 0.08340  0.65280  0.16070  Biso   1.000  C
  H82      1.0000 0.10410  0.66800  0.18310  Biso   1.000  H
  C125     1.0000 0.03540  0.67490  0.16510  Biso   1.000  C
  C126     1.0000 0.03200  0.72830  0.16110  Biso   1.000  C
  C127     1.0000 0.03200  0.76480  0.12300  Biso   1.000  C
  C128     1.0000 0.19400  0.53370  0.07550  Biso   1.000  C
  H83      1.0000 0.16290  0.52570  0.07890  Biso   1.000  H
  C129     1.0000 0.22640  0.49700  0.06580  Biso   1.000  C
  H84      1.0000 0.21710  0.46620  0.06390  Biso   1.000  H
  C130     1.0000 0.27050  0.50950  0.05960  Biso   1.000  C
  H85      1.0000 0.29240  0.48710  0.05200  Biso   1.000  H
  C131     1.0000 0.28320  0.55210  0.06400  Biso   1.000  C
  H86      1.0000 0.31440  0.55990  0.06060  Biso   1.000  H
  C132     1.0000 0.24880  0.58870  0.07440  Biso   1.000  C
  H87      1.0000 0.25830  0.61940  0.07700  Biso   1.000  H
  N11      1.0000 0.20530  0.57830  0.07990  Biso   1.000  N
  O31      1.0000 0.11240  0.58856  0.05164  Biso   1.000  O
  O32      1.0000 0.04710  0.63010  0.05049  Biso   1.000  O
  O33      1.0000 0.09721  0.66560  0.11650  Biso   1.000  O
  H88      1.0000 0.07980  0.65370  0.09740  Biso   1.000  H
  C133     1.0000 0.92650  0.09850  0.46500  Biso   1.000  C
  C134     1.0000 0.94110  0.07050  0.50620  Biso   1.000  C
  C135     1.0000 0.91610  0.03220  0.51960  Biso   1.000  C
  H89      1.0000 0.89020  0.02330  0.50260  Biso   1.000  H
  C136     1.0000 0.91660  0.15280  0.33930  Biso   1.000  C
  H90      1.0000 0.89590  0.16800  0.31690  Biso   1.000  H
  C137     1.0000 0.96460  0.17490  0.33490  Biso   1.000  C
  C138     1.0000 0.96800  0.22830  0.33890  Biso   1.000  C
  C139     1.0000 0.96800  0.26480  0.37700  Biso   1.000  C
  C140     1.0000 0.80600  0.03370  0.42450  Biso   1.000  C
  H91      1.0000 0.83710  0.02570  0.42110  Biso   1.000  H
  C141     1.0000 0.77360  0.99700  0.43420  Biso   1.000  C
  H92      1.0000 0.78290  0.96620  0.43610  Biso   1.000  H
  C142     1.0000 0.72950  0.00950  0.44040  Biso   1.000  C
  H93      1.0000 0.70760  0.98710  0.44800  Biso   1.000  H
  C143     1.0000 0.71680  0.05210  0.43600  Biso   1.000  C
  H94      1.0000 0.68560  0.05990  0.43940  Biso   1.000  H
  C144     1.0000 0.75120  0.08870  0.42560  Biso   1.000  C
  H95      1.0000 0.74170  0.11940  0.42300  Biso   1.000  H
  N12      1.0000 0.79470  0.07830  0.42010  Biso   1.000  N
  O34      1.0000 0.88760  0.08856  0.44836  Biso   1.000  O
  O35      1.0000 0.95290  0.13010  0.44951  Biso   1.000  O
  O36      1.0000 0.90279  0.16560  0.38350  Biso   1.000  O
  H96      1.0000 0.92020  0.15370  0.40260  Biso   1.000  H
  C145     1.0000 0.82350  0.71500  0.84850  Biso   1.000  C
  C146     1.0000 0.80890  0.75620  0.82050  Biso   1.000  C
  C147     1.0000 0.83390  0.76960  0.78220  Biso   1.000  C
  H97      1.0000 0.85980  0.75260  0.77330  Biso   1.000  H
  C148     1.0000 0.83340  0.58930  0.90280  Biso   1.000  C
  H98      1.0000 0.85410  0.56690  0.91800  Biso   1.000  H
  C149     1.0000 0.78540  0.58490  0.92490  Biso   1.000  C
  C150     1.0000 0.78200  0.58890  0.97830  Biso   1.000  C
  C151     1.0000 0.78200  0.62700  0.01480  Biso   1.000  C
  C152     1.0000 0.94400  0.67450  0.78370  Biso   1.000  C
  H99      1.0000 0.91290  0.67110  0.77570  Biso   1.000  H
  C153     1.0000 0.97640  0.68420  0.74700  Biso   1.000  C
  H100     1.0000 0.96710  0.68610  0.71620  Biso   1.000  H
  C154     1.0000 0.02050  0.69040  0.75950  Biso   1.000  C
  H101     1.0000 0.04240  0.69800  0.73710  Biso   1.000  H
  C155     1.0000 0.03320  0.68600  0.80210  Biso   1.000  C
  H102     1.0000 0.06440  0.68940  0.80990  Biso   1.000  H
  C156     1.0000 0.99880  0.67560  0.83870  Biso   1.000  C
  H103     1.0000 0.00830  0.67300  0.86940  Biso   1.000  H
  N13      1.0000 0.95530  0.67010  0.82830  Biso   1.000  N
  O37      1.0000 0.86240  0.69836  0.83856  Biso   1.000  O
  O38      1.0000 0.79710  0.69951  0.88010  Biso   1.000  O
  O39      1.0000 0.84721  0.63350  0.91560  Biso   1.000  O
  H104     1.0000 0.82980  0.65260  0.90370  Biso   1.000  H
  C157     1.0000 0.67650  0.28500  0.34850  Biso   1.000  C
  C158     1.0000 0.69110  0.24380  0.32050  Biso   1.000  C
  C159     1.0000 0.66610  0.23040  0.28220  Biso   1.000  C
  H105     1.0000 0.64020  0.24740  0.27330  Biso   1.000  H
  C160     1.0000 0.66660  0.41070  0.40280  Biso   1.000  C
  H106     1.0000 0.64590  0.43310  0.41800  Biso   1.000  H
  C161     1.0000 0.71460  0.41510  0.42490  Biso   1.000  C
  C162     1.0000 0.71800  0.41110  0.47830  Biso   1.000  C
  C163     1.0000 0.71800  0.37300  0.51480  Biso   1.000  C
  C164     1.0000 0.55600  0.32550  0.28370  Biso   1.000  C
  H107     1.0000 0.58710  0.32890  0.27570  Biso   1.000  H
  C165     1.0000 0.52360  0.31580  0.24700  Biso   1.000  C
  H108     1.0000 0.53290  0.31390  0.21620  Biso   1.000  H
  C166     1.0000 0.47950  0.30960  0.25950  Biso   1.000  C
  H109     1.0000 0.45760  0.30200  0.23710  Biso   1.000  H
  C167     1.0000 0.46680  0.31400  0.30210  Biso   1.000  C
  H110     1.0000 0.43560  0.31060  0.30990  Biso   1.000  H
  C168     1.0000 0.50120  0.32440  0.33870  Biso   1.000  C
  H111     1.0000 0.49170  0.32700  0.36940  Biso   1.000  H
  N14      1.0000 0.54470  0.32990  0.32830  Biso   1.000  N
  O40      1.0000 0.63760  0.30164  0.33856  Biso   1.000  O
  O41      1.0000 0.70290  0.30049  0.38010  Biso   1.000  O
  O42      1.0000 0.65279  0.36650  0.41560  Biso   1.000  O
  H112     1.0000 0.67020  0.34740  0.40370  Biso   1.000  H
  C169     1.0000 0.32350  0.78500  0.15150  Biso   1.000  C
  C170     1.0000 0.30890  0.74380  0.17950  Biso   1.000  C
  C171     1.0000 0.33390  0.73040  0.21780  Biso   1.000  C
  H113     1.0000 0.35980  0.74740  0.22670  Biso   1.000  H
  C172     1.0000 0.33340  0.91070  0.09720  Biso   1.000  C
  H114     1.0000 0.35410  0.93310  0.08200  Biso   1.000  H
  C173     1.0000 0.28540  0.91510  0.07510  Biso   1.000  C
  C174     1.0000 0.28200  0.91110  0.02170  Biso   1.000  C
  C175     1.0000 0.28200  0.87300  0.98520  Biso   1.000  C
  C176     1.0000 0.44400  0.82550  0.21630  Biso   1.000  C
  H115     1.0000 0.41290  0.82890  0.22430  Biso   1.000  H
  C177     1.0000 0.47640  0.81580  0.25300  Biso   1.000  C
  H116     1.0000 0.46710  0.81390  0.28380  Biso   1.000  H
  C178     1.0000 0.52050  0.80960  0.24050  Biso   1.000  C
  H117     1.0000 0.54240  0.80200  0.26290  Biso   1.000  H
  C179     1.0000 0.53320  0.81400  0.19790  Biso   1.000  C
  H118     1.0000 0.56440  0.81060  0.19010  Biso   1.000  H
  C180     1.0000 0.49880  0.82440  0.16130  Biso   1.000  C
  H119     1.0000 0.50830  0.82700  0.13060  Biso   1.000  H
  N15      1.0000 0.45530  0.82990  0.17170  Biso   1.000  N
  O43      1.0000 0.36240  0.80164  0.16144  Biso   1.000  O
  O44      1.0000 0.29710  0.80049  0.11990  Biso   1.000  O
  O45      1.0000 0.34721  0.86650  0.08440  Biso   1.000  O
  H120     1.0000 0.32980  0.84740  0.09630  Biso   1.000  H
  C181     1.0000 0.17650  0.21500  0.65150  Biso   1.000  C
  C182     1.0000 0.19110  0.25620  0.67950  Biso   1.000  C
  C183     1.0000 0.16610  0.26960  0.71780  Biso   1.000  C
  H121     1.0000 0.14020  0.25260  0.72670  Biso   1.000  H
  C184     1.0000 0.16660  0.08930  0.59720  Biso   1.000  C
  H122     1.0000 0.14590  0.06690  0.58200  Biso   1.000  H
  C185     1.0000 0.21460  0.08490  0.57510  Biso   1.000  C
  C186     1.0000 0.21800  0.08890  0.52170  Biso   1.000  C
  C187     1.0000 0.21800  0.12700  0.48520  Biso   1.000  C
  C188     1.0000 0.05600  0.17450  0.71630  Biso   1.000  C
  H123     1.0000 0.08710  0.17110  0.72430  Biso   1.000  H
  C189     1.0000 0.02360  0.18420  0.75300  Biso   1.000  C
  H124     1.0000 0.03290  0.18610  0.78380  Biso   1.000  H
  C190     1.0000 0.97950  0.19040  0.74050  Biso   1.000  C
  H125     1.0000 0.95760  0.19800  0.76290  Biso   1.000  H
  C191     1.0000 0.96680  0.18600  0.69790  Biso   1.000  C
  H126     1.0000 0.93560  0.18940  0.69010  Biso   1.000  H
  C192     1.0000 0.00120  0.17560  0.66130  Biso   1.000  C
  H127     1.0000 0.99170  0.17300  0.63060  Biso   1.000  H
  N16      1.0000 0.04470  0.17010  0.67170  Biso   1.000  N
  O46      1.0000 0.13760  0.19836  0.66144  Biso   1.000  O
  O47      1.0000 0.20290  0.19951  0.61990  Biso   1.000  O
  O48      1.0000 0.15279  0.13350  0.58440  Biso   1.000  O
  H128     1.0000 0.17020  0.15260  0.59630  Biso   1.000  H
  C193     1.0000 0.21500  0.65150  0.17650  Biso   1.000  C
  C194     1.0000 0.25620  0.67950  0.19110  Biso   1.000  C
  C195     1.0000 0.26960  0.71780  0.16610  Biso   1.000  C
  H129     1.0000 0.25260  0.72670  0.14020  Biso   1.000  H
  C196     1.0000 0.08930  0.59720  0.16660  Biso   1.000  C
  H130     1.0000 0.06690  0.58200  0.14590  Biso   1.000  H
  C197     1.0000 0.08490  0.57510  0.21460  Biso   1.000  C
  C198     1.0000 0.08890  0.52170  0.21800  Biso   1.000  C
  C199     1.0000 0.12700  0.48520  0.21800  Biso   1.000  C
  C200     1.0000 0.17450  0.71630  0.05600  Biso   1.000  C
  H131     1.0000 0.17110  0.72430  0.08710  Biso   1.000  H
  C201     1.0000 0.18420  0.75300  0.02360  Biso   1.000  C
  H132     1.0000 0.18610  0.78380  0.03290  Biso   1.000  H
  C202     1.0000 0.19040  0.74050  0.97950  Biso   1.000  C
  H133     1.0000 0.19800  0.76290  0.95760  Biso   1.000  H
  C203     1.0000 0.18600  0.69790  0.96680  Biso   1.000  C
  H134     1.0000 0.18940  0.69010  0.93560  Biso   1.000  H
  C204     1.0000 0.17560  0.66130  0.00120  Biso   1.000  C
  H135     1.0000 0.17300  0.63060  0.99170  Biso   1.000  H
  N17      1.0000 0.17010  0.67170  0.04470  Biso   1.000  N
  O49      1.0000 0.19836  0.66144  0.13760  Biso   1.000  O
  O50      1.0000 0.19951  0.61990  0.20290  Biso   1.000  O
  O51      1.0000 0.13350  0.58440  0.15279  Biso   1.000  O
  H136     1.0000 0.15260  0.59630  0.17020  Biso   1.000  H
  C205     1.0000 0.78500  0.15150  0.32350  Biso   1.000  C
  C206     1.0000 0.74380  0.17950  0.30890  Biso   1.000  C
  C207     1.0000 0.73040  0.21780  0.33390  Biso   1.000  C
  H137     1.0000 0.74740  0.22670  0.35980  Biso   1.000  H
  C208     1.0000 0.91070  0.09720  0.33340  Biso   1.000  C
  H138     1.0000 0.93310  0.08200  0.35410  Biso   1.000  H
  C209     1.0000 0.91510  0.07510  0.28540  Biso   1.000  C
  C210     1.0000 0.91110  0.02170  0.28200  Biso   1.000  C
  C211     1.0000 0.87300  0.98520  0.28200  Biso   1.000  C
  C212     1.0000 0.82550  0.21630  0.44400  Biso   1.000  C
  H139     1.0000 0.82890  0.22430  0.41290  Biso   1.000  H
  C213     1.0000 0.81580  0.25300  0.47640  Biso   1.000  C
  H140     1.0000 0.81390  0.28380  0.46710  Biso   1.000  H
  C214     1.0000 0.80960  0.24050  0.52050  Biso   1.000  C
  H141     1.0000 0.80200  0.26290  0.54240  Biso   1.000  H
  C215     1.0000 0.81400  0.19790  0.53320  Biso   1.000  C
  H142     1.0000 0.81060  0.19010  0.56440  Biso   1.000  H
  C216     1.0000 0.82440  0.16130  0.49880  Biso   1.000  C
  H143     1.0000 0.82700  0.13060  0.50830  Biso   1.000  H
  N18      1.0000 0.82990  0.17170  0.45530  Biso   1.000  N
  O52      1.0000 0.80164  0.16144  0.36240  Biso   1.000  O
  O53      1.0000 0.80049  0.11990  0.29710  Biso   1.000  O
  O54      1.0000 0.86650  0.08440  0.34721  Biso   1.000  O
  H144     1.0000 0.84740  0.09630  0.32980  Biso   1.000  H
  C217     1.0000 0.28500  0.34850  0.67650  Biso   1.000  C
  C218     1.0000 0.24380  0.32050  0.69110  Biso   1.000  C
  C219     1.0000 0.23040  0.28220  0.66610  Biso   1.000  C
  H145     1.0000 0.24740  0.27330  0.64020  Biso   1.000  H
  C220     1.0000 0.41070  0.40280  0.66660  Biso   1.000  C
  H146     1.0000 0.43310  0.41800  0.64590  Biso   1.000  H
  C221     1.0000 0.41510  0.42490  0.71460  Biso   1.000  C
  C222     1.0000 0.41110  0.47830  0.71800  Biso   1.000  C
  C223     1.0000 0.37300  0.51480  0.71800  Biso   1.000  C
  C224     1.0000 0.32550  0.28370  0.55600  Biso   1.000  C
  H147     1.0000 0.32890  0.27570  0.58710  Biso   1.000  H
  C225     1.0000 0.31580  0.24700  0.52360  Biso   1.000  C
  H148     1.0000 0.31390  0.21620  0.53290  Biso   1.000  H
  C226     1.0000 0.30960  0.25950  0.47950  Biso   1.000  C
  H149     1.0000 0.30200  0.23710  0.45760  Biso   1.000  H
  C227     1.0000 0.31400  0.30210  0.46680  Biso   1.000  C
  H150     1.0000 0.31060  0.30990  0.43560  Biso   1.000  H
  C228     1.0000 0.32440  0.33870  0.50120  Biso   1.000  C
  H151     1.0000 0.32700  0.36940  0.49170  Biso   1.000  H
  N19      1.0000 0.32990  0.32830  0.54470  Biso   1.000  N
  O55      1.0000 0.30164  0.33856  0.63760  Biso   1.000  O
  O56      1.0000 0.30049  0.38010  0.70290  Biso   1.000  O
  O57      1.0000 0.36650  0.41560  0.65279  Biso   1.000  O
  H152     1.0000 0.34740  0.40370  0.67020  Biso   1.000  H
  C229     1.0000 0.71500  0.84850  0.82350  Biso   1.000  C
  C230     1.0000 0.75620  0.82050  0.80890  Biso   1.000  C
  C231     1.0000 0.76960  0.78220  0.83390  Biso   1.000  C
  H153     1.0000 0.75260  0.77330  0.85980  Biso   1.000  H
  C232     1.0000 0.58930  0.90280  0.83340  Biso   1.000  C
  H154     1.0000 0.56690  0.91800  0.85410  Biso   1.000  H
  C233     1.0000 0.58490  0.92490  0.78540  Biso   1.000  C
  C234     1.0000 0.58890  0.97830  0.78200  Biso   1.000  C
  C235     1.0000 0.62700  0.01480  0.78200  Biso   1.000  C
  C236     1.0000 0.67450  0.78370  0.94400  Biso   1.000  C
  H155     1.0000 0.67110  0.77570  0.91290  Biso   1.000  H
  C237     1.0000 0.68420  0.74700  0.97640  Biso   1.000  C
  H156     1.0000 0.68610  0.71620  0.96710  Biso   1.000  H
  C238     1.0000 0.69040  0.75950  0.02050  Biso   1.000  C
  H157     1.0000 0.69800  0.73710  0.04240  Biso   1.000  H
  C239     1.0000 0.68600  0.80210  0.03320  Biso   1.000  C
  H158     1.0000 0.68940  0.80990  0.06440  Biso   1.000  H
  C240     1.0000 0.67560  0.83870  0.99880  Biso   1.000  C
  H159     1.0000 0.67300  0.86940  0.00830  Biso   1.000  H
  N20      1.0000 0.67010  0.82830  0.95530  Biso   1.000  N
  O58      1.0000 0.69836  0.83856  0.86240  Biso   1.000  O
  O59      1.0000 0.69951  0.88010  0.79710  Biso   1.000  O
  O60      1.0000 0.63350  0.91560  0.84721  Biso   1.000  O
  H160     1.0000 0.65260  0.90370  0.82980  Biso   1.000  H
  C241     1.0000 0.15150  0.32350  0.78500  Biso   1.000  C
  C242     1.0000 0.17950  0.30890  0.74380  Biso   1.000  C
  C243     1.0000 0.21780  0.33390  0.73040  Biso   1.000  C
  H161     1.0000 0.22670  0.35980  0.74740  Biso   1.000  H
  C244     1.0000 0.09720  0.33340  0.91070  Biso   1.000  C
  H162     1.0000 0.08200  0.35410  0.93310  Biso   1.000  H
  C245     1.0000 0.07510  0.28540  0.91510  Biso   1.000  C
  C246     1.0000 0.02170  0.28200  0.91110  Biso   1.000  C
  C247     1.0000 0.98520  0.28200  0.87300  Biso   1.000  C
  C248     1.0000 0.21630  0.44400  0.82550  Biso   1.000  C
  H163     1.0000 0.22430  0.41290  0.82890  Biso   1.000  H
  C249     1.0000 0.25300  0.47640  0.81580  Biso   1.000  C
  H164     1.0000 0.28380  0.46710  0.81390  Biso   1.000  H
  C250     1.0000 0.24050  0.52050  0.80960  Biso   1.000  C
  H165     1.0000 0.26290  0.54240  0.80200  Biso   1.000  H
  C251     1.0000 0.19790  0.53320  0.81400  Biso   1.000  C
  H166     1.0000 0.19010  0.56440  0.81060  Biso   1.000  H
  C252     1.0000 0.16130  0.49880  0.82440  Biso   1.000  C
  H167     1.0000 0.13060  0.50830  0.82700  Biso   1.000  H
  N21      1.0000 0.17170  0.45530  0.82990  Biso   1.000  N
  O61      1.0000 0.16144  0.36240  0.80164  Biso   1.000  O
  O62      1.0000 0.11990  0.29710  0.80049  Biso   1.000  O
  O63      1.0000 0.08440  0.34721  0.86650  Biso   1.000  O
  H168     1.0000 0.09630  0.32980  0.84740  Biso   1.000  H
  C253     1.0000 0.65150  0.17650  0.21500  Biso   1.000  C
  C254     1.0000 0.67950  0.19110  0.25620  Biso   1.000  C
  C255     1.0000 0.71780  0.16610  0.26960  Biso   1.000  C
  H169     1.0000 0.72670  0.14020  0.25260  Biso   1.000  H
  C256     1.0000 0.59720  0.16660  0.08930  Biso   1.000  C
  H170     1.0000 0.58200  0.14590  0.06690  Biso   1.000  H
  C257     1.0000 0.57510  0.21460  0.08490  Biso   1.000  C
  C258     1.0000 0.52170  0.21800  0.08890  Biso   1.000  C
  C259     1.0000 0.48520  0.21800  0.12700  Biso   1.000  C
  C260     1.0000 0.71630  0.05600  0.17450  Biso   1.000  C
  H171     1.0000 0.72430  0.08710  0.17110  Biso   1.000  H
  C261     1.0000 0.75300  0.02360  0.18420  Biso   1.000  C
  H172     1.0000 0.78380  0.03290  0.18610  Biso   1.000  H
  C262     1.0000 0.74050  0.97950  0.19040  Biso   1.000  C
  H173     1.0000 0.76290  0.95760  0.19800  Biso   1.000  H
  C263     1.0000 0.69790  0.96680  0.18600  Biso   1.000  C
  H174     1.0000 0.69010  0.93560  0.18940  Biso   1.000  H
  C264     1.0000 0.66130  0.00120  0.17560  Biso   1.000  C
  H175     1.0000 0.63060  0.99170  0.17300  Biso   1.000  H
  N22      1.0000 0.67170  0.04470  0.17010  Biso   1.000  N
  O64      1.0000 0.66144  0.13760  0.19836  Biso   1.000  O
  O65      1.0000 0.61990  0.20290  0.19951  Biso   1.000  O
  O66      1.0000 0.58440  0.15279  0.13350  Biso   1.000  O
  H176     1.0000 0.59630  0.17020  0.15260  Biso   1.000  H
  C265     1.0000 0.84850  0.82350  0.71500  Biso   1.000  C
  C266     1.0000 0.82050  0.80890  0.75620  Biso   1.000  C
  C267     1.0000 0.78220  0.83390  0.76960  Biso   1.000  C
  H177     1.0000 0.77330  0.85980  0.75260  Biso   1.000  H
  C268     1.0000 0.90280  0.83340  0.58930  Biso   1.000  C
  H178     1.0000 0.91800  0.85410  0.56690  Biso   1.000  H
  C269     1.0000 0.92490  0.78540  0.58490  Biso   1.000  C
  C270     1.0000 0.97830  0.78200  0.58890  Biso   1.000  C
  C271     1.0000 0.01480  0.78200  0.62700  Biso   1.000  C
  C272     1.0000 0.78370  0.94400  0.67450  Biso   1.000  C
  H179     1.0000 0.77570  0.91290  0.67110  Biso   1.000  H
  C273     1.0000 0.74700  0.97640  0.68420  Biso   1.000  C
  H180     1.0000 0.71620  0.96710  0.68610  Biso   1.000  H
  C274     1.0000 0.75950  0.02050  0.69040  Biso   1.000  C
  H181     1.0000 0.73710  0.04240  0.69800  Biso   1.000  H
  C275     1.0000 0.80210  0.03320  0.68600  Biso   1.000  C
  H182     1.0000 0.80990  0.06440  0.68940  Biso   1.000  H
  C276     1.0000 0.83870  0.99880  0.67560  Biso   1.000  C
  H183     1.0000 0.86940  0.00830  0.67300  Biso   1.000  H
  N23      1.0000 0.82830  0.95530  0.67010  Biso   1.000  N
  O67      1.0000 0.83856  0.86240  0.69836  Biso   1.000  O
  O68      1.0000 0.88010  0.79710  0.69951  Biso   1.000  O
  O69      1.0000 0.91560  0.84721  0.63350  Biso   1.000  O
  H184     1.0000 0.90370  0.82980  0.65260  Biso   1.000  H
  C277     1.0000 0.34850  0.67650  0.28500  Biso   1.000  C
  C278     1.0000 0.32050  0.69110  0.24380  Biso   1.000  C
  C279     1.0000 0.28220  0.66610  0.23040  Biso   1.000  C
  H185     1.0000 0.27330  0.64020  0.24740  Biso   1.000  H
  C280     1.0000 0.40280  0.66660  0.41070  Biso   1.000  C
  H186     1.0000 0.41800  0.64590  0.43310  Biso   1.000  H
  C281     1.0000 0.42490  0.71460  0.41510  Biso   1.000  C
  C282     1.0000 0.47830  0.71800  0.41110  Biso   1.000  C
  C283     1.0000 0.51480  0.71800  0.37300  Biso   1.000  C
  C284     1.0000 0.28370  0.55600  0.32550  Biso   1.000  C
  H187     1.0000 0.27570  0.58710  0.32890  Biso   1.000  H
  C285     1.0000 0.24700  0.52360  0.31580  Biso   1.000  C
  H188     1.0000 0.21620  0.53290  0.31390  Biso   1.000  H
  C286     1.0000 0.25950  0.47950  0.30960  Biso   1.000  C
  H189     1.0000 0.23710  0.45760  0.30200  Biso   1.000  H
  C287     1.0000 0.30210  0.46680  0.31400  Biso   1.000  C
  H190     1.0000 0.30990  0.43560  0.31060  Biso   1.000  H
  C288     1.0000 0.33870  0.50120  0.32440  Biso   1.000  C
  H191     1.0000 0.36940  0.49170  0.32700  Biso   1.000  H
  N24      1.0000 0.32830  0.54470  0.32990  Biso   1.000  N
  O70      1.0000 0.33856  0.63760  0.30164  Biso   1.000  O
  O71      1.0000 0.38010  0.70290  0.30049  Biso   1.000  O
  O72      1.0000 0.41560  0.65279  0.36650  Biso   1.000  O
  H192     1.0000 0.40370  0.67020  0.34740  Biso   1.000  H
  Ni1      1.0000 0.90407  0.65407  0.87500  Biso   1.000  Ni
  Ni2      1.0000 0.59593  0.34593  0.37500  Biso   1.000  Ni
  Ni3      1.0000 0.09593  0.15407  0.62500  Biso   1.000  Ni
  Ni4      1.0000 0.40407  0.84593  0.12500  Biso   1.000  Ni
  Ni5      1.0000 0.87500  0.90407  0.65407  Biso   1.000  Ni
  Ni6      1.0000 0.37500  0.59593  0.34593  Biso   1.000  Ni
  Ni7      1.0000 0.62500  0.09593  0.15407  Biso   1.000  Ni
  Ni8      1.0000 0.12500  0.40407  0.84593  Biso   1.000  Ni
  Ni9      1.0000 0.65407  0.87500  0.90407  Biso   1.000  Ni
  Ni10     1.0000 0.34593  0.37500  0.59593  Biso   1.000  Ni
  Ni11     1.0000 0.15407  0.62500  0.09593  Biso   1.000  Ni
  Ni12     1.0000 0.84593  0.12500  0.40407  Biso   1.000  Ni
  C289     1.0000 0.46500  0.07350  0.40150  Biso   1.000  C
  C290     1.0000 0.50620  0.05890  0.42950  Biso   1.000  C
  C291     1.0000 0.51960  0.08390  0.46780  Biso   1.000  C
  H193     1.0000 0.50260  0.10980  0.47670  Biso   1.000  H
  C292     1.0000 0.33930  0.08340  0.34720  Biso   1.000  C
  H194     1.0000 0.31690  0.10410  0.33200  Biso   1.000  H
  C293     1.0000 0.33490  0.03540  0.32510  Biso   1.000  C
  C294     1.0000 0.33890  0.03200  0.27170  Biso   1.000  C
  C295     1.0000 0.37700  0.03200  0.23520  Biso   1.000  C
  C296     1.0000 0.42450  0.19400  0.46630  Biso   1.000  C
  H195     1.0000 0.42110  0.16290  0.47430  Biso   1.000  H
  C297     1.0000 0.43420  0.22640  0.50300  Biso   1.000  C
  H196     1.0000 0.43610  0.21710  0.53380  Biso   1.000  H
  C298     1.0000 0.44040  0.27050  0.49050  Biso   1.000  C
  H197     1.0000 0.44800  0.29240  0.51290  Biso   1.000  H
  C299     1.0000 0.43600  0.28320  0.44790  Biso   1.000  C
  H198     1.0000 0.43940  0.31440  0.44010  Biso   1.000  H
  C300     1.0000 0.42560  0.24880  0.41130  Biso   1.000  C
  H199     1.0000 0.42300  0.25830  0.38060  Biso   1.000  H
  N25      1.0000 0.42010  0.20530  0.42170  Biso   1.000  N
  O73      1.0000 0.44836  0.11240  0.41144  Biso   1.000  O
  O74      1.0000 0.44951  0.04710  0.36990  Biso   1.000  O
  O75      1.0000 0.38350  0.09721  0.33440  Biso   1.000  O
  H200     1.0000 0.40260  0.07980  0.34630  Biso   1.000  H
  C301     1.0000 0.03500  0.92650  0.90150  Biso   1.000  C
  C302     1.0000 0.99380  0.94110  0.92950  Biso   1.000  C
  C303     1.0000 0.98040  0.91610  0.96780  Biso   1.000  C
  H201     1.0000 0.99740  0.89020  0.97670  Biso   1.000  H
  C304     1.0000 0.16070  0.91660  0.84720  Biso   1.000  C
  H202     1.0000 0.18310  0.89590  0.83200  Biso   1.000  H
  C305     1.0000 0.16510  0.96460  0.82510  Biso   1.000  C
  C306     1.0000 0.16110  0.96800  0.77170  Biso   1.000  C
  C307     1.0000 0.12300  0.96800  0.73520  Biso   1.000  C
  C308     1.0000 0.07550  0.80600  0.96630  Biso   1.000  C
  H203     1.0000 0.07890  0.83710  0.97430  Biso   1.000  H
  C309     1.0000 0.06580  0.77360  0.00300  Biso   1.000  C
  H204     1.0000 0.06390  0.78290  0.03380  Biso   1.000  H
  C310     1.0000 0.05960  0.72950  0.99050  Biso   1.000  C
  H205     1.0000 0.05200  0.70760  0.01290  Biso   1.000  H
  C311     1.0000 0.06400  0.71680  0.94790  Biso   1.000  C
  H206     1.0000 0.06060  0.68560  0.94010  Biso   1.000  H
  C312     1.0000 0.07440  0.75120  0.91130  Biso   1.000  C
  H207     1.0000 0.07700  0.74170  0.88060  Biso   1.000  H
  N26      1.0000 0.07990  0.79470  0.92170  Biso   1.000  N
  O76      1.0000 0.05164  0.88760  0.91144  Biso   1.000  O
  O77      1.0000 0.05049  0.95290  0.86990  Biso   1.000  O
  O78      1.0000 0.11650  0.90279  0.83440  Biso   1.000  O
  H208     1.0000 0.09740  0.92020  0.84630  Biso   1.000  H
  C313     1.0000 0.53500  0.57350  0.09850  Biso   1.000  C
  C314     1.0000 0.49380  0.55890  0.07050  Biso   1.000  C
  C315     1.0000 0.48040  0.58390  0.03220  Biso   1.000  C
  H209     1.0000 0.49740  0.60980  0.02330  Biso   1.000  H
  C316     1.0000 0.66070  0.58340  0.15280  Biso   1.000  C
  H210     1.0000 0.68310  0.60410  0.16800  Biso   1.000  H
  C317     1.0000 0.66510  0.53540  0.17490  Biso   1.000  C
  C318     1.0000 0.66110  0.53200  0.22830  Biso   1.000  C
  C319     1.0000 0.62300  0.53200  0.26480  Biso   1.000  C
  C320     1.0000 0.57550  0.69400  0.03370  Biso   1.000  C
  H211     1.0000 0.57890  0.66290  0.02570  Biso   1.000  H
  C321     1.0000 0.56580  0.72640  0.99700  Biso   1.000  C
  H212     1.0000 0.56390  0.71710  0.96620  Biso   1.000  H
  C322     1.0000 0.55960  0.77050  0.00950  Biso   1.000  C
  H213     1.0000 0.55200  0.79240  0.98710  Biso   1.000  H
  C323     1.0000 0.56400  0.78320  0.05210  Biso   1.000  C
  H214     1.0000 0.56060  0.81440  0.05990  Biso   1.000  H
  C324     1.0000 0.57440  0.74880  0.08870  Biso   1.000  C
  H215     1.0000 0.57700  0.75830  0.11940  Biso   1.000  H
  N27      1.0000 0.57990  0.70530  0.07830  Biso   1.000  N
  O79      1.0000 0.55164  0.61240  0.08856  Biso   1.000  O
  O80      1.0000 0.55049  0.54710  0.13010  Biso   1.000  O
  O81      1.0000 0.61650  0.59721  0.16560  Biso   1.000  O
  H216     1.0000 0.59740  0.57980  0.15370  Biso   1.000  H
  C325     1.0000 0.96500  0.42650  0.59850  Biso   1.000  C
  C326     1.0000 0.00620  0.44110  0.57050  Biso   1.000  C
  C327     1.0000 0.01960  0.41610  0.53220  Biso   1.000  C
  H217     1.0000 0.00260  0.39020  0.52330  Biso   1.000  H
  C328     1.0000 0.83930  0.41660  0.65280  Biso   1.000  C
  H218     1.0000 0.81690  0.39590  0.66800  Biso   1.000  H
  C329     1.0000 0.83490  0.46460  0.67490  Biso   1.000  C
  C330     1.0000 0.83890  0.46800  0.72830  Biso   1.000  C
  C331     1.0000 0.87700  0.46800  0.76480  Biso   1.000  C
  C332     1.0000 0.92450  0.30600  0.53370  Biso   1.000  C
  H219     1.0000 0.92110  0.33710  0.52570  Biso   1.000  H
  C333     1.0000 0.93420  0.27360  0.49700  Biso   1.000  C
  H220     1.0000 0.93610  0.28290  0.46620  Biso   1.000  H
  C334     1.0000 0.94040  0.22950  0.50950  Biso   1.000  C
  H221     1.0000 0.94800  0.20760  0.48710  Biso   1.000  H
  C335     1.0000 0.93600  0.21680  0.55210  Biso   1.000  C
  H222     1.0000 0.93940  0.18560  0.55990  Biso   1.000  H
  C336     1.0000 0.92560  0.25120  0.58870  Biso   1.000  C
  H223     1.0000 0.92300  0.24170  0.61940  Biso   1.000  H
  N28      1.0000 0.92010  0.29470  0.57830  Biso   1.000  N
  O82      1.0000 0.94836  0.38760  0.58856  Biso   1.000  O
  O83      1.0000 0.94951  0.45290  0.63010  Biso   1.000  O
  O84      1.0000 0.88350  0.40279  0.66560  Biso   1.000  O
  H224     1.0000 0.90260  0.42020  0.65370  Biso   1.000  H
  C337     1.0000 0.40150  0.46500  0.07350  Biso   1.000  C
  C338     1.0000 0.42950  0.50620  0.05890  Biso   1.000  C
  C339     1.0000 0.46780  0.51960  0.08390  Biso   1.000  C
  H225     1.0000 0.47670  0.50260  0.10980  Biso   1.000  H
  C340     1.0000 0.34720  0.33930  0.08340  Biso   1.000  C
  H226     1.0000 0.33200  0.31690  0.10410  Biso   1.000  H
  C341     1.0000 0.32510  0.33490  0.03540  Biso   1.000  C
  C342     1.0000 0.27170  0.33890  0.03200  Biso   1.000  C
  C343     1.0000 0.23520  0.37700  0.03200  Biso   1.000  C
  C344     1.0000 0.46630  0.42450  0.19400  Biso   1.000  C
  H227     1.0000 0.47430  0.42110  0.16290  Biso   1.000  H
  C345     1.0000 0.50300  0.43420  0.22640  Biso   1.000  C
  H228     1.0000 0.53380  0.43610  0.21710  Biso   1.000  H
  C346     1.0000 0.49050  0.44040  0.27050  Biso   1.000  C
  H229     1.0000 0.51290  0.44800  0.29240  Biso   1.000  H
  C347     1.0000 0.44790  0.43600  0.28320  Biso   1.000  C
  H230     1.0000 0.44010  0.43940  0.31440  Biso   1.000  H
  C348     1.0000 0.41130  0.42560  0.24880  Biso   1.000  C
  H231     1.0000 0.38060  0.42300  0.25830  Biso   1.000  H
  N29      1.0000 0.42170  0.42010  0.20530  Biso   1.000  N
  O85      1.0000 0.41144  0.44836  0.11240  Biso   1.000  O
  O86      1.0000 0.36990  0.44951  0.04710  Biso   1.000  O
  O87      1.0000 0.33440  0.38350  0.09721  Biso   1.000  O
  H232     1.0000 0.34630  0.40260  0.07980  Biso   1.000  H
  C349     1.0000 0.90150  0.03500  0.92650  Biso   1.000  C
  C350     1.0000 0.92950  0.99380  0.94110  Biso   1.000  C
  C351     1.0000 0.96780  0.98040  0.91610  Biso   1.000  C
  H233     1.0000 0.97670  0.99740  0.89020  Biso   1.000  H
  C352     1.0000 0.84720  0.16070  0.91660  Biso   1.000  C
  H234     1.0000 0.83200  0.18310  0.89590  Biso   1.000  H
  C353     1.0000 0.82510  0.16510  0.96460  Biso   1.000  C
  C354     1.0000 0.77170  0.16110  0.96800  Biso   1.000  C
  C355     1.0000 0.73520  0.12300  0.96800  Biso   1.000  C
  C356     1.0000 0.96630  0.07550  0.80600  Biso   1.000  C
  H235     1.0000 0.97430  0.07890  0.83710  Biso   1.000  H
  C357     1.0000 0.00300  0.06580  0.77360  Biso   1.000  C
  H236     1.0000 0.03380  0.06390  0.78290  Biso   1.000  H
  C358     1.0000 0.99050  0.05960  0.72950  Biso   1.000  C
  H237     1.0000 0.01290  0.05200  0.70760  Biso   1.000  H
  C359     1.0000 0.94790  0.06400  0.71680  Biso   1.000  C
  H238     1.0000 0.94010  0.06060  0.68560  Biso   1.000  H
  C360     1.0000 0.91130  0.07440  0.75120  Biso   1.000  C
  H239     1.0000 0.88060  0.07700  0.74170  Biso   1.000  H
  N30      1.0000 0.92170  0.07990  0.79470  Biso   1.000  N
  O88      1.0000 0.91144  0.05164  0.88760  Biso   1.000  O
  O89      1.0000 0.86990  0.05049  0.95290  Biso   1.000  O
  O90      1.0000 0.83440  0.11650  0.90279  Biso   1.000  O
  H240     1.0000 0.84630  0.09740  0.92020  Biso   1.000  H
  C361     1.0000 0.09850  0.53500  0.57350  Biso   1.000  C
  C362     1.0000 0.07050  0.49380  0.55890  Biso   1.000  C
  C363     1.0000 0.03220  0.48040  0.58390  Biso   1.000  C
  H241     1.0000 0.02330  0.49740  0.60980  Biso   1.000  H
  C364     1.0000 0.15280  0.66070  0.58340  Biso   1.000  C
  H242     1.0000 0.16800  0.68310  0.60410  Biso   1.000  H
  C365     1.0000 0.17490  0.66510  0.53540  Biso   1.000  C
  C366     1.0000 0.22830  0.66110  0.53200  Biso   1.000  C
  C367     1.0000 0.26480  0.62300  0.53200  Biso   1.000  C
  C368     1.0000 0.03370  0.57550  0.69400  Biso   1.000  C
  H243     1.0000 0.02570  0.57890  0.66290  Biso   1.000  H
  C369     1.0000 0.99700  0.56580  0.72640  Biso   1.000  C
  H244     1.0000 0.96620  0.56390  0.71710  Biso   1.000  H
  C370     1.0000 0.00950  0.55960  0.77050  Biso   1.000  C
  H245     1.0000 0.98710  0.55200  0.79240  Biso   1.000  H
  C371     1.0000 0.05210  0.56400  0.78320  Biso   1.000  C
  H246     1.0000 0.05990  0.56060  0.81440  Biso   1.000  H
  C372     1.0000 0.08870  0.57440  0.74880  Biso   1.000  C
  H247     1.0000 0.11940  0.57700  0.75830  Biso   1.000  H
  N31      1.0000 0.07830  0.57990  0.70530  Biso   1.000  N
  O91      1.0000 0.08856  0.55164  0.61240  Biso   1.000  O
  O92      1.0000 0.13010  0.55049  0.54710  Biso   1.000  O
  O93      1.0000 0.16560  0.61650  0.59721  Biso   1.000  O
  H248     1.0000 0.15370  0.59740  0.57980  Biso   1.000  H
  C373     1.0000 0.59850  0.96500  0.42650  Biso   1.000  C
  C374     1.0000 0.57050  0.00620  0.44110  Biso   1.000  C
  C375     1.0000 0.53220  0.01960  0.41610  Biso   1.000  C
  H249     1.0000 0.52330  0.00260  0.39020  Biso   1.000  H
  C376     1.0000 0.65280  0.83930  0.41660  Biso   1.000  C
  H250     1.0000 0.66800  0.81690  0.39590  Biso   1.000  H
  C377     1.0000 0.67490  0.83490  0.46460  Biso   1.000  C
  C378     1.0000 0.72830  0.83890  0.46800  Biso   1.000  C
  C379     1.0000 0.76480  0.87700  0.46800  Biso   1.000  C
  C380     1.0000 0.53370  0.92450  0.30600  Biso   1.000  C
  H251     1.0000 0.52570  0.92110  0.33710  Biso   1.000  H
  C381     1.0000 0.49700  0.93420  0.27360  Biso   1.000  C
  H252     1.0000 0.46620  0.93610  0.28290  Biso   1.000  H
  C382     1.0000 0.50950  0.94040  0.22950  Biso   1.000  C
  H253     1.0000 0.48710  0.94800  0.20760  Biso   1.000  H
  C383     1.0000 0.55210  0.93600  0.21680  Biso   1.000  C
  H254     1.0000 0.55990  0.93940  0.18560  Biso   1.000  H
  C384     1.0000 0.58870  0.92560  0.25120  Biso   1.000  C
  H255     1.0000 0.61940  0.92300  0.24170  Biso   1.000  H
  N32      1.0000 0.57830  0.92010  0.29470  Biso   1.000  N
  O94      1.0000 0.58856  0.94836  0.38760  Biso   1.000  O
  O95      1.0000 0.63010  0.94951  0.45290  Biso   1.000  O
  O96      1.0000 0.66560  0.88350  0.40279  Biso   1.000  O
  H256     1.0000 0.65370  0.90260  0.42020  Biso   1.000  H
  C385     1.0000 0.07350  0.40150  0.46500  Biso   1.000  C
  C386     1.0000 0.05890  0.42950  0.50620  Biso   1.000  C
  C387     1.0000 0.08390  0.46780  0.51960  Biso   1.000  C
  H257     1.0000 0.10980  0.47670  0.50260  Biso   1.000  H
  C388     1.0000 0.08340  0.34720  0.33930  Biso   1.000  C
  H258     1.0000 0.10410  0.33200  0.31690  Biso   1.000  H
  C389     1.0000 0.03540  0.32510  0.33490  Biso   1.000  C
  C390     1.0000 0.03200  0.27170  0.33890  Biso   1.000  C
  C391     1.0000 0.03200  0.23520  0.37700  Biso   1.000  C
  C392     1.0000 0.19400  0.46630  0.42450  Biso   1.000  C
  H259     1.0000 0.16290  0.47430  0.42110  Biso   1.000  H
  C393     1.0000 0.22640  0.50300  0.43420  Biso   1.000  C
  H260     1.0000 0.21710  0.53380  0.43610  Biso   1.000  H
  C394     1.0000 0.27050  0.49050  0.44040  Biso   1.000  C
  H261     1.0000 0.29240  0.51290  0.44800  Biso   1.000  H
  C395     1.0000 0.28320  0.44790  0.43600  Biso   1.000  C
  H262     1.0000 0.31440  0.44010  0.43940  Biso   1.000  H
  C396     1.0000 0.24880  0.41130  0.42560  Biso   1.000  C
  H263     1.0000 0.25830  0.38060  0.42300  Biso   1.000  H
  N33      1.0000 0.20530  0.42170  0.42010  Biso   1.000  N
  O97      1.0000 0.11240  0.41144  0.44836  Biso   1.000  O
  O98      1.0000 0.04710  0.36990  0.44951  Biso   1.000  O
  O99      1.0000 0.09721  0.33440  0.38350  Biso   1.000  O
  H264     1.0000 0.07980  0.34630  0.40260  Biso   1.000  H
  C397     1.0000 0.92650  0.90150  0.03500  Biso   1.000  C
  C398     1.0000 0.94110  0.92950  0.99380  Biso   1.000  C
  C399     1.0000 0.91610  0.96780  0.98040  Biso   1.000  C
  H265     1.0000 0.89020  0.97670  0.99740  Biso   1.000  H
  C400     1.0000 0.91660  0.84720  0.16070  Biso   1.000  C
  H266     1.0000 0.89590  0.83200  0.18310  Biso   1.000  H
  C401     1.0000 0.96460  0.82510  0.16510  Biso   1.000  C
  C402     1.0000 0.96800  0.77170  0.16110  Biso   1.000  C
  C403     1.0000 0.96800  0.73520  0.12300  Biso   1.000  C
  C404     1.0000 0.80600  0.96630  0.07550  Biso   1.000  C
  H267     1.0000 0.83710  0.97430  0.07890  Biso   1.000  H
  C405     1.0000 0.77360  0.00300  0.06580  Biso   1.000  C
  H268     1.0000 0.78290  0.03380  0.06390  Biso   1.000  H
  C406     1.0000 0.72950  0.99050  0.05960  Biso   1.000  C
  H269     1.0000 0.70760  0.01290  0.05200  Biso   1.000  H
  C407     1.0000 0.71680  0.94790  0.06400  Biso   1.000  C
  H270     1.0000 0.68560  0.94010  0.06060  Biso   1.000  H
  C408     1.0000 0.75120  0.91130  0.07440  Biso   1.000  C
  H271     1.0000 0.74170  0.88060  0.07700  Biso   1.000  H
  N34      1.0000 0.79470  0.92170  0.07990  Biso   1.000  N
  O100     1.0000 0.88760  0.91144  0.05164  Biso   1.000  O
  O101     1.0000 0.95290  0.86990  0.05049  Biso   1.000  O
  O102     1.0000 0.90279  0.83440  0.11650  Biso   1.000  O
  H272     1.0000 0.92020  0.84630  0.09740  Biso   1.000  H
  C409     1.0000 0.57350  0.09850  0.53500  Biso   1.000  C
  C410     1.0000 0.55890  0.07050  0.49380  Biso   1.000  C
  C411     1.0000 0.58390  0.03220  0.48040  Biso   1.000  C
  H273     1.0000 0.60980  0.02330  0.49740  Biso   1.000  H
  C412     1.0000 0.58340  0.15280  0.66070  Biso   1.000  C
  H274     1.0000 0.60410  0.16800  0.68310  Biso   1.000  H
  C413     1.0000 0.53540  0.17490  0.66510  Biso   1.000  C
  C414     1.0000 0.53200  0.22830  0.66110  Biso   1.000  C
  C415     1.0000 0.53200  0.26480  0.62300  Biso   1.000  C
  C416     1.0000 0.69400  0.03370  0.57550  Biso   1.000  C
  H275     1.0000 0.66290  0.02570  0.57890  Biso   1.000  H
  C417     1.0000 0.72640  0.99700  0.56580  Biso   1.000  C
  H276     1.0000 0.71710  0.96620  0.56390  Biso   1.000  H
  C418     1.0000 0.77050  0.00950  0.55960  Biso   1.000  C
  H277     1.0000 0.79240  0.98710  0.55200  Biso   1.000  H
  C419     1.0000 0.78320  0.05210  0.56400  Biso   1.000  C
  H278     1.0000 0.81440  0.05990  0.56060  Biso   1.000  H
  C420     1.0000 0.74880  0.08870  0.57440  Biso   1.000  C
  H279     1.0000 0.75830  0.11940  0.57700  Biso   1.000  H
  N35      1.0000 0.70530  0.07830  0.57990  Biso   1.000  N
  O103     1.0000 0.61240  0.08856  0.55164  Biso   1.000  O
  O104     1.0000 0.54710  0.13010  0.55049  Biso   1.000  O
  O105     1.0000 0.59721  0.16560  0.61650  Biso   1.000  O
  H280     1.0000 0.57980  0.15370  0.59740  Biso   1.000  H
  C421     1.0000 0.42650  0.59850  0.96500  Biso   1.000  C
  C422     1.0000 0.44110  0.57050  0.00620  Biso   1.000  C
  C423     1.0000 0.41610  0.53220  0.01960  Biso   1.000  C
  H281     1.0000 0.39020  0.52330  0.00260  Biso   1.000  H
  C424     1.0000 0.41660  0.65280  0.83930  Biso   1.000  C
  H282     1.0000 0.39590  0.66800  0.81690  Biso   1.000  H
  C425     1.0000 0.46460  0.67490  0.83490  Biso   1.000  C
  C426     1.0000 0.46800  0.72830  0.83890  Biso   1.000  C
  C427     1.0000 0.46800  0.76480  0.87700  Biso   1.000  C
  C428     1.0000 0.30600  0.53370  0.92450  Biso   1.000  C
  H283     1.0000 0.33710  0.52570  0.92110  Biso   1.000  H
  C429     1.0000 0.27360  0.49700  0.93420  Biso   1.000  C
  H284     1.0000 0.28290  0.46620  0.93610  Biso   1.000  H
  C430     1.0000 0.22950  0.50950  0.94040  Biso   1.000  C
  H285     1.0000 0.20760  0.48710  0.94800  Biso   1.000  H
  C431     1.0000 0.21680  0.55210  0.93600  Biso   1.000  C
  H286     1.0000 0.18560  0.55990  0.93940  Biso   1.000  H
  C432     1.0000 0.25120  0.58870  0.92560  Biso   1.000  C
  H287     1.0000 0.24170  0.61940  0.92300  Biso   1.000  H
  N36      1.0000 0.29470  0.57830  0.92010  Biso   1.000  N
  O106     1.0000 0.38760  0.58856  0.94836  Biso   1.000  O
  O107     1.0000 0.45290  0.63010  0.94951  Biso   1.000  O
  O108     1.0000 0.40279  0.66560  0.88350  Biso   1.000  O
  H288     1.0000 0.42020  0.65370  0.90260  Biso   1.000  H
  C433     1.0000 0.32350  0.21500  0.34850  Biso   1.000  C
  C434     1.0000 0.30890  0.25620  0.32050  Biso   1.000  C
  C435     1.0000 0.33390  0.26960  0.28220  Biso   1.000  C
  H289     1.0000 0.35980  0.25260  0.27330  Biso   1.000  H
  C436     1.0000 0.33340  0.08930  0.40280  Biso   1.000  C
  H290     1.0000 0.35410  0.06690  0.41800  Biso   1.000  H
  C437     1.0000 0.28540  0.08490  0.42490  Biso   1.000  C
  C438     1.0000 0.28200  0.08890  0.47830  Biso   1.000  C
  C439     1.0000 0.28200  0.12700  0.51480  Biso   1.000  C
  C440     1.0000 0.44400  0.17450  0.28370  Biso   1.000  C
  H291     1.0000 0.41290  0.17110  0.27570  Biso   1.000  H
  C441     1.0000 0.47640  0.18420  0.24700  Biso   1.000  C
  H292     1.0000 0.46710  0.18610  0.21620  Biso   1.000  H
  C442     1.0000 0.52050  0.19040  0.25950  Biso   1.000  C
  H293     1.0000 0.54240  0.19800  0.23710  Biso   1.000  H
  C443     1.0000 0.53320  0.18600  0.30210  Biso   1.000  C
  H294     1.0000 0.56440  0.18940  0.30990  Biso   1.000  H
  C444     1.0000 0.49880  0.17560  0.33870  Biso   1.000  C
  H295     1.0000 0.50830  0.17300  0.36940  Biso   1.000  H
  N37      1.0000 0.45530  0.17010  0.32830  Biso   1.000  N
  O109     1.0000 0.36240  0.19836  0.33856  Biso   1.000  O
  O110     1.0000 0.29710  0.19951  0.38010  Biso   1.000  O
  O111     1.0000 0.34721  0.13350  0.41560  Biso   1.000  O
  H296     1.0000 0.32980  0.15260  0.40370  Biso   1.000  H
  C445     1.0000 0.17650  0.78500  0.84850  Biso   1.000  C
  C446     1.0000 0.19110  0.74380  0.82050  Biso   1.000  C
  C447     1.0000 0.16610  0.73040  0.78220  Biso   1.000  C
  H297     1.0000 0.14020  0.74740  0.77330  Biso   1.000  H
  C448     1.0000 0.16660  0.91070  0.90280  Biso   1.000  C
  H298     1.0000 0.14590  0.93310  0.91800  Biso   1.000  H
  C449     1.0000 0.21460  0.91510  0.92490  Biso   1.000  C
  C450     1.0000 0.21800  0.91110  0.97830  Biso   1.000  C
  C451     1.0000 0.21800  0.87300  0.01480  Biso   1.000  C
  C452     1.0000 0.05600  0.82550  0.78370  Biso   1.000  C
  H299     1.0000 0.08710  0.82890  0.77570  Biso   1.000  H
  C453     1.0000 0.02360  0.81580  0.74700  Biso   1.000  C
  H300     1.0000 0.03290  0.81390  0.71620  Biso   1.000  H
  C454     1.0000 0.97950  0.80960  0.75950  Biso   1.000  C
  H301     1.0000 0.95760  0.80200  0.73710  Biso   1.000  H
  C455     1.0000 0.96680  0.81400  0.80210  Biso   1.000  C
  H302     1.0000 0.93560  0.81060  0.80990  Biso   1.000  H
  C456     1.0000 0.00120  0.82440  0.83870  Biso   1.000  C
  H303     1.0000 0.99170  0.82700  0.86940  Biso   1.000  H
  N38      1.0000 0.04470  0.82990  0.82830  Biso   1.000  N
  O112     1.0000 0.13760  0.80164  0.83856  Biso   1.000  O
  O113     1.0000 0.20290  0.80049  0.88010  Biso   1.000  O
  O114     1.0000 0.15279  0.86650  0.91560  Biso   1.000  O
  H304     1.0000 0.17020  0.84740  0.90370  Biso   1.000  H
  C457     1.0000 0.82350  0.28500  0.65150  Biso   1.000  C
  C458     1.0000 0.80890  0.24380  0.67950  Biso   1.000  C
  C459     1.0000 0.83390  0.23040  0.71780  Biso   1.000  C
  H305     1.0000 0.85980  0.24740  0.72670  Biso   1.000  H
  C460     1.0000 0.83340  0.41070  0.59720  Biso   1.000  C
  H306     1.0000 0.85410  0.43310  0.58200  Biso   1.000  H
  C461     1.0000 0.78540  0.41510  0.57510  Biso   1.000  C
  C462     1.0000 0.78200  0.41110  0.52170  Biso   1.000  C
  C463     1.0000 0.78200  0.37300  0.48520  Biso   1.000  C
  C464     1.0000 0.94400  0.32550  0.71630  Biso   1.000  C
  H307     1.0000 0.91290  0.32890  0.72430  Biso   1.000  H
  C465     1.0000 0.97640  0.31580  0.75300  Biso   1.000  C
  H308     1.0000 0.96710  0.31390  0.78380  Biso   1.000  H
  C466     1.0000 0.02050  0.30960  0.74050  Biso   1.000  C
  H309     1.0000 0.04240  0.30200  0.76290  Biso   1.000  H
  C467     1.0000 0.03320  0.31400  0.69790  Biso   1.000  C
  H310     1.0000 0.06440  0.31060  0.69010  Biso   1.000  H
  C468     1.0000 0.99880  0.32440  0.66130  Biso   1.000  C
  H311     1.0000 0.00830  0.32700  0.63060  Biso   1.000  H
  N39      1.0000 0.95530  0.32990  0.67170  Biso   1.000  N
  O115     1.0000 0.86240  0.30164  0.66144  Biso   1.000  O
  O116     1.0000 0.79710  0.30049  0.61990  Biso   1.000  O
  O117     1.0000 0.84721  0.36650  0.58440  Biso   1.000  O
  H312     1.0000 0.82980  0.34740  0.59630  Biso   1.000  H
  C469     1.0000 0.67650  0.71500  0.15150  Biso   1.000  C
  C470     1.0000 0.69110  0.75620  0.17950  Biso   1.000  C
  C471     1.0000 0.66610  0.76960  0.21780  Biso   1.000  C
  H313     1.0000 0.64020  0.75260  0.22670  Biso   1.000  H
  C472     1.0000 0.66660  0.58930  0.09720  Biso   1.000  C
  H314     1.0000 0.64590  0.56690  0.08200  Biso   1.000  H
  C473     1.0000 0.71460  0.58490  0.07510  Biso   1.000  C
  C474     1.0000 0.71800  0.58890  0.02170  Biso   1.000  C
  C475     1.0000 0.71800  0.62700  0.98520  Biso   1.000  C
  C476     1.0000 0.55600  0.67450  0.21630  Biso   1.000  C
  H315     1.0000 0.58710  0.67110  0.22430  Biso   1.000  H
  C477     1.0000 0.52360  0.68420  0.25300  Biso   1.000  C
  H316     1.0000 0.53290  0.68610  0.28380  Biso   1.000  H
  C478     1.0000 0.47950  0.69040  0.24050  Biso   1.000  C
  H317     1.0000 0.45760  0.69800  0.26290  Biso   1.000  H
  C479     1.0000 0.46680  0.68600  0.19790  Biso   1.000  C
  H318     1.0000 0.43560  0.68940  0.19010  Biso   1.000  H
  C480     1.0000 0.50120  0.67560  0.16130  Biso   1.000  C
  H319     1.0000 0.49170  0.67300  0.13060  Biso   1.000  H
  N40      1.0000 0.54470  0.67010  0.17170  Biso   1.000  N
  O118     1.0000 0.63760  0.69836  0.16144  Biso   1.000  O
  O119     1.0000 0.70290  0.69951  0.11990  Biso   1.000  O
  O120     1.0000 0.65279  0.63350  0.08440  Biso   1.000  O
  H320     1.0000 0.67020  0.65260  0.09630  Biso   1.000  H
  C481     1.0000 0.71500  0.15150  0.67650  Biso   1.000  C
  C482     1.0000 0.75620  0.17950  0.69110  Biso   1.000  C
  C483     1.0000 0.76960  0.21780  0.66610  Biso   1.000  C
  H321     1.0000 0.75260  0.22670  0.64020  Biso   1.000  H
  C484     1.0000 0.58930  0.09720  0.66660  Biso   1.000  C
  H322     1.0000 0.56690  0.08200  0.64590  Biso   1.000  H
  C485     1.0000 0.58490  0.07510  0.71460  Biso   1.000  C
  C486     1.0000 0.58890  0.02170  0.71800  Biso   1.000  C
  C487     1.0000 0.62700  0.98520  0.71800  Biso   1.000  C
  C488     1.0000 0.67450  0.21630  0.55600  Biso   1.000  C
  H323     1.0000 0.67110  0.22430  0.58710  Biso   1.000  H
  C489     1.0000 0.68420  0.25300  0.52360  Biso   1.000  C
  H324     1.0000 0.68610  0.28380  0.53290  Biso   1.000  H
  C490     1.0000 0.69040  0.24050  0.47950  Biso   1.000  C
  H325     1.0000 0.69800  0.26290  0.45760  Biso   1.000  H
  C491     1.0000 0.68600  0.19790  0.46680  Biso   1.000  C
  H326     1.0000 0.68940  0.19010  0.43560  Biso   1.000  H
  C492     1.0000 0.67560  0.16130  0.50120  Biso   1.000  C
  H327     1.0000 0.67300  0.13060  0.49170  Biso   1.000  H
  N41      1.0000 0.67010  0.17170  0.54470  Biso   1.000  N
  O121     1.0000 0.69836  0.16144  0.63760  Biso   1.000  O
  O122     1.0000 0.69951  0.11990  0.70290  Biso   1.000  O
  O123     1.0000 0.63350  0.08440  0.65279  Biso   1.000  O
  H328     1.0000 0.65260  0.09630  0.67020  Biso   1.000  H
  C493     1.0000 0.28500  0.65150  0.82350  Biso   1.000  C
  C494     1.0000 0.24380  0.67950  0.80890  Biso   1.000  C
  C495     1.0000 0.23040  0.71780  0.83390  Biso   1.000  C
  H329     1.0000 0.24740  0.72670  0.85980  Biso   1.000  H
  C496     1.0000 0.41070  0.59720  0.83340  Biso   1.000  C
  H330     1.0000 0.43310  0.58200  0.85410  Biso   1.000  H
  C497     1.0000 0.41510  0.57510  0.78540  Biso   1.000  C
  C498     1.0000 0.41110  0.52170  0.78200  Biso   1.000  C
  C499     1.0000 0.37300  0.48520  0.78200  Biso   1.000  C
  C500     1.0000 0.32550  0.71630  0.94400  Biso   1.000  C
  H331     1.0000 0.32890  0.72430  0.91290  Biso   1.000  H
  C501     1.0000 0.31580  0.75300  0.97640  Biso   1.000  C
  H332     1.0000 0.31390  0.78380  0.96710  Biso   1.000  H
  C502     1.0000 0.30960  0.74050  0.02050  Biso   1.000  C
  H333     1.0000 0.30200  0.76290  0.04240  Biso   1.000  H
  C503     1.0000 0.31400  0.69790  0.03320  Biso   1.000  C
  H334     1.0000 0.31060  0.69010  0.06440  Biso   1.000  H
  C504     1.0000 0.32440  0.66130  0.99880  Biso   1.000  C
  H335     1.0000 0.32700  0.63060  0.00830  Biso   1.000  H
  N42      1.0000 0.32990  0.67170  0.95530  Biso   1.000  N
  O124     1.0000 0.30164  0.66144  0.86240  Biso   1.000  O
  O125     1.0000 0.30049  0.61990  0.79710  Biso   1.000  O
  O126     1.0000 0.36650  0.58440  0.84721  Biso   1.000  O
  H336     1.0000 0.34740  0.59630  0.82980  Biso   1.000  H
  C505     1.0000 0.78500  0.84850  0.17650  Biso   1.000  C
  C506     1.0000 0.74380  0.82050  0.19110  Biso   1.000  C
  C507     1.0000 0.73040  0.78220  0.16610  Biso   1.000  C
  H337     1.0000 0.74740  0.77330  0.14020  Biso   1.000  H
  C508     1.0000 0.91070  0.90280  0.16660  Biso   1.000  C
  H338     1.0000 0.93310  0.91800  0.14590  Biso   1.000  H
  C509     1.0000 0.91510  0.92490  0.21460  Biso   1.000  C
  C510     1.0000 0.91110  0.97830  0.21800  Biso   1.000  C
  C511     1.0000 0.87300  0.01480  0.21800  Biso   1.000  C
  C512     1.0000 0.82550  0.78370  0.05600  Biso   1.000  C
  H339     1.0000 0.82890  0.77570  0.08710  Biso   1.000  H
  C513     1.0000 0.81580  0.74700  0.02360  Biso   1.000  C
  H340     1.0000 0.81390  0.71620  0.03290  Biso   1.000  H
  C514     1.0000 0.80960  0.75950  0.97950  Biso   1.000  C
  H341     1.0000 0.80200  0.73710  0.95760  Biso   1.000  H
  C515     1.0000 0.81400  0.80210  0.96680  Biso   1.000  C
  H342     1.0000 0.81060  0.80990  0.93560  Biso   1.000  H
  C516     1.0000 0.82440  0.83870  0.00120  Biso   1.000  C
  H343     1.0000 0.82700  0.86940  0.99170  Biso   1.000  H
  N43      1.0000 0.82990  0.82830  0.04470  Biso   1.000  N
  O127     1.0000 0.80164  0.83856  0.13760  Biso   1.000  O
  O128     1.0000 0.80049  0.88010  0.20290  Biso   1.000  O
  O129     1.0000 0.86650  0.91560  0.15279  Biso   1.000  O
  H344     1.0000 0.84740  0.90370  0.17020  Biso   1.000  H
  C517     1.0000 0.21500  0.34850  0.32350  Biso   1.000  C
  C518     1.0000 0.25620  0.32050  0.30890  Biso   1.000  C
  C519     1.0000 0.26960  0.28220  0.33390  Biso   1.000  C
  H345     1.0000 0.25260  0.27330  0.35980  Biso   1.000  H
  C520     1.0000 0.08930  0.40280  0.33340  Biso   1.000  C
  H346     1.0000 0.06690  0.41800  0.35410  Biso   1.000  H
  C521     1.0000 0.08490  0.42490  0.28540  Biso   1.000  C
  C522     1.0000 0.08890  0.47830  0.28200  Biso   1.000  C
  C523     1.0000 0.12700  0.51480  0.28200  Biso   1.000  C
  C524     1.0000 0.17450  0.28370  0.44400  Biso   1.000  C
  H347     1.0000 0.17110  0.27570  0.41290  Biso   1.000  H
  C525     1.0000 0.18420  0.24700  0.47640  Biso   1.000  C
  H348     1.0000 0.18610  0.21620  0.46710  Biso   1.000  H
  C526     1.0000 0.19040  0.25950  0.52050  Biso   1.000  C
  H349     1.0000 0.19800  0.23710  0.54240  Biso   1.000  H
  C527     1.0000 0.18600  0.30210  0.53320  Biso   1.000  C
  H350     1.0000 0.18940  0.30990  0.56440  Biso   1.000  H
  C528     1.0000 0.17560  0.33870  0.49880  Biso   1.000  C
  H351     1.0000 0.17300  0.36940  0.50830  Biso   1.000  H
  N44      1.0000 0.17010  0.32830  0.45530  Biso   1.000  N
  O130     1.0000 0.19836  0.33856  0.36240  Biso   1.000  O
  O131     1.0000 0.19951  0.38010  0.29710  Biso   1.000  O
  O132     1.0000 0.13350  0.41560  0.34721  Biso   1.000  O
  H352     1.0000 0.15260  0.40370  0.32980  Biso   1.000  H
  C529     1.0000 0.65150  0.82350  0.28500  Biso   1.000  C
  C530     1.0000 0.67950  0.80890  0.24380  Biso   1.000  C
  C531     1.0000 0.71780  0.83390  0.23040  Biso   1.000  C
  H353     1.0000 0.72670  0.85980  0.24740  Biso   1.000  H
  C532     1.0000 0.59720  0.83340  0.41070  Biso   1.000  C
  H354     1.0000 0.58200  0.85410  0.43310  Biso   1.000  H
  C533     1.0000 0.57510  0.78540  0.41510  Biso   1.000  C
  C534     1.0000 0.52170  0.78200  0.41110  Biso   1.000  C
  C535     1.0000 0.48520  0.78200  0.37300  Biso   1.000  C
  C536     1.0000 0.71630  0.94400  0.32550  Biso   1.000  C
  H355     1.0000 0.72430  0.91290  0.32890  Biso   1.000  H
  C537     1.0000 0.75300  0.97640  0.31580  Biso   1.000  C
  H356     1.0000 0.78380  0.96710  0.31390  Biso   1.000  H
  C538     1.0000 0.74050  0.02050  0.30960  Biso   1.000  C
  H357     1.0000 0.76290  0.04240  0.30200  Biso   1.000  H
  C539     1.0000 0.69790  0.03320  0.31400  Biso   1.000  C
  H358     1.0000 0.69010  0.06440  0.31060  Biso   1.000  H
  C540     1.0000 0.66130  0.99880  0.32440  Biso   1.000  C
  H359     1.0000 0.63060  0.00830  0.32700  Biso   1.000  H
  N45      1.0000 0.67170  0.95530  0.32990  Biso   1.000  N
  O133     1.0000 0.66144  0.86240  0.30164  Biso   1.000  O
  O134     1.0000 0.61990  0.79710  0.30049  Biso   1.000  O
  O135     1.0000 0.58440  0.84721  0.36650  Biso   1.000  O
  H360     1.0000 0.59630  0.82980  0.34740  Biso   1.000  H
  C541     1.0000 0.15150  0.67650  0.71500  Biso   1.000  C
  C542     1.0000 0.17950  0.69110  0.75620  Biso   1.000  C
  C543     1.0000 0.21780  0.66610  0.76960  Biso   1.000  C
  H361     1.0000 0.22670  0.64020  0.75260  Biso   1.000  H
  C544     1.0000 0.09720  0.66660  0.58930  Biso   1.000  C
  H362     1.0000 0.08200  0.64590  0.56690  Biso   1.000  H
  C545     1.0000 0.07510  0.71460  0.58490  Biso   1.000  C
  C546     1.0000 0.02170  0.71800  0.58890  Biso   1.000  C
  C547     1.0000 0.98520  0.71800  0.62700  Biso   1.000  C
  C548     1.0000 0.21630  0.55600  0.67450  Biso   1.000  C
  H363     1.0000 0.22430  0.58710  0.67110  Biso   1.000  H
  C549     1.0000 0.25300  0.52360  0.68420  Biso   1.000  C
  H364     1.0000 0.28380  0.53290  0.68610  Biso   1.000  H
  C550     1.0000 0.24050  0.47950  0.69040  Biso   1.000  C
  H365     1.0000 0.26290  0.45760  0.69800  Biso   1.000  H
  C551     1.0000 0.19790  0.46680  0.68600  Biso   1.000  C
  H366     1.0000 0.19010  0.43560  0.68940  Biso   1.000  H
  C552     1.0000 0.16130  0.50120  0.67560  Biso   1.000  C
  H367     1.0000 0.13060  0.49170  0.67300  Biso   1.000  H
  N46      1.0000 0.17170  0.54470  0.67010  Biso   1.000  N
  O136     1.0000 0.16144  0.63760  0.69836  Biso   1.000  O
  O137     1.0000 0.11990  0.70290  0.69951  Biso   1.000  O
  O138     1.0000 0.08440  0.65279  0.63350  Biso   1.000  O
  H368     1.0000 0.09630  0.67020  0.65260  Biso   1.000  H
  C553     1.0000 0.34850  0.32350  0.21500  Biso   1.000  C
  C554     1.0000 0.32050  0.30890  0.25620  Biso   1.000  C
  C555     1.0000 0.28220  0.33390  0.26960  Biso   1.000  C
  H369     1.0000 0.27330  0.35980  0.25260  Biso   1.000  H
  C556     1.0000 0.40280  0.33340  0.08930  Biso   1.000  C
  H370     1.0000 0.41800  0.35410  0.06690  Biso   1.000  H
  C557     1.0000 0.42490  0.28540  0.08490  Biso   1.000  C
  C558     1.0000 0.47830  0.28200  0.08890  Biso   1.000  C
  C559     1.0000 0.51480  0.28200  0.12700  Biso   1.000  C
  C560     1.0000 0.28370  0.44400  0.17450  Biso   1.000  C
  H371     1.0000 0.27570  0.41290  0.17110  Biso   1.000  H
  C561     1.0000 0.24700  0.47640  0.18420  Biso   1.000  C
  H372     1.0000 0.21620  0.46710  0.18610  Biso   1.000  H
  C562     1.0000 0.25950  0.52050  0.19040  Biso   1.000  C
  H373     1.0000 0.23710  0.54240  0.19800  Biso   1.000  H
  C563     1.0000 0.30210  0.53320  0.18600  Biso   1.000  C
  H374     1.0000 0.30990  0.56440  0.18940  Biso   1.000  H
  C564     1.0000 0.33870  0.49880  0.17560  Biso   1.000  C
  H375     1.0000 0.36940  0.50830  0.17300  Biso   1.000  H
  N47      1.0000 0.32830  0.45530  0.17010  Biso   1.000  N
  O139     1.0000 0.33856  0.36240  0.19836  Biso   1.000  O
  O140     1.0000 0.38010  0.29710  0.19951  Biso   1.000  O
  O141     1.0000 0.41560  0.34721  0.13350  Biso   1.000  O
  H376     1.0000 0.40370  0.32980  0.15260  Biso   1.000  H
  C565     1.0000 0.84850  0.17650  0.78500  Biso   1.000  C
  C566     1.0000 0.82050  0.19110  0.74380  Biso   1.000  C
  C567     1.0000 0.78220  0.16610  0.73040  Biso   1.000  C
  H377     1.0000 0.77330  0.14020  0.74740  Biso   1.000  H
  C568     1.0000 0.90280  0.16660  0.91070  Biso   1.000  C
  H378     1.0000 0.91800  0.14590  0.93310  Biso   1.000  H
  C569     1.0000 0.92490  0.21460  0.91510  Biso   1.000  C
  C570     1.0000 0.97830  0.21800  0.91110  Biso   1.000  C
  C571     1.0000 0.01480  0.21800  0.87300  Biso   1.000  C
  C572     1.0000 0.78370  0.05600  0.82550  Biso   1.000  C
  H379     1.0000 0.77570  0.08710  0.82890  Biso   1.000  H
  C573     1.0000 0.74700  0.02360  0.81580  Biso   1.000  C
  H380     1.0000 0.71620  0.03290  0.81390  Biso   1.000  H
  C574     1.0000 0.75950  0.97950  0.80960  Biso   1.000  C
  H381     1.0000 0.73710  0.95760  0.80200  Biso   1.000  H
  C575     1.0000 0.80210  0.96680  0.81400  Biso   1.000  C
  H382     1.0000 0.80990  0.93560  0.81060  Biso   1.000  H
  C576     1.0000 0.83870  0.00120  0.82440  Biso   1.000  C
  H383     1.0000 0.86940  0.99170  0.82700  Biso   1.000  H
  N48      1.0000 0.82830  0.04470  0.82990  Biso   1.000  N
  O142     1.0000 0.83856  0.13760  0.80164  Biso   1.000  O
  O143     1.0000 0.88010  0.20290  0.80049  Biso   1.000  O
  O144     1.0000 0.91560  0.15279  0.86650  Biso   1.000  O
  H384     1.0000 0.90370  0.17020  0.84740  Biso   1.000  H
  Ni13     1.0000 0.40407  0.15407  0.37500  Biso   1.000  Ni
  Ni14     1.0000 0.09593  0.84593  0.87500  Biso   1.000  Ni
  Ni15     1.0000 0.90407  0.34593  0.62500  Biso   1.000  Ni
  Ni16     1.0000 0.59593  0.65407  0.12500  Biso   1.000  Ni
  Ni17     1.0000 0.65407  0.12500  0.59593  Biso   1.000  Ni
  Ni18     1.0000 0.34593  0.62500  0.90407  Biso   1.000  Ni
  Ni19     1.0000 0.84593  0.87500  0.09593  Biso   1.000  Ni
  Ni20     1.0000 0.15407  0.37500  0.40407  Biso   1.000  Ni
  Ni21     1.0000 0.62500  0.90407  0.34593  Biso   1.000  Ni
  Ni22     1.0000 0.12500  0.59593  0.65407  Biso   1.000  Ni
  Ni23     1.0000 0.37500  0.40407  0.15407  Biso   1.000  Ni
  Ni24     1.0000 0.87500  0.09593  0.84593  Biso   1.000  Ni
