data_image0
_cell_length_a       28.4
_cell_length_b       28.4
_cell_length_c       28.4
_cell_angle_alpha    90
_cell_angle_beta     90
_cell_angle_gamma    90

_symmetry_space_group_name_H-M    "P 1"
_symmetry_int_tables_number       1

loop_
  _symmetry_equiv_pos_as_xyz
  'x, y, z'

loop_
  _atom_site_label
  _atom_site_occupancy
  _atom_site_fract_x
  _atom_site_fract_y
  _atom_site_fract_z
  _atom_site_thermal_displace_type
  _atom_site_B_iso_or_equiv
  _atom_site_type_symbol
  C1       1.0000 0.46250  0.93060  0.09890  Biso   1.000  C
  C2       1.0000 0.50430  0.94450  0.06950  Biso   1.000  C
  C3       1.0000 0.51678  0.91789  0.03078  Biso   1.000  C
  H1       1.0000 0.49880  0.89100  0.02240  Biso   1.000  H
  C4       1.0000 0.33350  0.92450  0.15220  Biso   1.000  C
  C5       1.0000 0.29660  0.90600  0.18040  Biso   1.000  C
  H2       1.0000 0.29090  0.87310  0.17170  Biso   1.000  H
  H3       1.0000 0.26790  0.92440  0.17530  Biso   1.000  H
  H4       1.0000 0.30560  0.90770  0.21360  Biso   1.000  H
  C6       1.0000 0.32650  0.96800  0.17760  Biso   1.000  C
  H5       1.0000 0.34930  0.99150  0.16670  Biso   1.000  H
  H6       1.0000 0.33090  0.96250  0.21130  Biso   1.000  H
  H7       1.0000 0.29450  0.97960  0.17190  Biso   1.000  H
  C7       1.0000 0.42200  0.75310  0.08940  Biso   1.000  C
  H8       1.0000 0.41780  0.74450  0.12150  Biso   1.000  H
  C8       1.0000 0.43380  0.71980  0.05780  Biso   1.000  C
  H9       1.0000 0.43850  0.68860  0.06890  Biso   1.000  H
  C9       1.0000 0.43910  0.72750  0.01480  Biso   1.000  C
  H10      1.0000 0.44650  0.70290  0.99330  Biso   1.000  H
  C10      1.0000 0.43360  0.77350  0.00010  Biso   1.000  C
  H11      1.0000 0.43780  0.78110  0.96770  Biso   1.000  H
  C11      1.0000 0.42210  0.80870  0.03150  Biso   1.000  C
  H12      1.0000 0.41860  0.84030  0.02090  Biso   1.000  H
  N1       1.0000 0.41613  0.79813  0.07650  Biso   1.000  N
  O1       1.0000 0.44338  0.89196  0.08802  Biso   1.000  O
  O2       1.0000 0.44844  0.95751  0.13087  Biso   1.000  O
  O3       1.0000 0.37847  0.90876  0.16664  Biso   1.000  O
  H13      1.0000 0.39920  0.92060  0.14910  Biso   1.000  H
  C12      1.0000 0.03750  0.06940  0.59890  Biso   1.000  C
  C13      1.0000 0.99570  0.05550  0.56950  Biso   1.000  C
  C14      1.0000 0.98322  0.08211  0.53078  Biso   1.000  C
  H14      1.0000 0.00120  0.10900  0.52240  Biso   1.000  H
  C15      1.0000 0.16650  0.07550  0.65220  Biso   1.000  C
  C16      1.0000 0.20340  0.09400  0.68040  Biso   1.000  C
  H15      1.0000 0.20910  0.12690  0.67170  Biso   1.000  H
  H16      1.0000 0.23210  0.07560  0.67530  Biso   1.000  H
  H17      1.0000 0.19440  0.09230  0.71360  Biso   1.000  H
  C17      1.0000 0.17350  0.03200  0.67760  Biso   1.000  C
  H18      1.0000 0.15070  0.00850  0.66670  Biso   1.000  H
  H19      1.0000 0.16910  0.03750  0.71130  Biso   1.000  H
  H20      1.0000 0.20550  0.02040  0.67190  Biso   1.000  H
  C18      1.0000 0.07800  0.24690  0.58940  Biso   1.000  C
  H21      1.0000 0.08220  0.25550  0.62150  Biso   1.000  H
  C19      1.0000 0.06620  0.28020  0.55780  Biso   1.000  C
  H22      1.0000 0.06150  0.31140  0.56890  Biso   1.000  H
  C20      1.0000 0.06090  0.27250  0.51480  Biso   1.000  C
  H23      1.0000 0.05350  0.29710  0.49330  Biso   1.000  H
  C21      1.0000 0.06640  0.22650  0.50010  Biso   1.000  C
  H24      1.0000 0.06220  0.21890  0.46770  Biso   1.000  H
  C22      1.0000 0.07790  0.19130  0.53150  Biso   1.000  C
  H25      1.0000 0.08140  0.15970  0.52090  Biso   1.000  H
  N2       1.0000 0.08387  0.20187  0.57650  Biso   1.000  N
  O4       1.0000 0.05662  0.10804  0.58802  Biso   1.000  O
  O5       1.0000 0.05156  0.04249  0.63087  Biso   1.000  O
  O6       1.0000 0.12153  0.09124  0.66664  Biso   1.000  O
  H26      1.0000 0.10080  0.07940  0.64910  Biso   1.000  H
  C23      1.0000 0.53750  0.43060  0.40110  Biso   1.000  C
  C24      1.0000 0.49570  0.44450  0.43050  Biso   1.000  C
  C25      1.0000 0.48322  0.41789  0.46922  Biso   1.000  C
  H27      1.0000 0.50120  0.39100  0.47760  Biso   1.000  H
  C26      1.0000 0.66650  0.42450  0.34780  Biso   1.000  C
  C27      1.0000 0.70340  0.40600  0.31960  Biso   1.000  C
  H28      1.0000 0.70910  0.37310  0.32830  Biso   1.000  H
  H29      1.0000 0.73210  0.42440  0.32470  Biso   1.000  H
  H30      1.0000 0.69440  0.40770  0.28640  Biso   1.000  H
  C28      1.0000 0.67350  0.46800  0.32240  Biso   1.000  C
  H31      1.0000 0.65070  0.49150  0.33330  Biso   1.000  H
  H32      1.0000 0.66910  0.46250  0.28870  Biso   1.000  H
  H33      1.0000 0.70550  0.47960  0.32810  Biso   1.000  H
  C29      1.0000 0.57800  0.25310  0.41060  Biso   1.000  C
  H34      1.0000 0.58220  0.24450  0.37850  Biso   1.000  H
  C30      1.0000 0.56620  0.21980  0.44220  Biso   1.000  C
  H35      1.0000 0.56150  0.18860  0.43110  Biso   1.000  H
  C31      1.0000 0.56090  0.22750  0.48520  Biso   1.000  C
  H36      1.0000 0.55350  0.20290  0.50670  Biso   1.000  H
  C32      1.0000 0.56640  0.27350  0.49990  Biso   1.000  C
  H37      1.0000 0.56220  0.28110  0.53230  Biso   1.000  H
  C33      1.0000 0.57790  0.30870  0.46850  Biso   1.000  C
  H38      1.0000 0.58140  0.34030  0.47910  Biso   1.000  H
  N3       1.0000 0.58387  0.29813  0.42350  Biso   1.000  N
  O7       1.0000 0.55662  0.39196  0.41198  Biso   1.000  O
  O8       1.0000 0.55156  0.45751  0.36913  Biso   1.000  O
  O9       1.0000 0.62153  0.40876  0.33336  Biso   1.000  O
  H39      1.0000 0.60080  0.42060  0.35090  Biso   1.000  H
  C34      1.0000 0.96250  0.56940  0.90110  Biso   1.000  C
  C35      1.0000 0.00430  0.55550  0.93050  Biso   1.000  C
  C36      1.0000 0.01678  0.58211  0.96922  Biso   1.000  C
  H40      1.0000 0.99880  0.60900  0.97760  Biso   1.000  H
  C37      1.0000 0.83350  0.57550  0.84780  Biso   1.000  C
  C38      1.0000 0.79660  0.59400  0.81960  Biso   1.000  C
  H41      1.0000 0.79090  0.62690  0.82830  Biso   1.000  H
  H42      1.0000 0.76790  0.57560  0.82470  Biso   1.000  H
  H43      1.0000 0.80560  0.59230  0.78640  Biso   1.000  H
  C39      1.0000 0.82650  0.53200  0.82240  Biso   1.000  C
  H44      1.0000 0.84930  0.50850  0.83330  Biso   1.000  H
  H45      1.0000 0.83090  0.53750  0.78870  Biso   1.000  H
  H46      1.0000 0.79450  0.52040  0.82810  Biso   1.000  H
  C40      1.0000 0.92200  0.74690  0.91060  Biso   1.000  C
  H47      1.0000 0.91780  0.75550  0.87850  Biso   1.000  H
  C41      1.0000 0.93380  0.78020  0.94220  Biso   1.000  C
  H48      1.0000 0.93850  0.81140  0.93110  Biso   1.000  H
  C42      1.0000 0.93910  0.77250  0.98520  Biso   1.000  C
  H49      1.0000 0.94650  0.79710  0.00670  Biso   1.000  H
  C43      1.0000 0.93360  0.72650  0.99990  Biso   1.000  C
  H50      1.0000 0.93780  0.71890  0.03230  Biso   1.000  H
  C44      1.0000 0.92210  0.69130  0.96850  Biso   1.000  C
  H51      1.0000 0.91860  0.65970  0.97910  Biso   1.000  H
  N4       1.0000 0.91613  0.70187  0.92350  Biso   1.000  N
  O10      1.0000 0.94338  0.60804  0.91198  Biso   1.000  O
  O11      1.0000 0.94844  0.54249  0.86913  Biso   1.000  O
  O12      1.0000 0.87847  0.59124  0.83336  Biso   1.000  O
  H52      1.0000 0.89920  0.57940  0.85090  Biso   1.000  H
  C45      1.0000 0.09890  0.46250  0.93060  Biso   1.000  C
  C46      1.0000 0.06950  0.50430  0.94450  Biso   1.000  C
  C47      1.0000 0.03078  0.51678  0.91789  Biso   1.000  C
  H53      1.0000 0.02240  0.49880  0.89100  Biso   1.000  H
  C48      1.0000 0.15220  0.33350  0.92450  Biso   1.000  C
  C49      1.0000 0.18040  0.29660  0.90600  Biso   1.000  C
  H54      1.0000 0.17170  0.29090  0.87310  Biso   1.000  H
  H55      1.0000 0.17530  0.26790  0.92440  Biso   1.000  H
  H56      1.0000 0.21360  0.30560  0.90770  Biso   1.000  H
  C50      1.0000 0.17760  0.32650  0.96800  Biso   1.000  C
  H57      1.0000 0.16670  0.34930  0.99150  Biso   1.000  H
  H58      1.0000 0.21130  0.33090  0.96250  Biso   1.000  H
  H59      1.0000 0.17190  0.29450  0.97960  Biso   1.000  H
  C51      1.0000 0.08940  0.42200  0.75310  Biso   1.000  C
  H60      1.0000 0.12150  0.41780  0.74450  Biso   1.000  H
  C52      1.0000 0.05780  0.43380  0.71980  Biso   1.000  C
  H61      1.0000 0.06890  0.43850  0.68860  Biso   1.000  H
  C53      1.0000 0.01480  0.43910  0.72750  Biso   1.000  C
  H62      1.0000 0.99330  0.44650  0.70290  Biso   1.000  H
  C54      1.0000 0.00010  0.43360  0.77350  Biso   1.000  C
  H63      1.0000 0.96770  0.43780  0.78110  Biso   1.000  H
  C55      1.0000 0.03150  0.42210  0.80870  Biso   1.000  C
  H64      1.0000 0.02090  0.41860  0.84030  Biso   1.000  H
  N5       1.0000 0.07650  0.41613  0.79813  Biso   1.000  N
  O13      1.0000 0.08802  0.44338  0.89196  Biso   1.000  O
  O14      1.0000 0.13087  0.44844  0.95751  Biso   1.000  O
  O15      1.0000 0.16664  0.37847  0.90876  Biso   1.000  O
  H65      1.0000 0.14910  0.39920  0.92060  Biso   1.000  H
  C56      1.0000 0.59890  0.03750  0.06940  Biso   1.000  C
  C57      1.0000 0.56950  0.99570  0.05550  Biso   1.000  C
  C58      1.0000 0.53078  0.98322  0.08211  Biso   1.000  C
  H66      1.0000 0.52240  0.00120  0.10900  Biso   1.000  H
  C59      1.0000 0.65220  0.16650  0.07550  Biso   1.000  C
  C60      1.0000 0.68040  0.20340  0.09400  Biso   1.000  C
  H67      1.0000 0.67170  0.20910  0.12690  Biso   1.000  H
  H68      1.0000 0.67530  0.23210  0.07560  Biso   1.000  H
  H69      1.0000 0.71360  0.19440  0.09230  Biso   1.000  H
  C61      1.0000 0.67760  0.17350  0.03200  Biso   1.000  C
  H70      1.0000 0.66670  0.15070  0.00850  Biso   1.000  H
  H71      1.0000 0.71130  0.16910  0.03750  Biso   1.000  H
  H72      1.0000 0.67190  0.20550  0.02040  Biso   1.000  H
  C62      1.0000 0.58940  0.07800  0.24690  Biso   1.000  C
  H73      1.0000 0.62150  0.08220  0.25550  Biso   1.000  H
  C63      1.0000 0.55780  0.06620  0.28020  Biso   1.000  C
  H74      1.0000 0.56890  0.06150  0.31140  Biso   1.000  H
  C64      1.0000 0.51480  0.06090  0.27250  Biso   1.000  C
  H75      1.0000 0.49330  0.05350  0.29710  Biso   1.000  H
  C65      1.0000 0.50010  0.06640  0.22650  Biso   1.000  C
  H76      1.0000 0.46770  0.06220  0.21890  Biso   1.000  H
  C66      1.0000 0.53150  0.07790  0.19130  Biso   1.000  C
  H77      1.0000 0.52090  0.08140  0.15970  Biso   1.000  H
  N6       1.0000 0.57650  0.08387  0.20187  Biso   1.000  N
  O16      1.0000 0.58802  0.05662  0.10804  Biso   1.000  O
  O17      1.0000 0.63087  0.05156  0.04249  Biso   1.000  O
  O18      1.0000 0.66664  0.12153  0.09124  Biso   1.000  O
  H78      1.0000 0.64910  0.10080  0.07940  Biso   1.000  H
  C67      1.0000 0.40110  0.53750  0.43060  Biso   1.000  C
  C68      1.0000 0.43050  0.49570  0.44450  Biso   1.000  C
  C69      1.0000 0.46922  0.48322  0.41789  Biso   1.000  C
  H79      1.0000 0.47760  0.50120  0.39100  Biso   1.000  H
  C70      1.0000 0.34780  0.66650  0.42450  Biso   1.000  C
  C71      1.0000 0.31960  0.70340  0.40600  Biso   1.000  C
  H80      1.0000 0.32830  0.70910  0.37310  Biso   1.000  H
  H81      1.0000 0.32470  0.73210  0.42440  Biso   1.000  H
  H82      1.0000 0.28640  0.69440  0.40770  Biso   1.000  H
  C72      1.0000 0.32240  0.67350  0.46800  Biso   1.000  C
  H83      1.0000 0.33330  0.65070  0.49150  Biso   1.000  H
  H84      1.0000 0.28870  0.66910  0.46250  Biso   1.000  H
  H85      1.0000 0.32810  0.70550  0.47960  Biso   1.000  H
  C73      1.0000 0.41060  0.57800  0.25310  Biso   1.000  C
  H86      1.0000 0.37850  0.58220  0.24450  Biso   1.000  H
  C74      1.0000 0.44220  0.56620  0.21980  Biso   1.000  C
  H87      1.0000 0.43110  0.56150  0.18860  Biso   1.000  H
  C75      1.0000 0.48520  0.56090  0.22750  Biso   1.000  C
  H88      1.0000 0.50670  0.55350  0.20290  Biso   1.000  H
  C76      1.0000 0.49990  0.56640  0.27350  Biso   1.000  C
  H89      1.0000 0.53230  0.56220  0.28110  Biso   1.000  H
  C77      1.0000 0.46850  0.57790  0.30870  Biso   1.000  C
  H90      1.0000 0.47910  0.58140  0.34030  Biso   1.000  H
  N7       1.0000 0.42350  0.58387  0.29813  Biso   1.000  N
  O19      1.0000 0.41198  0.55662  0.39196  Biso   1.000  O
  O20      1.0000 0.36913  0.55156  0.45751  Biso   1.000  O
  O21      1.0000 0.33336  0.62153  0.40876  Biso   1.000  O
  H91      1.0000 0.35090  0.60080  0.42060  Biso   1.000  H
  C78      1.0000 0.90110  0.96250  0.56940  Biso   1.000  C
  C79      1.0000 0.93050  0.00430  0.55550  Biso   1.000  C
  C80      1.0000 0.96922  0.01678  0.58211  Biso   1.000  C
  H92      1.0000 0.97760  0.99880  0.60900  Biso   1.000  H
  C81      1.0000 0.84780  0.83350  0.57550  Biso   1.000  C
  C82      1.0000 0.81960  0.79660  0.59400  Biso   1.000  C
  H93      1.0000 0.82830  0.79090  0.62690  Biso   1.000  H
  H94      1.0000 0.82470  0.76790  0.57560  Biso   1.000  H
  H95      1.0000 0.78640  0.80560  0.59230  Biso   1.000  H
  C83      1.0000 0.82240  0.82650  0.53200  Biso   1.000  C
  H96      1.0000 0.83330  0.84930  0.50850  Biso   1.000  H
  H97      1.0000 0.78870  0.83090  0.53750  Biso   1.000  H
  H98      1.0000 0.82810  0.79450  0.52040  Biso   1.000  H
  C84      1.0000 0.91060  0.92200  0.74690  Biso   1.000  C
  H99      1.0000 0.87850  0.91780  0.75550  Biso   1.000  H
  C85      1.0000 0.94220  0.93380  0.78020  Biso   1.000  C
  H100     1.0000 0.93110  0.93850  0.81140  Biso   1.000  H
  C86      1.0000 0.98520  0.93910  0.77250  Biso   1.000  C
  H101     1.0000 0.00670  0.94650  0.79710  Biso   1.000  H
  C87      1.0000 0.99990  0.93360  0.72650  Biso   1.000  C
  H102     1.0000 0.03230  0.93780  0.71890  Biso   1.000  H
  C88      1.0000 0.96850  0.92210  0.69130  Biso   1.000  C
  H103     1.0000 0.97910  0.91860  0.65970  Biso   1.000  H
  N8       1.0000 0.92350  0.91613  0.70187  Biso   1.000  N
  O22      1.0000 0.91198  0.94338  0.60804  Biso   1.000  O
  O23      1.0000 0.86913  0.94844  0.54249  Biso   1.000  O
  O24      1.0000 0.83336  0.87847  0.59124  Biso   1.000  O
  H104     1.0000 0.85090  0.89920  0.57940  Biso   1.000  H
  C89      1.0000 0.93060  0.09890  0.46250  Biso   1.000  C
  C90      1.0000 0.94450  0.06950  0.50430  Biso   1.000  C
  C91      1.0000 0.91789  0.03078  0.51678  Biso   1.000  C
  H105     1.0000 0.89100  0.02240  0.49880  Biso   1.000  H
  C92      1.0000 0.92450  0.15220  0.33350  Biso   1.000  C
  C93      1.0000 0.90600  0.18040  0.29660  Biso   1.000  C
  H106     1.0000 0.87310  0.17170  0.29090  Biso   1.000  H
  H107     1.0000 0.92440  0.17530  0.26790  Biso   1.000  H
  H108     1.0000 0.90770  0.21360  0.30560  Biso   1.000  H
  C94      1.0000 0.96800  0.17760  0.32650  Biso   1.000  C
  H109     1.0000 0.99150  0.16670  0.34930  Biso   1.000  H
  H110     1.0000 0.96250  0.21130  0.33090  Biso   1.000  H
  H111     1.0000 0.97960  0.17190  0.29450  Biso   1.000  H
  C95      1.0000 0.75310  0.08940  0.42200  Biso   1.000  C
  H112     1.0000 0.74450  0.12150  0.41780  Biso   1.000  H
  C96      1.0000 0.71980  0.05780  0.43380  Biso   1.000  C
  H113     1.0000 0.68860  0.06890  0.43850  Biso   1.000  H
  C97      1.0000 0.72750  0.01480  0.43910  Biso   1.000  C
  H114     1.0000 0.70290  0.99330  0.44650  Biso   1.000  H
  C98      1.0000 0.77350  0.00010  0.43360  Biso   1.000  C
  H115     1.0000 0.78110  0.96770  0.43780  Biso   1.000  H
  C99      1.0000 0.80870  0.03150  0.42210  Biso   1.000  C
  H116     1.0000 0.84030  0.02090  0.41860  Biso   1.000  H
  N9       1.0000 0.79813  0.07650  0.41613  Biso   1.000  N
  O25      1.0000 0.89196  0.08802  0.44338  Biso   1.000  O
  O26      1.0000 0.95751  0.13087  0.44844  Biso   1.000  O
  O27      1.0000 0.90876  0.16664  0.37847  Biso   1.000  O
  H117     1.0000 0.92060  0.14910  0.39920  Biso   1.000  H
  C100     1.0000 0.06940  0.59890  0.03750  Biso   1.000  C
  C101     1.0000 0.05550  0.56950  0.99570  Biso   1.000  C
  C102     1.0000 0.08211  0.53078  0.98322  Biso   1.000  C
  H118     1.0000 0.10900  0.52240  0.00120  Biso   1.000  H
  C103     1.0000 0.07550  0.65220  0.16650  Biso   1.000  C
  C104     1.0000 0.09400  0.68040  0.20340  Biso   1.000  C
  H119     1.0000 0.12690  0.67170  0.20910  Biso   1.000  H
  H120     1.0000 0.07560  0.67530  0.23210  Biso   1.000  H
  H121     1.0000 0.09230  0.71360  0.19440  Biso   1.000  H
  C105     1.0000 0.03200  0.67760  0.17350  Biso   1.000  C
  H122     1.0000 0.00850  0.66670  0.15070  Biso   1.000  H
  H123     1.0000 0.03750  0.71130  0.16910  Biso   1.000  H
  H124     1.0000 0.02040  0.67190  0.20550  Biso   1.000  H
  C106     1.0000 0.24690  0.58940  0.07800  Biso   1.000  C
  H125     1.0000 0.25550  0.62150  0.08220  Biso   1.000  H
  C107     1.0000 0.28020  0.55780  0.06620  Biso   1.000  C
  H126     1.0000 0.31140  0.56890  0.06150  Biso   1.000  H
  C108     1.0000 0.27250  0.51480  0.06090  Biso   1.000  C
  H127     1.0000 0.29710  0.49330  0.05350  Biso   1.000  H
  C109     1.0000 0.22650  0.50010  0.06640  Biso   1.000  C
  H128     1.0000 0.21890  0.46770  0.06220  Biso   1.000  H
  C110     1.0000 0.19130  0.53150  0.07790  Biso   1.000  C
  H129     1.0000 0.15970  0.52090  0.08140  Biso   1.000  H
  N10      1.0000 0.20187  0.57650  0.08387  Biso   1.000  N
  O28      1.0000 0.10804  0.58802  0.05662  Biso   1.000  O
  O29      1.0000 0.04249  0.63087  0.05156  Biso   1.000  O
  O30      1.0000 0.09124  0.66664  0.12153  Biso   1.000  O
  H130     1.0000 0.07940  0.64910  0.10080  Biso   1.000  H
  C111     1.0000 0.43060  0.40110  0.53750  Biso   1.000  C
  C112     1.0000 0.44450  0.43050  0.49570  Biso   1.000  C
  C113     1.0000 0.41789  0.46922  0.48322  Biso   1.000  C
  H131     1.0000 0.39100  0.47760  0.50120  Biso   1.000  H
  C114     1.0000 0.42450  0.34780  0.66650  Biso   1.000  C
  C115     1.0000 0.40600  0.31960  0.70340  Biso   1.000  C
  H132     1.0000 0.37310  0.32830  0.70910  Biso   1.000  H
  H133     1.0000 0.42440  0.32470  0.73210  Biso   1.000  H
  H134     1.0000 0.40770  0.28640  0.69440  Biso   1.000  H
  C116     1.0000 0.46800  0.32240  0.67350  Biso   1.000  C
  H135     1.0000 0.49150  0.33330  0.65070  Biso   1.000  H
  H136     1.0000 0.46250  0.28870  0.66910  Biso   1.000  H
  H137     1.0000 0.47960  0.32810  0.70550  Biso   1.000  H
  C117     1.0000 0.25310  0.41060  0.57800  Biso   1.000  C
  H138     1.0000 0.24450  0.37850  0.58220  Biso   1.000  H
  C118     1.0000 0.21980  0.44220  0.56620  Biso   1.000  C
  H139     1.0000 0.18860  0.43110  0.56150  Biso   1.000  H
  C119     1.0000 0.22750  0.48520  0.56090  Biso   1.000  C
  H140     1.0000 0.20290  0.50670  0.55350  Biso   1.000  H
  C120     1.0000 0.27350  0.49990  0.56640  Biso   1.000  C
  H141     1.0000 0.28110  0.53230  0.56220  Biso   1.000  H
  C121     1.0000 0.30870  0.46850  0.57790  Biso   1.000  C
  H142     1.0000 0.34030  0.47910  0.58140  Biso   1.000  H
  N11      1.0000 0.29813  0.42350  0.58387  Biso   1.000  N
  O31      1.0000 0.39196  0.41198  0.55662  Biso   1.000  O
  O32      1.0000 0.45751  0.36913  0.55156  Biso   1.000  O
  O33      1.0000 0.40876  0.33336  0.62153  Biso   1.000  O
  H143     1.0000 0.42060  0.35090  0.60080  Biso   1.000  H
  C122     1.0000 0.56940  0.90110  0.96250  Biso   1.000  C
  C123     1.0000 0.55550  0.93050  0.00430  Biso   1.000  C
  C124     1.0000 0.58211  0.96922  0.01678  Biso   1.000  C
  H144     1.0000 0.60900  0.97760  0.99880  Biso   1.000  H
  C125     1.0000 0.57550  0.84780  0.83350  Biso   1.000  C
  C126     1.0000 0.59400  0.81960  0.79660  Biso   1.000  C
  H145     1.0000 0.62690  0.82830  0.79090  Biso   1.000  H
  H146     1.0000 0.57560  0.82470  0.76790  Biso   1.000  H
  H147     1.0000 0.59230  0.78640  0.80560  Biso   1.000  H
  C127     1.0000 0.53200  0.82240  0.82650  Biso   1.000  C
  H148     1.0000 0.50850  0.83330  0.84930  Biso   1.000  H
  H149     1.0000 0.53750  0.78870  0.83090  Biso   1.000  H
  H150     1.0000 0.52040  0.82810  0.79450  Biso   1.000  H
  C128     1.0000 0.74690  0.91060  0.92200  Biso   1.000  C
  H151     1.0000 0.75550  0.87850  0.91780  Biso   1.000  H
  C129     1.0000 0.78020  0.94220  0.93380  Biso   1.000  C
  H152     1.0000 0.81140  0.93110  0.93850  Biso   1.000  H
  C130     1.0000 0.77250  0.98520  0.93910  Biso   1.000  C
  H153     1.0000 0.79710  0.00670  0.94650  Biso   1.000  H
  C131     1.0000 0.72650  0.99990  0.93360  Biso   1.000  C
  H154     1.0000 0.71890  0.03230  0.93780  Biso   1.000  H
  C132     1.0000 0.69130  0.96850  0.92210  Biso   1.000  C
  H155     1.0000 0.65970  0.97910  0.91860  Biso   1.000  H
  N12      1.0000 0.70187  0.92350  0.91613  Biso   1.000  N
  O34      1.0000 0.60804  0.91198  0.94338  Biso   1.000  O
  O35      1.0000 0.54249  0.86913  0.94844  Biso   1.000  O
  O36      1.0000 0.59124  0.83336  0.87847  Biso   1.000  O
  H156     1.0000 0.57940  0.85090  0.89920  Biso   1.000  H
  C133     1.0000 0.18060  0.21250  0.65110  Biso   1.000  C
  C134     1.0000 0.19450  0.25430  0.68050  Biso   1.000  C
  C135     1.0000 0.16789  0.26678  0.71922  Biso   1.000  C
  H157     1.0000 0.14100  0.24880  0.72760  Biso   1.000  H
  C136     1.0000 0.17450  0.08350  0.59780  Biso   1.000  C
  C137     1.0000 0.15600  0.04660  0.56960  Biso   1.000  C
  H158     1.0000 0.12310  0.04090  0.57830  Biso   1.000  H
  H159     1.0000 0.17440  0.01790  0.57470  Biso   1.000  H
  H160     1.0000 0.15770  0.05560  0.53640  Biso   1.000  H
  C138     1.0000 0.21800  0.07650  0.57240  Biso   1.000  C
  H161     1.0000 0.24150  0.09930  0.58330  Biso   1.000  H
  H162     1.0000 0.21250  0.08090  0.53870  Biso   1.000  H
  H163     1.0000 0.22960  0.04450  0.57810  Biso   1.000  H
  C139     1.0000 0.00310  0.17200  0.66060  Biso   1.000  C
  H164     1.0000 0.99450  0.16780  0.62850  Biso   1.000  H
  C140     1.0000 0.96980  0.18380  0.69220  Biso   1.000  C
  H165     1.0000 0.93860  0.18850  0.68110  Biso   1.000  H
  C141     1.0000 0.97750  0.18910  0.73520  Biso   1.000  C
  H166     1.0000 0.95290  0.19650  0.75670  Biso   1.000  H
  C142     1.0000 0.02350  0.18360  0.74990  Biso   1.000  C
  H167     1.0000 0.03110  0.18780  0.78230  Biso   1.000  H
  C143     1.0000 0.05870  0.17210  0.71850  Biso   1.000  C
  H168     1.0000 0.09030  0.16860  0.72910  Biso   1.000  H
  N13      1.0000 0.04813  0.16613  0.67350  Biso   1.000  N
  O37      1.0000 0.14196  0.19338  0.66198  Biso   1.000  O
  O38      1.0000 0.20751  0.19844  0.61913  Biso   1.000  O
  O39      1.0000 0.15876  0.12847  0.58336  Biso   1.000  O
  H169     1.0000 0.17060  0.14920  0.60090  Biso   1.000  H
  C144     1.0000 0.31940  0.78750  0.15110  Biso   1.000  C
  C145     1.0000 0.30550  0.74570  0.18050  Biso   1.000  C
  C146     1.0000 0.33211  0.73322  0.21922  Biso   1.000  C
  H170     1.0000 0.35900  0.75120  0.22760  Biso   1.000  H
  C147     1.0000 0.32550  0.91650  0.09780  Biso   1.000  C
  C148     1.0000 0.34400  0.95340  0.06960  Biso   1.000  C
  H171     1.0000 0.37690  0.95910  0.07830  Biso   1.000  H
  H172     1.0000 0.32560  0.98210  0.07470  Biso   1.000  H
  H173     1.0000 0.34230  0.94440  0.03640  Biso   1.000  H
  C149     1.0000 0.28200  0.92350  0.07240  Biso   1.000  C
  H174     1.0000 0.25850  0.90070  0.08330  Biso   1.000  H
  H175     1.0000 0.28750  0.91910  0.03870  Biso   1.000  H
  H176     1.0000 0.27040  0.95550  0.07810  Biso   1.000  H
  C150     1.0000 0.49690  0.82800  0.16060  Biso   1.000  C
  H177     1.0000 0.50550  0.83220  0.12850  Biso   1.000  H
  C151     1.0000 0.53020  0.81620  0.19220  Biso   1.000  C
  H178     1.0000 0.56140  0.81150  0.18110  Biso   1.000  H
  C152     1.0000 0.52250  0.81090  0.23520  Biso   1.000  C
  H179     1.0000 0.54710  0.80350  0.25670  Biso   1.000  H
  C153     1.0000 0.47650  0.81640  0.24990  Biso   1.000  C
  H180     1.0000 0.46890  0.81220  0.28230  Biso   1.000  H
  C154     1.0000 0.44130  0.82790  0.21850  Biso   1.000  C
  H181     1.0000 0.40970  0.83140  0.22910  Biso   1.000  H
  N14      1.0000 0.45187  0.83387  0.17350  Biso   1.000  N
  O40      1.0000 0.35804  0.80662  0.16198  Biso   1.000  O
  O41      1.0000 0.29249  0.80156  0.11913  Biso   1.000  O
  O42      1.0000 0.34124  0.87153  0.08336  Biso   1.000  O
  H182     1.0000 0.32940  0.85080  0.10090  Biso   1.000  H
  C155     1.0000 0.68060  0.28750  0.34890  Biso   1.000  C
  C156     1.0000 0.69450  0.24570  0.31950  Biso   1.000  C
  C157     1.0000 0.66789  0.23322  0.28078  Biso   1.000  C
  H183     1.0000 0.64100  0.25120  0.27240  Biso   1.000  H
  C158     1.0000 0.67450  0.41650  0.40220  Biso   1.000  C
  C159     1.0000 0.65600  0.45340  0.43040  Biso   1.000  C
  H184     1.0000 0.62310  0.45910  0.42170  Biso   1.000  H
  H185     1.0000 0.67440  0.48210  0.42530  Biso   1.000  H
  H186     1.0000 0.65770  0.44440  0.46360  Biso   1.000  H
  C160     1.0000 0.71800  0.42350  0.42760  Biso   1.000  C
  H187     1.0000 0.74150  0.40070  0.41670  Biso   1.000  H
  H188     1.0000 0.71250  0.41910  0.46130  Biso   1.000  H
  H189     1.0000 0.72960  0.45550  0.42190  Biso   1.000  H
  C161     1.0000 0.50310  0.32800  0.33940  Biso   1.000  C
  H190     1.0000 0.49450  0.33220  0.37150  Biso   1.000  H
  C162     1.0000 0.46980  0.31620  0.30780  Biso   1.000  C
  H191     1.0000 0.43860  0.31150  0.31890  Biso   1.000  H
  C163     1.0000 0.47750  0.31090  0.26480  Biso   1.000  C
  H192     1.0000 0.45290  0.30350  0.24330  Biso   1.000  H
  C164     1.0000 0.52350  0.31640  0.25010  Biso   1.000  C
  H193     1.0000 0.53110  0.31220  0.21770  Biso   1.000  H
  C165     1.0000 0.55870  0.32790  0.28150  Biso   1.000  C
  H194     1.0000 0.59030  0.33140  0.27090  Biso   1.000  H
  N15      1.0000 0.54813  0.33387  0.32650  Biso   1.000  N
  O43      1.0000 0.64196  0.30662  0.33802  Biso   1.000  O
  O44      1.0000 0.70751  0.30156  0.38087  Biso   1.000  O
  O45      1.0000 0.65876  0.37153  0.41664  Biso   1.000  O
  H195     1.0000 0.67060  0.35080  0.39910  Biso   1.000  H
  C166     1.0000 0.81940  0.71250  0.84890  Biso   1.000  C
  C167     1.0000 0.80550  0.75430  0.81950  Biso   1.000  C
  C168     1.0000 0.83211  0.76678  0.78078  Biso   1.000  C
  H196     1.0000 0.85900  0.74880  0.77240  Biso   1.000  H
  C169     1.0000 0.82550  0.58350  0.90220  Biso   1.000  C
  C170     1.0000 0.84400  0.54660  0.93040  Biso   1.000  C
  H197     1.0000 0.87690  0.54090  0.92170  Biso   1.000  H
  H198     1.0000 0.82560  0.51790  0.92530  Biso   1.000  H
  H199     1.0000 0.84230  0.55560  0.96360  Biso   1.000  H
  C171     1.0000 0.78200  0.57650  0.92760  Biso   1.000  C
  H200     1.0000 0.75850  0.59930  0.91670  Biso   1.000  H
  H201     1.0000 0.78750  0.58090  0.96130  Biso   1.000  H
  H202     1.0000 0.77040  0.54450  0.92190  Biso   1.000  H
  C172     1.0000 0.99690  0.67200  0.83940  Biso   1.000  C
  H203     1.0000 0.00550  0.66780  0.87150  Biso   1.000  H
  C173     1.0000 0.03020  0.68380  0.80780  Biso   1.000  C
  H204     1.0000 0.06140  0.68850  0.81890  Biso   1.000  H
  C174     1.0000 0.02250  0.68910  0.76480  Biso   1.000  C
  H205     1.0000 0.04710  0.69650  0.74330  Biso   1.000  H
  C175     1.0000 0.97650  0.68360  0.75010  Biso   1.000  C
  H206     1.0000 0.96890  0.68780  0.71770  Biso   1.000  H
  C176     1.0000 0.94130  0.67210  0.78150  Biso   1.000  C
  H207     1.0000 0.90970  0.66860  0.77090  Biso   1.000  H
  N16      1.0000 0.95187  0.66613  0.82650  Biso   1.000  N
  O46      1.0000 0.85804  0.69338  0.83802  Biso   1.000  O
  O47      1.0000 0.79249  0.69844  0.88087  Biso   1.000  O
  O48      1.0000 0.84124  0.62847  0.91664  Biso   1.000  O
  H208     1.0000 0.82940  0.64920  0.89910  Biso   1.000  H
  C177     1.0000 0.71250  0.84890  0.81940  Biso   1.000  C
  C178     1.0000 0.75430  0.81950  0.80550  Biso   1.000  C
  C179     1.0000 0.76678  0.78078  0.83211  Biso   1.000  C
  H209     1.0000 0.74880  0.77240  0.85900  Biso   1.000  H
  C180     1.0000 0.58350  0.90220  0.82550  Biso   1.000  C
  C181     1.0000 0.54660  0.93040  0.84400  Biso   1.000  C
  H210     1.0000 0.54090  0.92170  0.87690  Biso   1.000  H
  H211     1.0000 0.51790  0.92530  0.82560  Biso   1.000  H
  H212     1.0000 0.55560  0.96360  0.84230  Biso   1.000  H
  C182     1.0000 0.57650  0.92760  0.78200  Biso   1.000  C
  H213     1.0000 0.59930  0.91670  0.75850  Biso   1.000  H
  H214     1.0000 0.58090  0.96130  0.78750  Biso   1.000  H
  H215     1.0000 0.54450  0.92190  0.77040  Biso   1.000  H
  C183     1.0000 0.67200  0.83940  0.99690  Biso   1.000  C
  H216     1.0000 0.66780  0.87150  0.00550  Biso   1.000  H
  C184     1.0000 0.68380  0.80780  0.03020  Biso   1.000  C
  H217     1.0000 0.68850  0.81890  0.06140  Biso   1.000  H
  C185     1.0000 0.68910  0.76480  0.02250  Biso   1.000  C
  H218     1.0000 0.69650  0.74330  0.04710  Biso   1.000  H
  C186     1.0000 0.68360  0.75010  0.97650  Biso   1.000  C
  H219     1.0000 0.68780  0.71770  0.96890  Biso   1.000  H
  C187     1.0000 0.67210  0.78150  0.94130  Biso   1.000  C
  H220     1.0000 0.66860  0.77090  0.90970  Biso   1.000  H
  N17      1.0000 0.66613  0.82650  0.95187  Biso   1.000  N
  O49      1.0000 0.69338  0.83802  0.85804  Biso   1.000  O
  O50      1.0000 0.69844  0.88087  0.79249  Biso   1.000  O
  O51      1.0000 0.62847  0.91664  0.84124  Biso   1.000  O
  H221     1.0000 0.64920  0.89910  0.82940  Biso   1.000  H
  C188     1.0000 0.28750  0.34890  0.68060  Biso   1.000  C
  C189     1.0000 0.24570  0.31950  0.69450  Biso   1.000  C
  C190     1.0000 0.23322  0.28078  0.66789  Biso   1.000  C
  H222     1.0000 0.25120  0.27240  0.64100  Biso   1.000  H
  C191     1.0000 0.41650  0.40220  0.67450  Biso   1.000  C
  C192     1.0000 0.45340  0.43040  0.65600  Biso   1.000  C
  H223     1.0000 0.45910  0.42170  0.62310  Biso   1.000  H
  H224     1.0000 0.48210  0.42530  0.67440  Biso   1.000  H
  H225     1.0000 0.44440  0.46360  0.65770  Biso   1.000  H
  C193     1.0000 0.42350  0.42760  0.71800  Biso   1.000  C
  H226     1.0000 0.40070  0.41670  0.74150  Biso   1.000  H
  H227     1.0000 0.41910  0.46130  0.71250  Biso   1.000  H
  H228     1.0000 0.45550  0.42190  0.72960  Biso   1.000  H
  C194     1.0000 0.32800  0.33940  0.50310  Biso   1.000  C
  H229     1.0000 0.33220  0.37150  0.49450  Biso   1.000  H
  C195     1.0000 0.31620  0.30780  0.46980  Biso   1.000  C
  H230     1.0000 0.31150  0.31890  0.43860  Biso   1.000  H
  C196     1.0000 0.31090  0.26480  0.47750  Biso   1.000  C
  H231     1.0000 0.30350  0.24330  0.45290  Biso   1.000  H
  C197     1.0000 0.31640  0.25010  0.52350  Biso   1.000  C
  H232     1.0000 0.31220  0.21770  0.53110  Biso   1.000  H
  C198     1.0000 0.32790  0.28150  0.55870  Biso   1.000  C
  H233     1.0000 0.33140  0.27090  0.59030  Biso   1.000  H
  N18      1.0000 0.33387  0.32650  0.54813  Biso   1.000  N
  O52      1.0000 0.30662  0.33802  0.64196  Biso   1.000  O
  O53      1.0000 0.30156  0.38087  0.70751  Biso   1.000  O
  O54      1.0000 0.37153  0.41664  0.65876  Biso   1.000  O
  H234     1.0000 0.35080  0.39910  0.67060  Biso   1.000  H
  C199     1.0000 0.78750  0.15110  0.31940  Biso   1.000  C
  C200     1.0000 0.74570  0.18050  0.30550  Biso   1.000  C
  C201     1.0000 0.73322  0.21922  0.33211  Biso   1.000  C
  H235     1.0000 0.75120  0.22760  0.35900  Biso   1.000  H
  C202     1.0000 0.91650  0.09780  0.32550  Biso   1.000  C
  C203     1.0000 0.95340  0.06960  0.34400  Biso   1.000  C
  H236     1.0000 0.95910  0.07830  0.37690  Biso   1.000  H
  H237     1.0000 0.98210  0.07470  0.32560  Biso   1.000  H
  H238     1.0000 0.94440  0.03640  0.34230  Biso   1.000  H
  C204     1.0000 0.92350  0.07240  0.28200  Biso   1.000  C
  H239     1.0000 0.90070  0.08330  0.25850  Biso   1.000  H
  H240     1.0000 0.91910  0.03870  0.28750  Biso   1.000  H
  H241     1.0000 0.95550  0.07810  0.27040  Biso   1.000  H
  C205     1.0000 0.82800  0.16060  0.49690  Biso   1.000  C
  H242     1.0000 0.83220  0.12850  0.50550  Biso   1.000  H
  C206     1.0000 0.81620  0.19220  0.53020  Biso   1.000  C
  H243     1.0000 0.81150  0.18110  0.56140  Biso   1.000  H
  C207     1.0000 0.81090  0.23520  0.52250  Biso   1.000  C
  H244     1.0000 0.80350  0.25670  0.54710  Biso   1.000  H
  C208     1.0000 0.81640  0.24990  0.47650  Biso   1.000  C
  H245     1.0000 0.81220  0.28230  0.46890  Biso   1.000  H
  C209     1.0000 0.82790  0.21850  0.44130  Biso   1.000  C
  H246     1.0000 0.83140  0.22910  0.40970  Biso   1.000  H
  N19      1.0000 0.83387  0.17350  0.45187  Biso   1.000  N
  O55      1.0000 0.80662  0.16198  0.35804  Biso   1.000  O
  O56      1.0000 0.80156  0.11913  0.29249  Biso   1.000  O
  O57      1.0000 0.87153  0.08336  0.34124  Biso   1.000  O
  H247     1.0000 0.85080  0.10090  0.32940  Biso   1.000  H
  C210     1.0000 0.21250  0.65110  0.18060  Biso   1.000  C
  C211     1.0000 0.25430  0.68050  0.19450  Biso   1.000  C
  C212     1.0000 0.26678  0.71922  0.16789  Biso   1.000  C
  H248     1.0000 0.24880  0.72760  0.14100  Biso   1.000  H
  C213     1.0000 0.08350  0.59780  0.17450  Biso   1.000  C
  C214     1.0000 0.04660  0.56960  0.15600  Biso   1.000  C
  H249     1.0000 0.04090  0.57830  0.12310  Biso   1.000  H
  H250     1.0000 0.01790  0.57470  0.17440  Biso   1.000  H
  H251     1.0000 0.05560  0.53640  0.15770  Biso   1.000  H
  C215     1.0000 0.07650  0.57240  0.21800  Biso   1.000  C
  H252     1.0000 0.09930  0.58330  0.24150  Biso   1.000  H
  H253     1.0000 0.08090  0.53870  0.21250  Biso   1.000  H
  H254     1.0000 0.04450  0.57810  0.22960  Biso   1.000  H
  C216     1.0000 0.17200  0.66060  0.00310  Biso   1.000  C
  H255     1.0000 0.16780  0.62850  0.99450  Biso   1.000  H
  C217     1.0000 0.18380  0.69220  0.96980  Biso   1.000  C
  H256     1.0000 0.18850  0.68110  0.93860  Biso   1.000  H
  C218     1.0000 0.18910  0.73520  0.97750  Biso   1.000  C
  H257     1.0000 0.19650  0.75670  0.95290  Biso   1.000  H
  C219     1.0000 0.18360  0.74990  0.02350  Biso   1.000  C
  H258     1.0000 0.18780  0.78230  0.03110  Biso   1.000  H
  C220     1.0000 0.17210  0.71850  0.05870  Biso   1.000  C
  H259     1.0000 0.16860  0.72910  0.09030  Biso   1.000  H
  N20      1.0000 0.16613  0.67350  0.04813  Biso   1.000  N
  O58      1.0000 0.19338  0.66198  0.14196  Biso   1.000  O
  O59      1.0000 0.19844  0.61913  0.20751  Biso   1.000  O
  O60      1.0000 0.12847  0.58336  0.15876  Biso   1.000  O
  H260     1.0000 0.14920  0.60090  0.17060  Biso   1.000  H
  C221     1.0000 0.34890  0.68060  0.28750  Biso   1.000  C
  C222     1.0000 0.31950  0.69450  0.24570  Biso   1.000  C
  C223     1.0000 0.28078  0.66789  0.23322  Biso   1.000  C
  H261     1.0000 0.27240  0.64100  0.25120  Biso   1.000  H
  C224     1.0000 0.40220  0.67450  0.41650  Biso   1.000  C
  C225     1.0000 0.43040  0.65600  0.45340  Biso   1.000  C
  H262     1.0000 0.42170  0.62310  0.45910  Biso   1.000  H
  H263     1.0000 0.42530  0.67440  0.48210  Biso   1.000  H
  H264     1.0000 0.46360  0.65770  0.44440  Biso   1.000  H
  C226     1.0000 0.42760  0.71800  0.42350  Biso   1.000  C
  H265     1.0000 0.41670  0.74150  0.40070  Biso   1.000  H
  H266     1.0000 0.46130  0.71250  0.41910  Biso   1.000  H
  H267     1.0000 0.42190  0.72960  0.45550  Biso   1.000  H
  C227     1.0000 0.33940  0.50310  0.32800  Biso   1.000  C
  H268     1.0000 0.37150  0.49450  0.33220  Biso   1.000  H
  C228     1.0000 0.30780  0.46980  0.31620  Biso   1.000  C
  H269     1.0000 0.31890  0.43860  0.31150  Biso   1.000  H
  C229     1.0000 0.26480  0.47750  0.31090  Biso   1.000  C
  H270     1.0000 0.24330  0.45290  0.30350  Biso   1.000  H
  C230     1.0000 0.25010  0.52350  0.31640  Biso   1.000  C
  H271     1.0000 0.21770  0.53110  0.31220  Biso   1.000  H
  C231     1.0000 0.28150  0.55870  0.32790  Biso   1.000  C
  H272     1.0000 0.27090  0.59030  0.33140  Biso   1.000  H
  N21      1.0000 0.32650  0.54813  0.33387  Biso   1.000  N
  O61      1.0000 0.33802  0.64196  0.30662  Biso   1.000  O
  O62      1.0000 0.38087  0.70751  0.30156  Biso   1.000  O
  O63      1.0000 0.41664  0.65876  0.37153  Biso   1.000  O
  H273     1.0000 0.39910  0.67060  0.35080  Biso   1.000  H
  C232     1.0000 0.84890  0.81940  0.71250  Biso   1.000  C
  C233     1.0000 0.81950  0.80550  0.75430  Biso   1.000  C
  C234     1.0000 0.78078  0.83211  0.76678  Biso   1.000  C
  H274     1.0000 0.77240  0.85900  0.74880  Biso   1.000  H
  C235     1.0000 0.90220  0.82550  0.58350  Biso   1.000  C
  C236     1.0000 0.93040  0.84400  0.54660  Biso   1.000  C
  H275     1.0000 0.92170  0.87690  0.54090  Biso   1.000  H
  H276     1.0000 0.92530  0.82560  0.51790  Biso   1.000  H
  H277     1.0000 0.96360  0.84230  0.55560  Biso   1.000  H
  C237     1.0000 0.92760  0.78200  0.57650  Biso   1.000  C
  H278     1.0000 0.91670  0.75850  0.59930  Biso   1.000  H
  H279     1.0000 0.96130  0.78750  0.58090  Biso   1.000  H
  H280     1.0000 0.92190  0.77040  0.54450  Biso   1.000  H
  C238     1.0000 0.83940  0.99690  0.67200  Biso   1.000  C
  H281     1.0000 0.87150  0.00550  0.66780  Biso   1.000  H
  C239     1.0000 0.80780  0.03020  0.68380  Biso   1.000  C
  H282     1.0000 0.81890  0.06140  0.68850  Biso   1.000  H
  C240     1.0000 0.76480  0.02250  0.68910  Biso   1.000  C
  H283     1.0000 0.74330  0.04710  0.69650  Biso   1.000  H
  C241     1.0000 0.75010  0.97650  0.68360  Biso   1.000  C
  H284     1.0000 0.71770  0.96890  0.68780  Biso   1.000  H
  C242     1.0000 0.78150  0.94130  0.67210  Biso   1.000  C
  H285     1.0000 0.77090  0.90970  0.66860  Biso   1.000  H
  N22      1.0000 0.82650  0.95187  0.66613  Biso   1.000  N
  O64      1.0000 0.83802  0.85804  0.69338  Biso   1.000  O
  O65      1.0000 0.88087  0.79249  0.69844  Biso   1.000  O
  O66      1.0000 0.91664  0.84124  0.62847  Biso   1.000  O
  H286     1.0000 0.89910  0.82940  0.64920  Biso   1.000  H
  C243     1.0000 0.65110  0.18060  0.21250  Biso   1.000  C
  C244     1.0000 0.68050  0.19450  0.25430  Biso   1.000  C
  C245     1.0000 0.71922  0.16789  0.26678  Biso   1.000  C
  H287     1.0000 0.72760  0.14100  0.24880  Biso   1.000  H
  C246     1.0000 0.59780  0.17450  0.08350  Biso   1.000  C
  C247     1.0000 0.56960  0.15600  0.04660  Biso   1.000  C
  H288     1.0000 0.57830  0.12310  0.04090  Biso   1.000  H
  H289     1.0000 0.57470  0.17440  0.01790  Biso   1.000  H
  H290     1.0000 0.53640  0.15770  0.05560  Biso   1.000  H
  C248     1.0000 0.57240  0.21800  0.07650  Biso   1.000  C
  H291     1.0000 0.58330  0.24150  0.09930  Biso   1.000  H
  H292     1.0000 0.53870  0.21250  0.08090  Biso   1.000  H
  H293     1.0000 0.57810  0.22960  0.04450  Biso   1.000  H
  C249     1.0000 0.66060  0.00310  0.17200  Biso   1.000  C
  H294     1.0000 0.62850  0.99450  0.16780  Biso   1.000  H
  C250     1.0000 0.69220  0.96980  0.18380  Biso   1.000  C
  H295     1.0000 0.68110  0.93860  0.18850  Biso   1.000  H
  C251     1.0000 0.73520  0.97750  0.18910  Biso   1.000  C
  H296     1.0000 0.75670  0.95290  0.19650  Biso   1.000  H
  C252     1.0000 0.74990  0.02350  0.18360  Biso   1.000  C
  H297     1.0000 0.78230  0.03110  0.18780  Biso   1.000  H
  C253     1.0000 0.71850  0.05870  0.17210  Biso   1.000  C
  H298     1.0000 0.72910  0.09030  0.16860  Biso   1.000  H
  N23      1.0000 0.67350  0.04813  0.16613  Biso   1.000  N
  O67      1.0000 0.66198  0.14196  0.19338  Biso   1.000  O
  O68      1.0000 0.61913  0.20751  0.19844  Biso   1.000  O
  O69      1.0000 0.58336  0.15876  0.12847  Biso   1.000  O
  H299     1.0000 0.60090  0.17060  0.14920  Biso   1.000  H
  C254     1.0000 0.15110  0.31940  0.78750  Biso   1.000  C
  C255     1.0000 0.18050  0.30550  0.74570  Biso   1.000  C
  C256     1.0000 0.21922  0.33211  0.73322  Biso   1.000  C
  H300     1.0000 0.22760  0.35900  0.75120  Biso   1.000  H
  C257     1.0000 0.09780  0.32550  0.91650  Biso   1.000  C
  C258     1.0000 0.06960  0.34400  0.95340  Biso   1.000  C
  H301     1.0000 0.07830  0.37690  0.95910  Biso   1.000  H
  H302     1.0000 0.07470  0.32560  0.98210  Biso   1.000  H
  H303     1.0000 0.03640  0.34230  0.94440  Biso   1.000  H
  C259     1.0000 0.07240  0.28200  0.92350  Biso   1.000  C
  H304     1.0000 0.08330  0.25850  0.90070  Biso   1.000  H
  H305     1.0000 0.03870  0.28750  0.91910  Biso   1.000  H
  H306     1.0000 0.07810  0.27040  0.95550  Biso   1.000  H
  C260     1.0000 0.16060  0.49690  0.82800  Biso   1.000  C
  H307     1.0000 0.12850  0.50550  0.83220  Biso   1.000  H
  C261     1.0000 0.19220  0.53020  0.81620  Biso   1.000  C
  H308     1.0000 0.18110  0.56140  0.81150  Biso   1.000  H
  C262     1.0000 0.23520  0.52250  0.81090  Biso   1.000  C
  H309     1.0000 0.25670  0.54710  0.80350  Biso   1.000  H
  C263     1.0000 0.24990  0.47650  0.81640  Biso   1.000  C
  H310     1.0000 0.28230  0.46890  0.81220  Biso   1.000  H
  C264     1.0000 0.21850  0.44130  0.82790  Biso   1.000  C
  H311     1.0000 0.22910  0.40970  0.83140  Biso   1.000  H
  N24      1.0000 0.17350  0.45187  0.83387  Biso   1.000  N
  O70      1.0000 0.16198  0.35804  0.80662  Biso   1.000  O
  O71      1.0000 0.11913  0.29249  0.80156  Biso   1.000  O
  O72      1.0000 0.08336  0.34124  0.87153  Biso   1.000  O
  H312     1.0000 0.10090  0.32940  0.85080  Biso   1.000  H
  Ni1      1.0000 0.39900  0.85100  0.12500  Biso   1.000  Ni
  Ni2      1.0000 0.10100  0.14900  0.62500  Biso   1.000  Ni
  Ni3      1.0000 0.60100  0.35100  0.37500  Biso   1.000  Ni
  Ni4      1.0000 0.89900  0.64900  0.87500  Biso   1.000  Ni
  Ni5      1.0000 0.12500  0.39900  0.85100  Biso   1.000  Ni
  Ni6      1.0000 0.62500  0.10100  0.14900  Biso   1.000  Ni
  Ni7      1.0000 0.37500  0.60100  0.35100  Biso   1.000  Ni
  Ni8      1.0000 0.87500  0.89900  0.64900  Biso   1.000  Ni
  Ni9      1.0000 0.85100  0.12500  0.39900  Biso   1.000  Ni
  Ni10     1.0000 0.14900  0.62500  0.10100  Biso   1.000  Ni
  Ni11     1.0000 0.35100  0.37500  0.60100  Biso   1.000  Ni
  Ni12     1.0000 0.64900  0.87500  0.89900  Biso   1.000  Ni
  C265     1.0000 0.96250  0.43060  0.59890  Biso   1.000  C
  C266     1.0000 0.00430  0.44450  0.56950  Biso   1.000  C
  C267     1.0000 0.01678  0.41789  0.53078  Biso   1.000  C
  H313     1.0000 0.99880  0.39100  0.52240  Biso   1.000  H
  C268     1.0000 0.83350  0.42450  0.65220  Biso   1.000  C
  C269     1.0000 0.79660  0.40600  0.68040  Biso   1.000  C
  H314     1.0000 0.79090  0.37310  0.67170  Biso   1.000  H
  H315     1.0000 0.76790  0.42440  0.67530  Biso   1.000  H
  H316     1.0000 0.80560  0.40770  0.71360  Biso   1.000  H
  C270     1.0000 0.82650  0.46800  0.67760  Biso   1.000  C
  H317     1.0000 0.84930  0.49150  0.66670  Biso   1.000  H
  H318     1.0000 0.83090  0.46250  0.71130  Biso   1.000  H
  H319     1.0000 0.79450  0.47960  0.67190  Biso   1.000  H
  C271     1.0000 0.92200  0.25310  0.58940  Biso   1.000  C
  H320     1.0000 0.91780  0.24450  0.62150  Biso   1.000  H
  C272     1.0000 0.93380  0.21980  0.55780  Biso   1.000  C
  H321     1.0000 0.93850  0.18860  0.56890  Biso   1.000  H
  C273     1.0000 0.93910  0.22750  0.51480  Biso   1.000  C
  H322     1.0000 0.94650  0.20290  0.49330  Biso   1.000  H
  C274     1.0000 0.93360  0.27350  0.50010  Biso   1.000  C
  H323     1.0000 0.93780  0.28110  0.46770  Biso   1.000  H
  C275     1.0000 0.92210  0.30870  0.53150  Biso   1.000  C
  H324     1.0000 0.91860  0.34030  0.52090  Biso   1.000  H
  N25      1.0000 0.91613  0.29813  0.57650  Biso   1.000  N
  O73      1.0000 0.94338  0.39196  0.58802  Biso   1.000  O
  O74      1.0000 0.94844  0.45751  0.63087  Biso   1.000  O
  O75      1.0000 0.87847  0.40876  0.66664  Biso   1.000  O
  H325     1.0000 0.89920  0.42060  0.64910  Biso   1.000  H
  C276     1.0000 0.53750  0.56940  0.09890  Biso   1.000  C
  C277     1.0000 0.49570  0.55550  0.06950  Biso   1.000  C
  C278     1.0000 0.48322  0.58211  0.03078  Biso   1.000  C
  H326     1.0000 0.50120  0.60900  0.02240  Biso   1.000  H
  C279     1.0000 0.66650  0.57550  0.15220  Biso   1.000  C
  C280     1.0000 0.70340  0.59400  0.18040  Biso   1.000  C
  H327     1.0000 0.70910  0.62690  0.17170  Biso   1.000  H
  H328     1.0000 0.73210  0.57560  0.17530  Biso   1.000  H
  H329     1.0000 0.69440  0.59230  0.21360  Biso   1.000  H
  C281     1.0000 0.67350  0.53200  0.17760  Biso   1.000  C
  H330     1.0000 0.65070  0.50850  0.16670  Biso   1.000  H
  H331     1.0000 0.66910  0.53750  0.21130  Biso   1.000  H
  H332     1.0000 0.70550  0.52040  0.17190  Biso   1.000  H
  C282     1.0000 0.57800  0.74690  0.08940  Biso   1.000  C
  H333     1.0000 0.58220  0.75550  0.12150  Biso   1.000  H
  C283     1.0000 0.56620  0.78020  0.05780  Biso   1.000  C
  H334     1.0000 0.56150  0.81140  0.06890  Biso   1.000  H
  C284     1.0000 0.56090  0.77250  0.01480  Biso   1.000  C
  H335     1.0000 0.55350  0.79710  0.99330  Biso   1.000  H
  C285     1.0000 0.56640  0.72650  0.00010  Biso   1.000  C
  H336     1.0000 0.56220  0.71890  0.96770  Biso   1.000  H
  C286     1.0000 0.57790  0.69130  0.03150  Biso   1.000  C
  H337     1.0000 0.58140  0.65970  0.02090  Biso   1.000  H
  N26      1.0000 0.58387  0.70187  0.07650  Biso   1.000  N
  O76      1.0000 0.55662  0.60804  0.08802  Biso   1.000  O
  O77      1.0000 0.55156  0.54249  0.13087  Biso   1.000  O
  O78      1.0000 0.62153  0.59124  0.16664  Biso   1.000  O
  H338     1.0000 0.60080  0.57940  0.14910  Biso   1.000  H
  C287     1.0000 0.03750  0.93060  0.90110  Biso   1.000  C
  C288     1.0000 0.99570  0.94450  0.93050  Biso   1.000  C
  C289     1.0000 0.98322  0.91789  0.96922  Biso   1.000  C
  H339     1.0000 0.00120  0.89100  0.97760  Biso   1.000  H
  C290     1.0000 0.16650  0.92450  0.84780  Biso   1.000  C
  C291     1.0000 0.20340  0.90600  0.81960  Biso   1.000  C
  H340     1.0000 0.20910  0.87310  0.82830  Biso   1.000  H
  H341     1.0000 0.23210  0.92440  0.82470  Biso   1.000  H
  H342     1.0000 0.19440  0.90770  0.78640  Biso   1.000  H
  C292     1.0000 0.17350  0.96800  0.82240  Biso   1.000  C
  H343     1.0000 0.15070  0.99150  0.83330  Biso   1.000  H
  H344     1.0000 0.16910  0.96250  0.78870  Biso   1.000  H
  H345     1.0000 0.20550  0.97960  0.82810  Biso   1.000  H
  C293     1.0000 0.07800  0.75310  0.91060  Biso   1.000  C
  H346     1.0000 0.08220  0.74450  0.87850  Biso   1.000  H
  C294     1.0000 0.06620  0.71980  0.94220  Biso   1.000  C
  H347     1.0000 0.06150  0.68860  0.93110  Biso   1.000  H
  C295     1.0000 0.06090  0.72750  0.98520  Biso   1.000  C
  H348     1.0000 0.05350  0.70290  0.00670  Biso   1.000  H
  C296     1.0000 0.06640  0.77350  0.99990  Biso   1.000  C
  H349     1.0000 0.06220  0.78110  0.03230  Biso   1.000  H
  C297     1.0000 0.07790  0.80870  0.96850  Biso   1.000  C
  H350     1.0000 0.08140  0.84030  0.97910  Biso   1.000  H
  N27      1.0000 0.08387  0.79813  0.92350  Biso   1.000  N
  O79      1.0000 0.05662  0.89196  0.91198  Biso   1.000  O
  O80      1.0000 0.05156  0.95751  0.86913  Biso   1.000  O
  O81      1.0000 0.12153  0.90876  0.83336  Biso   1.000  O
  H351     1.0000 0.10080  0.92060  0.85090  Biso   1.000  H
  C298     1.0000 0.46250  0.06940  0.40110  Biso   1.000  C
  C299     1.0000 0.50430  0.05550  0.43050  Biso   1.000  C
  C300     1.0000 0.51678  0.08211  0.46922  Biso   1.000  C
  H352     1.0000 0.49880  0.10900  0.47760  Biso   1.000  H
  C301     1.0000 0.33350  0.07550  0.34780  Biso   1.000  C
  C302     1.0000 0.29660  0.09400  0.31960  Biso   1.000  C
  H353     1.0000 0.29090  0.12690  0.32830  Biso   1.000  H
  H354     1.0000 0.26790  0.07560  0.32470  Biso   1.000  H
  H355     1.0000 0.30560  0.09230  0.28640  Biso   1.000  H
  C303     1.0000 0.32650  0.03200  0.32240  Biso   1.000  C
  H356     1.0000 0.34930  0.00850  0.33330  Biso   1.000  H
  H357     1.0000 0.33090  0.03750  0.28870  Biso   1.000  H
  H358     1.0000 0.29450  0.02040  0.32810  Biso   1.000  H
  C304     1.0000 0.42200  0.24690  0.41060  Biso   1.000  C
  H359     1.0000 0.41780  0.25550  0.37850  Biso   1.000  H
  C305     1.0000 0.43380  0.28020  0.44220  Biso   1.000  C
  H360     1.0000 0.43850  0.31140  0.43110  Biso   1.000  H
  C306     1.0000 0.43910  0.27250  0.48520  Biso   1.000  C
  H361     1.0000 0.44650  0.29710  0.50670  Biso   1.000  H
  C307     1.0000 0.43360  0.22650  0.49990  Biso   1.000  C
  H362     1.0000 0.43780  0.21890  0.53230  Biso   1.000  H
  C308     1.0000 0.42210  0.19130  0.46850  Biso   1.000  C
  H363     1.0000 0.41860  0.15970  0.47910  Biso   1.000  H
  N28      1.0000 0.41613  0.20187  0.42350  Biso   1.000  N
  O82      1.0000 0.44338  0.10804  0.41198  Biso   1.000  O
  O83      1.0000 0.44844  0.04249  0.36913  Biso   1.000  O
  O84      1.0000 0.37847  0.09124  0.33336  Biso   1.000  O
  H364     1.0000 0.39920  0.07940  0.35090  Biso   1.000  H
  C309     1.0000 0.59890  0.96250  0.43060  Biso   1.000  C
  C310     1.0000 0.56950  0.00430  0.44450  Biso   1.000  C
  C311     1.0000 0.53078  0.01678  0.41789  Biso   1.000  C
  H365     1.0000 0.52240  0.99880  0.39100  Biso   1.000  H
  C312     1.0000 0.65220  0.83350  0.42450  Biso   1.000  C
  C313     1.0000 0.68040  0.79660  0.40600  Biso   1.000  C
  H366     1.0000 0.67170  0.79090  0.37310  Biso   1.000  H
  H367     1.0000 0.67530  0.76790  0.42440  Biso   1.000  H
  H368     1.0000 0.71360  0.80560  0.40770  Biso   1.000  H
  C314     1.0000 0.67760  0.82650  0.46800  Biso   1.000  C
  H369     1.0000 0.66670  0.84930  0.49150  Biso   1.000  H
  H370     1.0000 0.71130  0.83090  0.46250  Biso   1.000  H
  H371     1.0000 0.67190  0.79450  0.47960  Biso   1.000  H
  C315     1.0000 0.58940  0.92200  0.25310  Biso   1.000  C
  H372     1.0000 0.62150  0.91780  0.24450  Biso   1.000  H
  C316     1.0000 0.55780  0.93380  0.21980  Biso   1.000  C
  H373     1.0000 0.56890  0.93850  0.18860  Biso   1.000  H
  C317     1.0000 0.51480  0.93910  0.22750  Biso   1.000  C
  H374     1.0000 0.49330  0.94650  0.20290  Biso   1.000  H
  C318     1.0000 0.50010  0.93360  0.27350  Biso   1.000  C
  H375     1.0000 0.46770  0.93780  0.28110  Biso   1.000  H
  C319     1.0000 0.53150  0.92210  0.30870  Biso   1.000  C
  H376     1.0000 0.52090  0.91860  0.34030  Biso   1.000  H
  N29      1.0000 0.57650  0.91613  0.29813  Biso   1.000  N
  O85      1.0000 0.58802  0.94338  0.39196  Biso   1.000  O
  O86      1.0000 0.63087  0.94844  0.45751  Biso   1.000  O
  O87      1.0000 0.66664  0.87847  0.40876  Biso   1.000  O
  H377     1.0000 0.64910  0.89920  0.42060  Biso   1.000  H
  C320     1.0000 0.09890  0.53750  0.56940  Biso   1.000  C
  C321     1.0000 0.06950  0.49570  0.55550  Biso   1.000  C
  C322     1.0000 0.03078  0.48322  0.58211  Biso   1.000  C
  H378     1.0000 0.02240  0.50120  0.60900  Biso   1.000  H
  C323     1.0000 0.15220  0.66650  0.57550  Biso   1.000  C
  C324     1.0000 0.18040  0.70340  0.59400  Biso   1.000  C
  H379     1.0000 0.17170  0.70910  0.62690  Biso   1.000  H
  H380     1.0000 0.17530  0.73210  0.57560  Biso   1.000  H
  H381     1.0000 0.21360  0.69440  0.59230  Biso   1.000  H
  C325     1.0000 0.17760  0.67350  0.53200  Biso   1.000  C
  H382     1.0000 0.16670  0.65070  0.50850  Biso   1.000  H
  H383     1.0000 0.21130  0.66910  0.53750  Biso   1.000  H
  H384     1.0000 0.17190  0.70550  0.52040  Biso   1.000  H
  C326     1.0000 0.08940  0.57800  0.74690  Biso   1.000  C
  H385     1.0000 0.12150  0.58220  0.75550  Biso   1.000  H
  C327     1.0000 0.05780  0.56620  0.78020  Biso   1.000  C
  H386     1.0000 0.06890  0.56150  0.81140  Biso   1.000  H
  C328     1.0000 0.01480  0.56090  0.77250  Biso   1.000  C
  H387     1.0000 0.99330  0.55350  0.79710  Biso   1.000  H
  C329     1.0000 0.00010  0.56640  0.72650  Biso   1.000  C
  H388     1.0000 0.96770  0.56220  0.71890  Biso   1.000  H
  C330     1.0000 0.03150  0.57790  0.69130  Biso   1.000  C
  H389     1.0000 0.02090  0.58140  0.65970  Biso   1.000  H
  N30      1.0000 0.07650  0.58387  0.70187  Biso   1.000  N
  O88      1.0000 0.08802  0.55662  0.60804  Biso   1.000  O
  O89      1.0000 0.13087  0.55156  0.54249  Biso   1.000  O
  O90      1.0000 0.16664  0.62153  0.59124  Biso   1.000  O
  H390     1.0000 0.14910  0.60080  0.57940  Biso   1.000  H
  C331     1.0000 0.90110  0.03750  0.93060  Biso   1.000  C
  C332     1.0000 0.93050  0.99570  0.94450  Biso   1.000  C
  C333     1.0000 0.96922  0.98322  0.91789  Biso   1.000  C
  H391     1.0000 0.97760  0.00120  0.89100  Biso   1.000  H
  C334     1.0000 0.84780  0.16650  0.92450  Biso   1.000  C
  C335     1.0000 0.81960  0.20340  0.90600  Biso   1.000  C
  H392     1.0000 0.82830  0.20910  0.87310  Biso   1.000  H
  H393     1.0000 0.82470  0.23210  0.92440  Biso   1.000  H
  H394     1.0000 0.78640  0.19440  0.90770  Biso   1.000  H
  C336     1.0000 0.82240  0.17350  0.96800  Biso   1.000  C
  H395     1.0000 0.83330  0.15070  0.99150  Biso   1.000  H
  H396     1.0000 0.78870  0.16910  0.96250  Biso   1.000  H
  H397     1.0000 0.82810  0.20550  0.97960  Biso   1.000  H
  C337     1.0000 0.91060  0.07800  0.75310  Biso   1.000  C
  H398     1.0000 0.87850  0.08220  0.74450  Biso   1.000  H
  C338     1.0000 0.94220  0.06620  0.71980  Biso   1.000  C
  H399     1.0000 0.93110  0.06150  0.68860  Biso   1.000  H
  C339     1.0000 0.98520  0.06090  0.72750  Biso   1.000  C
  H400     1.0000 0.00670  0.05350  0.70290  Biso   1.000  H
  C340     1.0000 0.99990  0.06640  0.77350  Biso   1.000  C
  H401     1.0000 0.03230  0.06220  0.78110  Biso   1.000  H
  C341     1.0000 0.96850  0.07790  0.80870  Biso   1.000  C
  H402     1.0000 0.97910  0.08140  0.84030  Biso   1.000  H
  N31      1.0000 0.92350  0.08387  0.79813  Biso   1.000  N
  O91      1.0000 0.91198  0.05662  0.89196  Biso   1.000  O
  O92      1.0000 0.86913  0.05156  0.95751  Biso   1.000  O
  O93      1.0000 0.83336  0.12153  0.90876  Biso   1.000  O
  H403     1.0000 0.85090  0.10080  0.92060  Biso   1.000  H
  C342     1.0000 0.40110  0.46250  0.06940  Biso   1.000  C
  C343     1.0000 0.43050  0.50430  0.05550  Biso   1.000  C
  C344     1.0000 0.46922  0.51678  0.08211  Biso   1.000  C
  H404     1.0000 0.47760  0.49880  0.10900  Biso   1.000  H
  C345     1.0000 0.34780  0.33350  0.07550  Biso   1.000  C
  C346     1.0000 0.31960  0.29660  0.09400  Biso   1.000  C
  H405     1.0000 0.32830  0.29090  0.12690  Biso   1.000  H
  H406     1.0000 0.32470  0.26790  0.07560  Biso   1.000  H
  H407     1.0000 0.28640  0.30560  0.09230  Biso   1.000  H
  C347     1.0000 0.32240  0.32650  0.03200  Biso   1.000  C
  H408     1.0000 0.33330  0.34930  0.00850  Biso   1.000  H
  H409     1.0000 0.28870  0.33090  0.03750  Biso   1.000  H
  H410     1.0000 0.32810  0.29450  0.02040  Biso   1.000  H
  C348     1.0000 0.41060  0.42200  0.24690  Biso   1.000  C
  H411     1.0000 0.37850  0.41780  0.25550  Biso   1.000  H
  C349     1.0000 0.44220  0.43380  0.28020  Biso   1.000  C
  H412     1.0000 0.43110  0.43850  0.31140  Biso   1.000  H
  C350     1.0000 0.48520  0.43910  0.27250  Biso   1.000  C
  H413     1.0000 0.50670  0.44650  0.29710  Biso   1.000  H
  C351     1.0000 0.49990  0.43360  0.22650  Biso   1.000  C
  H414     1.0000 0.53230  0.43780  0.21890  Biso   1.000  H
  C352     1.0000 0.46850  0.42210  0.19130  Biso   1.000  C
  H415     1.0000 0.47910  0.41860  0.15970  Biso   1.000  H
  N32      1.0000 0.42350  0.41613  0.20187  Biso   1.000  N
  O94      1.0000 0.41198  0.44338  0.10804  Biso   1.000  O
  O95      1.0000 0.36913  0.44844  0.04249  Biso   1.000  O
  O96      1.0000 0.33336  0.37847  0.09124  Biso   1.000  O
  H416     1.0000 0.35090  0.39920  0.07940  Biso   1.000  H
  C353     1.0000 0.43060  0.59890  0.96250  Biso   1.000  C
  C354     1.0000 0.44450  0.56950  0.00430  Biso   1.000  C
  C355     1.0000 0.41789  0.53078  0.01678  Biso   1.000  C
  H417     1.0000 0.39100  0.52240  0.99880  Biso   1.000  H
  C356     1.0000 0.42450  0.65220  0.83350  Biso   1.000  C
  C357     1.0000 0.40600  0.68040  0.79660  Biso   1.000  C
  H418     1.0000 0.37310  0.67170  0.79090  Biso   1.000  H
  H419     1.0000 0.42440  0.67530  0.76790  Biso   1.000  H
  H420     1.0000 0.40770  0.71360  0.80560  Biso   1.000  H
  C358     1.0000 0.46800  0.67760  0.82650  Biso   1.000  C
  H421     1.0000 0.49150  0.66670  0.84930  Biso   1.000  H
  H422     1.0000 0.46250  0.71130  0.83090  Biso   1.000  H
  H423     1.0000 0.47960  0.67190  0.79450  Biso   1.000  H
  C359     1.0000 0.25310  0.58940  0.92200  Biso   1.000  C
  H424     1.0000 0.24450  0.62150  0.91780  Biso   1.000  H
  C360     1.0000 0.21980  0.55780  0.93380  Biso   1.000  C
  H425     1.0000 0.18860  0.56890  0.93850  Biso   1.000  H
  C361     1.0000 0.22750  0.51480  0.93910  Biso   1.000  C
  H426     1.0000 0.20290  0.49330  0.94650  Biso   1.000  H
  C362     1.0000 0.27350  0.50010  0.93360  Biso   1.000  C
  H427     1.0000 0.28110  0.46770  0.93780  Biso   1.000  H
  C363     1.0000 0.30870  0.53150  0.92210  Biso   1.000  C
  H428     1.0000 0.34030  0.52090  0.91860  Biso   1.000  H
  N33      1.0000 0.29813  0.57650  0.91613  Biso   1.000  N
  O97      1.0000 0.39196  0.58802  0.94338  Biso   1.000  O
  O98      1.0000 0.45751  0.63087  0.94844  Biso   1.000  O
  O99      1.0000 0.40876  0.66664  0.87847  Biso   1.000  O
  H429     1.0000 0.42060  0.64910  0.89920  Biso   1.000  H
  C364     1.0000 0.56940  0.09890  0.53750  Biso   1.000  C
  C365     1.0000 0.55550  0.06950  0.49570  Biso   1.000  C
  C366     1.0000 0.58211  0.03078  0.48322  Biso   1.000  C
  H430     1.0000 0.60900  0.02240  0.50120  Biso   1.000  H
  C367     1.0000 0.57550  0.15220  0.66650  Biso   1.000  C
  C368     1.0000 0.59400  0.18040  0.70340  Biso   1.000  C
  H431     1.0000 0.62690  0.17170  0.70910  Biso   1.000  H
  H432     1.0000 0.57560  0.17530  0.73210  Biso   1.000  H
  H433     1.0000 0.59230  0.21360  0.69440  Biso   1.000  H
  C369     1.0000 0.53200  0.17760  0.67350  Biso   1.000  C
  H434     1.0000 0.50850  0.16670  0.65070  Biso   1.000  H
  H435     1.0000 0.53750  0.21130  0.66910  Biso   1.000  H
  H436     1.0000 0.52040  0.17190  0.70550  Biso   1.000  H
  C370     1.0000 0.74690  0.08940  0.57800  Biso   1.000  C
  H437     1.0000 0.75550  0.12150  0.58220  Biso   1.000  H
  C371     1.0000 0.78020  0.05780  0.56620  Biso   1.000  C
  H438     1.0000 0.81140  0.06890  0.56150  Biso   1.000  H
  C372     1.0000 0.77250  0.01480  0.56090  Biso   1.000  C
  H439     1.0000 0.79710  0.99330  0.55350  Biso   1.000  H
  C373     1.0000 0.72650  0.00010  0.56640  Biso   1.000  C
  H440     1.0000 0.71890  0.96770  0.56220  Biso   1.000  H
  C374     1.0000 0.69130  0.03150  0.57790  Biso   1.000  C
  H441     1.0000 0.65970  0.02090  0.58140  Biso   1.000  H
  N34      1.0000 0.70187  0.07650  0.58387  Biso   1.000  N
  O100     1.0000 0.60804  0.08802  0.55662  Biso   1.000  O
  O101     1.0000 0.54249  0.13087  0.55156  Biso   1.000  O
  O102     1.0000 0.59124  0.16664  0.62153  Biso   1.000  O
  H442     1.0000 0.57940  0.14910  0.60080  Biso   1.000  H
  C375     1.0000 0.93060  0.90110  0.03750  Biso   1.000  C
  C376     1.0000 0.94450  0.93050  0.99570  Biso   1.000  C
  C377     1.0000 0.91789  0.96922  0.98322  Biso   1.000  C
  H443     1.0000 0.89100  0.97760  0.00120  Biso   1.000  H
  C378     1.0000 0.92450  0.84780  0.16650  Biso   1.000  C
  C379     1.0000 0.90600  0.81960  0.20340  Biso   1.000  C
  H444     1.0000 0.87310  0.82830  0.20910  Biso   1.000  H
  H445     1.0000 0.92440  0.82470  0.23210  Biso   1.000  H
  H446     1.0000 0.90770  0.78640  0.19440  Biso   1.000  H
  C380     1.0000 0.96800  0.82240  0.17350  Biso   1.000  C
  H447     1.0000 0.99150  0.83330  0.15070  Biso   1.000  H
  H448     1.0000 0.96250  0.78870  0.16910  Biso   1.000  H
  H449     1.0000 0.97960  0.82810  0.20550  Biso   1.000  H
  C381     1.0000 0.75310  0.91060  0.07800  Biso   1.000  C
  H450     1.0000 0.74450  0.87850  0.08220  Biso   1.000  H
  C382     1.0000 0.71980  0.94220  0.06620  Biso   1.000  C
  H451     1.0000 0.68860  0.93110  0.06150  Biso   1.000  H
  C383     1.0000 0.72750  0.98520  0.06090  Biso   1.000  C
  H452     1.0000 0.70290  0.00670  0.05350  Biso   1.000  H
  C384     1.0000 0.77350  0.99990  0.06640  Biso   1.000  C
  H453     1.0000 0.78110  0.03230  0.06220  Biso   1.000  H
  C385     1.0000 0.80870  0.96850  0.07790  Biso   1.000  C
  H454     1.0000 0.84030  0.97910  0.08140  Biso   1.000  H
  N35      1.0000 0.79813  0.92350  0.08387  Biso   1.000  N
  O103     1.0000 0.89196  0.91198  0.05662  Biso   1.000  O
  O104     1.0000 0.95751  0.86913  0.05156  Biso   1.000  O
  O105     1.0000 0.90876  0.83336  0.12153  Biso   1.000  O
  H455     1.0000 0.92060  0.85090  0.10080  Biso   1.000  H
  C386     1.0000 0.06940  0.40110  0.46250  Biso   1.000  C
  C387     1.0000 0.05550  0.43050  0.50430  Biso   1.000  C
  C388     1.0000 0.08211  0.46922  0.51678  Biso   1.000  C
  H456     1.0000 0.10900  0.47760  0.49880  Biso   1.000  H
  C389     1.0000 0.07550  0.34780  0.33350  Biso   1.000  C
  C390     1.0000 0.09400  0.31960  0.29660  Biso   1.000  C
  H457     1.0000 0.12690  0.32830  0.29090  Biso   1.000  H
  H458     1.0000 0.07560  0.32470  0.26790  Biso   1.000  H
  H459     1.0000 0.09230  0.28640  0.30560  Biso   1.000  H
  C391     1.0000 0.03200  0.32240  0.32650  Biso   1.000  C
  H460     1.0000 0.00850  0.33330  0.34930  Biso   1.000  H
  H461     1.0000 0.03750  0.28870  0.33090  Biso   1.000  H
  H462     1.0000 0.02040  0.32810  0.29450  Biso   1.000  H
  C392     1.0000 0.24690  0.41060  0.42200  Biso   1.000  C
  H463     1.0000 0.25550  0.37850  0.41780  Biso   1.000  H
  C393     1.0000 0.28020  0.44220  0.43380  Biso   1.000  C
  H464     1.0000 0.31140  0.43110  0.43850  Biso   1.000  H
  C394     1.0000 0.27250  0.48520  0.43910  Biso   1.000  C
  H465     1.0000 0.29710  0.50670  0.44650  Biso   1.000  H
  C395     1.0000 0.22650  0.49990  0.43360  Biso   1.000  C
  H466     1.0000 0.21890  0.53230  0.43780  Biso   1.000  H
  C396     1.0000 0.19130  0.46850  0.42210  Biso   1.000  C
  H467     1.0000 0.15970  0.47910  0.41860  Biso   1.000  H
  N36      1.0000 0.20187  0.42350  0.41613  Biso   1.000  N
  O106     1.0000 0.10804  0.41198  0.44338  Biso   1.000  O
  O107     1.0000 0.04249  0.36913  0.44844  Biso   1.000  O
  O108     1.0000 0.09124  0.33336  0.37847  Biso   1.000  O
  H468     1.0000 0.07940  0.35090  0.39920  Biso   1.000  H
  C397     1.0000 0.68060  0.71250  0.15110  Biso   1.000  C
  C398     1.0000 0.69450  0.75430  0.18050  Biso   1.000  C
  C399     1.0000 0.66789  0.76678  0.21922  Biso   1.000  C
  H469     1.0000 0.64100  0.74880  0.22760  Biso   1.000  H
  C400     1.0000 0.67450  0.58350  0.09780  Biso   1.000  C
  C401     1.0000 0.65600  0.54660  0.06960  Biso   1.000  C
  H470     1.0000 0.62310  0.54090  0.07830  Biso   1.000  H
  H471     1.0000 0.67440  0.51790  0.07470  Biso   1.000  H
  H472     1.0000 0.65770  0.55560  0.03640  Biso   1.000  H
  C402     1.0000 0.71800  0.57650  0.07240  Biso   1.000  C
  H473     1.0000 0.74150  0.59930  0.08330  Biso   1.000  H
  H474     1.0000 0.71250  0.58090  0.03870  Biso   1.000  H
  H475     1.0000 0.72960  0.54450  0.07810  Biso   1.000  H
  C403     1.0000 0.50310  0.67200  0.16060  Biso   1.000  C
  H476     1.0000 0.49450  0.66780  0.12850  Biso   1.000  H
  C404     1.0000 0.46980  0.68380  0.19220  Biso   1.000  C
  H477     1.0000 0.43860  0.68850  0.18110  Biso   1.000  H
  C405     1.0000 0.47750  0.68910  0.23520  Biso   1.000  C
  H478     1.0000 0.45290  0.69650  0.25670  Biso   1.000  H
  C406     1.0000 0.52350  0.68360  0.24990  Biso   1.000  C
  H479     1.0000 0.53110  0.68780  0.28230  Biso   1.000  H
  C407     1.0000 0.55870  0.67210  0.21850  Biso   1.000  C
  H480     1.0000 0.59030  0.66860  0.22910  Biso   1.000  H
  N37      1.0000 0.54813  0.66613  0.17350  Biso   1.000  N
  O109     1.0000 0.64196  0.69338  0.16198  Biso   1.000  O
  O110     1.0000 0.70751  0.69844  0.11913  Biso   1.000  O
  O111     1.0000 0.65876  0.62847  0.08336  Biso   1.000  O
  H481     1.0000 0.67060  0.64920  0.10090  Biso   1.000  H
  C408     1.0000 0.81940  0.28750  0.65110  Biso   1.000  C
  C409     1.0000 0.80550  0.24570  0.68050  Biso   1.000  C
  C410     1.0000 0.83211  0.23322  0.71922  Biso   1.000  C
  H482     1.0000 0.85900  0.25120  0.72760  Biso   1.000  H
  C411     1.0000 0.82550  0.41650  0.59780  Biso   1.000  C
  C412     1.0000 0.84400  0.45340  0.56960  Biso   1.000  C
  H483     1.0000 0.87690  0.45910  0.57830  Biso   1.000  H
  H484     1.0000 0.82560  0.48210  0.57470  Biso   1.000  H
  H485     1.0000 0.84230  0.44440  0.53640  Biso   1.000  H
  C413     1.0000 0.78200  0.42350  0.57240  Biso   1.000  C
  H486     1.0000 0.75850  0.40070  0.58330  Biso   1.000  H
  H487     1.0000 0.78750  0.41910  0.53870  Biso   1.000  H
  H488     1.0000 0.77040  0.45550  0.57810  Biso   1.000  H
  C414     1.0000 0.99690  0.32800  0.66060  Biso   1.000  C
  H489     1.0000 0.00550  0.33220  0.62850  Biso   1.000  H
  C415     1.0000 0.03020  0.31620  0.69220  Biso   1.000  C
  H490     1.0000 0.06140  0.31150  0.68110  Biso   1.000  H
  C416     1.0000 0.02250  0.31090  0.73520  Biso   1.000  C
  H491     1.0000 0.04710  0.30350  0.75670  Biso   1.000  H
  C417     1.0000 0.97650  0.31640  0.74990  Biso   1.000  C
  H492     1.0000 0.96890  0.31220  0.78230  Biso   1.000  H
  C418     1.0000 0.94130  0.32790  0.71850  Biso   1.000  C
  H493     1.0000 0.90970  0.33140  0.72910  Biso   1.000  H
  N38      1.0000 0.95187  0.33387  0.67350  Biso   1.000  N
  O112     1.0000 0.85804  0.30662  0.66198  Biso   1.000  O
  O113     1.0000 0.79249  0.30156  0.61913  Biso   1.000  O
  O114     1.0000 0.84124  0.37153  0.58336  Biso   1.000  O
  H494     1.0000 0.82940  0.35080  0.60090  Biso   1.000  H
  C419     1.0000 0.18060  0.78750  0.84890  Biso   1.000  C
  C420     1.0000 0.19450  0.74570  0.81950  Biso   1.000  C
  C421     1.0000 0.16789  0.73322  0.78078  Biso   1.000  C
  H495     1.0000 0.14100  0.75120  0.77240  Biso   1.000  H
  C422     1.0000 0.17450  0.91650  0.90220  Biso   1.000  C
  C423     1.0000 0.15600  0.95340  0.93040  Biso   1.000  C
  H496     1.0000 0.12310  0.95910  0.92170  Biso   1.000  H
  H497     1.0000 0.17440  0.98210  0.92530  Biso   1.000  H
  H498     1.0000 0.15770  0.94440  0.96360  Biso   1.000  H
  C424     1.0000 0.21800  0.92350  0.92760  Biso   1.000  C
  H499     1.0000 0.24150  0.90070  0.91670  Biso   1.000  H
  H500     1.0000 0.21250  0.91910  0.96130  Biso   1.000  H
  H501     1.0000 0.22960  0.95550  0.92190  Biso   1.000  H
  C425     1.0000 0.00310  0.82800  0.83940  Biso   1.000  C
  H502     1.0000 0.99450  0.83220  0.87150  Biso   1.000  H
  C426     1.0000 0.96980  0.81620  0.80780  Biso   1.000  C
  H503     1.0000 0.93860  0.81150  0.81890  Biso   1.000  H
  C427     1.0000 0.97750  0.81090  0.76480  Biso   1.000  C
  H504     1.0000 0.95290  0.80350  0.74330  Biso   1.000  H
  C428     1.0000 0.02350  0.81640  0.75010  Biso   1.000  C
  H505     1.0000 0.03110  0.81220  0.71770  Biso   1.000  H
  C429     1.0000 0.05870  0.82790  0.78150  Biso   1.000  C
  H506     1.0000 0.09030  0.83140  0.77090  Biso   1.000  H
  N39      1.0000 0.04813  0.83387  0.82650  Biso   1.000  N
  O115     1.0000 0.14196  0.80662  0.83802  Biso   1.000  O
  O116     1.0000 0.20751  0.80156  0.88087  Biso   1.000  O
  O117     1.0000 0.15876  0.87153  0.91664  Biso   1.000  O
  H507     1.0000 0.17060  0.85080  0.89910  Biso   1.000  H
  C430     1.0000 0.31940  0.21250  0.34890  Biso   1.000  C
  C431     1.0000 0.30550  0.25430  0.31950  Biso   1.000  C
  C432     1.0000 0.33211  0.26678  0.28078  Biso   1.000  C
  H508     1.0000 0.35900  0.24880  0.27240  Biso   1.000  H
  C433     1.0000 0.32550  0.08350  0.40220  Biso   1.000  C
  C434     1.0000 0.34400  0.04660  0.43040  Biso   1.000  C
  H509     1.0000 0.37690  0.04090  0.42170  Biso   1.000  H
  H510     1.0000 0.32560  0.01790  0.42530  Biso   1.000  H
  H511     1.0000 0.34230  0.05560  0.46360  Biso   1.000  H
  C435     1.0000 0.28200  0.07650  0.42760  Biso   1.000  C
  H512     1.0000 0.25850  0.09930  0.41670  Biso   1.000  H
  H513     1.0000 0.28750  0.08090  0.46130  Biso   1.000  H
  H514     1.0000 0.27040  0.04450  0.42190  Biso   1.000  H
  C436     1.0000 0.49690  0.17200  0.33940  Biso   1.000  C
  H515     1.0000 0.50550  0.16780  0.37150  Biso   1.000  H
  C437     1.0000 0.53020  0.18380  0.30780  Biso   1.000  C
  H516     1.0000 0.56140  0.18850  0.31890  Biso   1.000  H
  C438     1.0000 0.52250  0.18910  0.26480  Biso   1.000  C
  H517     1.0000 0.54710  0.19650  0.24330  Biso   1.000  H
  C439     1.0000 0.47650  0.18360  0.25010  Biso   1.000  C
  H518     1.0000 0.46890  0.18780  0.21770  Biso   1.000  H
  C440     1.0000 0.44130  0.17210  0.28150  Biso   1.000  C
  H519     1.0000 0.40970  0.16860  0.27090  Biso   1.000  H
  N40      1.0000 0.45187  0.16613  0.32650  Biso   1.000  N
  O118     1.0000 0.35804  0.19338  0.33802  Biso   1.000  O
  O119     1.0000 0.29249  0.19844  0.38087  Biso   1.000  O
  O120     1.0000 0.34124  0.12847  0.41664  Biso   1.000  O
  H520     1.0000 0.32940  0.14920  0.39910  Biso   1.000  H
  C441     1.0000 0.21250  0.34890  0.31940  Biso   1.000  C
  C442     1.0000 0.25430  0.31950  0.30550  Biso   1.000  C
  C443     1.0000 0.26678  0.28078  0.33211  Biso   1.000  C
  H521     1.0000 0.24880  0.27240  0.35900  Biso   1.000  H
  C444     1.0000 0.08350  0.40220  0.32550  Biso   1.000  C
  C445     1.0000 0.04660  0.43040  0.34400  Biso   1.000  C
  H522     1.0000 0.04090  0.42170  0.37690  Biso   1.000  H
  H523     1.0000 0.01790  0.42530  0.32560  Biso   1.000  H
  H524     1.0000 0.05560  0.46360  0.34230  Biso   1.000  H
  C446     1.0000 0.07650  0.42760  0.28200  Biso   1.000  C
  H525     1.0000 0.09930  0.41670  0.25850  Biso   1.000  H
  H526     1.0000 0.08090  0.46130  0.28750  Biso   1.000  H
  H527     1.0000 0.04450  0.42190  0.27040  Biso   1.000  H
  C447     1.0000 0.17200  0.33940  0.49690  Biso   1.000  C
  H528     1.0000 0.16780  0.37150  0.50550  Biso   1.000  H
  C448     1.0000 0.18380  0.30780  0.53020  Biso   1.000  C
  H529     1.0000 0.18850  0.31890  0.56140  Biso   1.000  H
  C449     1.0000 0.18910  0.26480  0.52250  Biso   1.000  C
  H530     1.0000 0.19650  0.24330  0.54710  Biso   1.000  H
  C450     1.0000 0.18360  0.25010  0.47650  Biso   1.000  C
  H531     1.0000 0.18780  0.21770  0.46890  Biso   1.000  H
  C451     1.0000 0.17210  0.28150  0.44130  Biso   1.000  C
  H532     1.0000 0.16860  0.27090  0.40970  Biso   1.000  H
  N41      1.0000 0.16613  0.32650  0.45187  Biso   1.000  N
  O121     1.0000 0.19338  0.33802  0.35804  Biso   1.000  O
  O122     1.0000 0.19844  0.38087  0.29249  Biso   1.000  O
  O123     1.0000 0.12847  0.41664  0.34124  Biso   1.000  O
  H533     1.0000 0.14920  0.39910  0.32940  Biso   1.000  H
  C452     1.0000 0.78750  0.84890  0.18060  Biso   1.000  C
  C453     1.0000 0.74570  0.81950  0.19450  Biso   1.000  C
  C454     1.0000 0.73322  0.78078  0.16789  Biso   1.000  C
  H534     1.0000 0.75120  0.77240  0.14100  Biso   1.000  H
  C455     1.0000 0.91650  0.90220  0.17450  Biso   1.000  C
  C456     1.0000 0.95340  0.93040  0.15600  Biso   1.000  C
  H535     1.0000 0.95910  0.92170  0.12310  Biso   1.000  H
  H536     1.0000 0.98210  0.92530  0.17440  Biso   1.000  H
  H537     1.0000 0.94440  0.96360  0.15770  Biso   1.000  H
  C457     1.0000 0.92350  0.92760  0.21800  Biso   1.000  C
  H538     1.0000 0.90070  0.91670  0.24150  Biso   1.000  H
  H539     1.0000 0.91910  0.96130  0.21250  Biso   1.000  H
  H540     1.0000 0.95550  0.92190  0.22960  Biso   1.000  H
  C458     1.0000 0.82800  0.83940  0.00310  Biso   1.000  C
  H541     1.0000 0.83220  0.87150  0.99450  Biso   1.000  H
  C459     1.0000 0.81620  0.80780  0.96980  Biso   1.000  C
  H542     1.0000 0.81150  0.81890  0.93860  Biso   1.000  H
  C460     1.0000 0.81090  0.76480  0.97750  Biso   1.000  C
  H543     1.0000 0.80350  0.74330  0.95290  Biso   1.000  H
  C461     1.0000 0.81640  0.75010  0.02350  Biso   1.000  C
  H544     1.0000 0.81220  0.71770  0.03110  Biso   1.000  H
  C462     1.0000 0.82790  0.78150  0.05870  Biso   1.000  C
  H545     1.0000 0.83140  0.77090  0.09030  Biso   1.000  H
  N42      1.0000 0.83387  0.82650  0.04813  Biso   1.000  N
  O124     1.0000 0.80662  0.83802  0.14196  Biso   1.000  O
  O125     1.0000 0.80156  0.88087  0.20751  Biso   1.000  O
  O126     1.0000 0.87153  0.91664  0.15876  Biso   1.000  O
  H546     1.0000 0.85080  0.89910  0.17060  Biso   1.000  H
  C463     1.0000 0.28750  0.65110  0.81940  Biso   1.000  C
  C464     1.0000 0.24570  0.68050  0.80550  Biso   1.000  C
  C465     1.0000 0.23322  0.71922  0.83211  Biso   1.000  C
  H547     1.0000 0.25120  0.72760  0.85900  Biso   1.000  H
  C466     1.0000 0.41650  0.59780  0.82550  Biso   1.000  C
  C467     1.0000 0.45340  0.56960  0.84400  Biso   1.000  C
  H548     1.0000 0.45910  0.57830  0.87690  Biso   1.000  H
  H549     1.0000 0.48210  0.57470  0.82560  Biso   1.000  H
  H550     1.0000 0.44440  0.53640  0.84230  Biso   1.000  H
  C468     1.0000 0.42350  0.57240  0.78200  Biso   1.000  C
  H551     1.0000 0.40070  0.58330  0.75850  Biso   1.000  H
  H552     1.0000 0.41910  0.53870  0.78750  Biso   1.000  H
  H553     1.0000 0.45550  0.57810  0.77040  Biso   1.000  H
  C469     1.0000 0.32800  0.66060  0.99690  Biso   1.000  C
  H554     1.0000 0.33220  0.62850  0.00550  Biso   1.000  H
  C470     1.0000 0.31620  0.69220  0.03020  Biso   1.000  C
  H555     1.0000 0.31150  0.68110  0.06140  Biso   1.000  H
  C471     1.0000 0.31090  0.73520  0.02250  Biso   1.000  C
  H556     1.0000 0.30350  0.75670  0.04710  Biso   1.000  H
  C472     1.0000 0.31640  0.74990  0.97650  Biso   1.000  C
  H557     1.0000 0.31220  0.78230  0.96890  Biso   1.000  H
  C473     1.0000 0.32790  0.71850  0.94130  Biso   1.000  C
  H558     1.0000 0.33140  0.72910  0.90970  Biso   1.000  H
  N43      1.0000 0.33387  0.67350  0.95187  Biso   1.000  N
  O127     1.0000 0.30662  0.66198  0.85804  Biso   1.000  O
  O128     1.0000 0.30156  0.61913  0.79249  Biso   1.000  O
  O129     1.0000 0.37153  0.58336  0.84124  Biso   1.000  O
  H559     1.0000 0.35080  0.60090  0.82940  Biso   1.000  H
  C474     1.0000 0.71250  0.15110  0.68060  Biso   1.000  C
  C475     1.0000 0.75430  0.18050  0.69450  Biso   1.000  C
  C476     1.0000 0.76678  0.21922  0.66789  Biso   1.000  C
  H560     1.0000 0.74880  0.22760  0.64100  Biso   1.000  H
  C477     1.0000 0.58350  0.09780  0.67450  Biso   1.000  C
  C478     1.0000 0.54660  0.06960  0.65600  Biso   1.000  C
  H561     1.0000 0.54090  0.07830  0.62310  Biso   1.000  H
  H562     1.0000 0.51790  0.07470  0.67440  Biso   1.000  H
  H563     1.0000 0.55560  0.03640  0.65770  Biso   1.000  H
  C479     1.0000 0.57650  0.07240  0.71800  Biso   1.000  C
  H564     1.0000 0.59930  0.08330  0.74150  Biso   1.000  H
  H565     1.0000 0.58090  0.03870  0.71250  Biso   1.000  H
  H566     1.0000 0.54450  0.07810  0.72960  Biso   1.000  H
  C480     1.0000 0.67200  0.16060  0.50310  Biso   1.000  C
  H567     1.0000 0.66780  0.12850  0.49450  Biso   1.000  H
  C481     1.0000 0.68380  0.19220  0.46980  Biso   1.000  C
  H568     1.0000 0.68850  0.18110  0.43860  Biso   1.000  H
  C482     1.0000 0.68910  0.23520  0.47750  Biso   1.000  C
  H569     1.0000 0.69650  0.25670  0.45290  Biso   1.000  H
  C483     1.0000 0.68360  0.24990  0.52350  Biso   1.000  C
  H570     1.0000 0.68780  0.28230  0.53110  Biso   1.000  H
  C484     1.0000 0.67210  0.21850  0.55870  Biso   1.000  C
  H571     1.0000 0.66860  0.22910  0.59030  Biso   1.000  H
  N44      1.0000 0.66613  0.17350  0.54813  Biso   1.000  N
  O130     1.0000 0.69338  0.16198  0.64196  Biso   1.000  O
  O131     1.0000 0.69844  0.11913  0.70751  Biso   1.000  O
  O132     1.0000 0.62847  0.08336  0.65876  Biso   1.000  O
  H572     1.0000 0.64920  0.10090  0.67060  Biso   1.000  H
  C485     1.0000 0.84890  0.18060  0.78750  Biso   1.000  C
  C486     1.0000 0.81950  0.19450  0.74570  Biso   1.000  C
  C487     1.0000 0.78078  0.16789  0.73322  Biso   1.000  C
  H573     1.0000 0.77240  0.14100  0.75120  Biso   1.000  H
  C488     1.0000 0.90220  0.17450  0.91650  Biso   1.000  C
  C489     1.0000 0.93040  0.15600  0.95340  Biso   1.000  C
  H574     1.0000 0.92170  0.12310  0.95910  Biso   1.000  H
  H575     1.0000 0.92530  0.17440  0.98210  Biso   1.000  H
  H576     1.0000 0.96360  0.15770  0.94440  Biso   1.000  H
  C490     1.0000 0.92760  0.21800  0.92350  Biso   1.000  C
  H577     1.0000 0.91670  0.24150  0.90070  Biso   1.000  H
  H578     1.0000 0.96130  0.21250  0.91910  Biso   1.000  H
  H579     1.0000 0.92190  0.22960  0.95550  Biso   1.000  H
  C491     1.0000 0.83940  0.00310  0.82800  Biso   1.000  C
  H580     1.0000 0.87150  0.99450  0.83220  Biso   1.000  H
  C492     1.0000 0.80780  0.96980  0.81620  Biso   1.000  C
  H581     1.0000 0.81890  0.93860  0.81150  Biso   1.000  H
  C493     1.0000 0.76480  0.97750  0.81090  Biso   1.000  C
  H582     1.0000 0.74330  0.95290  0.80350  Biso   1.000  H
  C494     1.0000 0.75010  0.02350  0.81640  Biso   1.000  C
  H583     1.0000 0.71770  0.03110  0.81220  Biso   1.000  H
  C495     1.0000 0.78150  0.05870  0.82790  Biso   1.000  C
  H584     1.0000 0.77090  0.09030  0.83140  Biso   1.000  H
  N45      1.0000 0.82650  0.04813  0.83387  Biso   1.000  N
  O133     1.0000 0.83802  0.14196  0.80662  Biso   1.000  O
  O134     1.0000 0.88087  0.20751  0.80156  Biso   1.000  O
  O135     1.0000 0.91664  0.15876  0.87153  Biso   1.000  O
  H585     1.0000 0.89910  0.17060  0.85080  Biso   1.000  H
  C496     1.0000 0.34890  0.31940  0.21250  Biso   1.000  C
  C497     1.0000 0.31950  0.30550  0.25430  Biso   1.000  C
  C498     1.0000 0.28078  0.33211  0.26678  Biso   1.000  C
  H586     1.0000 0.27240  0.35900  0.24880  Biso   1.000  H
  C499     1.0000 0.40220  0.32550  0.08350  Biso   1.000  C
  C500     1.0000 0.43040  0.34400  0.04660  Biso   1.000  C
  H587     1.0000 0.42170  0.37690  0.04090  Biso   1.000  H
  H588     1.0000 0.42530  0.32560  0.01790  Biso   1.000  H
  H589     1.0000 0.46360  0.34230  0.05560  Biso   1.000  H
  C501     1.0000 0.42760  0.28200  0.07650  Biso   1.000  C
  H590     1.0000 0.41670  0.25850  0.09930  Biso   1.000  H
  H591     1.0000 0.46130  0.28750  0.08090  Biso   1.000  H
  H592     1.0000 0.42190  0.27040  0.04450  Biso   1.000  H
  C502     1.0000 0.33940  0.49690  0.17200  Biso   1.000  C
  H593     1.0000 0.37150  0.50550  0.16780  Biso   1.000  H
  C503     1.0000 0.30780  0.53020  0.18380  Biso   1.000  C
  H594     1.0000 0.31890  0.56140  0.18850  Biso   1.000  H
  C504     1.0000 0.26480  0.52250  0.18910  Biso   1.000  C
  H595     1.0000 0.24330  0.54710  0.19650  Biso   1.000  H
  C505     1.0000 0.25010  0.47650  0.18360  Biso   1.000  C
  H596     1.0000 0.21770  0.46890  0.18780  Biso   1.000  H
  C506     1.0000 0.28150  0.44130  0.17210  Biso   1.000  C
  H597     1.0000 0.27090  0.40970  0.16860  Biso   1.000  H
  N46      1.0000 0.32650  0.45187  0.16613  Biso   1.000  N
  O136     1.0000 0.33802  0.35804  0.19338  Biso   1.000  O
  O137     1.0000 0.38087  0.29249  0.19844  Biso   1.000  O
  O138     1.0000 0.41664  0.34124  0.12847  Biso   1.000  O
  H598     1.0000 0.39910  0.32940  0.14920  Biso   1.000  H
  C507     1.0000 0.15110  0.68060  0.71250  Biso   1.000  C
  C508     1.0000 0.18050  0.69450  0.75430  Biso   1.000  C
  C509     1.0000 0.21922  0.66789  0.76678  Biso   1.000  C
  H599     1.0000 0.22760  0.64100  0.74880  Biso   1.000  H
  C510     1.0000 0.09780  0.67450  0.58350  Biso   1.000  C
  C511     1.0000 0.06960  0.65600  0.54660  Biso   1.000  C
  H600     1.0000 0.07830  0.62310  0.54090  Biso   1.000  H
  H601     1.0000 0.07470  0.67440  0.51790  Biso   1.000  H
  H602     1.0000 0.03640  0.65770  0.55560  Biso   1.000  H
  C512     1.0000 0.07240  0.71800  0.57650  Biso   1.000  C
  H603     1.0000 0.08330  0.74150  0.59930  Biso   1.000  H
  H604     1.0000 0.03870  0.71250  0.58090  Biso   1.000  H
  H605     1.0000 0.07810  0.72960  0.54450  Biso   1.000  H
  C513     1.0000 0.16060  0.50310  0.67200  Biso   1.000  C
  H606     1.0000 0.12850  0.49450  0.66780  Biso   1.000  H
  C514     1.0000 0.19220  0.46980  0.68380  Biso   1.000  C
  H607     1.0000 0.18110  0.43860  0.68850  Biso   1.000  H
  C515     1.0000 0.23520  0.47750  0.68910  Biso   1.000  C
  H608     1.0000 0.25670  0.45290  0.69650  Biso   1.000  H
  C516     1.0000 0.24990  0.52350  0.68360  Biso   1.000  C
  H609     1.0000 0.28230  0.53110  0.68780  Biso   1.000  H
  C517     1.0000 0.21850  0.55870  0.67210  Biso   1.000  C
  H610     1.0000 0.22910  0.59030  0.66860  Biso   1.000  H
  N47      1.0000 0.17350  0.54813  0.66613  Biso   1.000  N
  O139     1.0000 0.16198  0.64196  0.69338  Biso   1.000  O
  O140     1.0000 0.11913  0.70751  0.69844  Biso   1.000  O
  O141     1.0000 0.08336  0.65876  0.62847  Biso   1.000  O
  H611     1.0000 0.10090  0.67060  0.64920  Biso   1.000  H
  C518     1.0000 0.65110  0.81940  0.28750  Biso   1.000  C
  C519     1.0000 0.68050  0.80550  0.24570  Biso   1.000  C
  C520     1.0000 0.71922  0.83211  0.23322  Biso   1.000  C
  H612     1.0000 0.72760  0.85900  0.25120  Biso   1.000  H
  C521     1.0000 0.59780  0.82550  0.41650  Biso   1.000  C
  C522     1.0000 0.56960  0.84400  0.45340  Biso   1.000  C
  H613     1.0000 0.57830  0.87690  0.45910  Biso   1.000  H
  H614     1.0000 0.57470  0.82560  0.48210  Biso   1.000  H
  H615     1.0000 0.53640  0.84230  0.44440  Biso   1.000  H
  C523     1.0000 0.57240  0.78200  0.42350  Biso   1.000  C
  H616     1.0000 0.58330  0.75850  0.40070  Biso   1.000  H
  H617     1.0000 0.53870  0.78750  0.41910  Biso   1.000  H
  H618     1.0000 0.57810  0.77040  0.45550  Biso   1.000  H
  C524     1.0000 0.66060  0.99690  0.32800  Biso   1.000  C
  H619     1.0000 0.62850  0.00550  0.33220  Biso   1.000  H
  C525     1.0000 0.69220  0.03020  0.31620  Biso   1.000  C
  H620     1.0000 0.68110  0.06140  0.31150  Biso   1.000  H
  C526     1.0000 0.73520  0.02250  0.31090  Biso   1.000  C
  H621     1.0000 0.75670  0.04710  0.30350  Biso   1.000  H
  C527     1.0000 0.74990  0.97650  0.31640  Biso   1.000  C
  H622     1.0000 0.78230  0.96890  0.31220  Biso   1.000  H
  C528     1.0000 0.71850  0.94130  0.32790  Biso   1.000  C
  H623     1.0000 0.72910  0.90970  0.33140  Biso   1.000  H
  N48      1.0000 0.67350  0.95187  0.33387  Biso   1.000  N
  O142     1.0000 0.66198  0.85804  0.30662  Biso   1.000  O
  O143     1.0000 0.61913  0.79249  0.30156  Biso   1.000  O
  O144     1.0000 0.58336  0.84124  0.37153  Biso   1.000  O
  H624     1.0000 0.60090  0.82940  0.35080  Biso   1.000  H
  Ni13     1.0000 0.60100  0.64900  0.12500  Biso   1.000  Ni
  Ni14     1.0000 0.89900  0.35100  0.62500  Biso   1.000  Ni
  Ni15     1.0000 0.10100  0.85100  0.87500  Biso   1.000  Ni
  Ni16     1.0000 0.39900  0.14900  0.37500  Biso   1.000  Ni
  Ni17     1.0000 0.14900  0.37500  0.39900  Biso   1.000  Ni
  Ni18     1.0000 0.85100  0.87500  0.10100  Biso   1.000  Ni
  Ni19     1.0000 0.35100  0.62500  0.89900  Biso   1.000  Ni
  Ni20     1.0000 0.64900  0.12500  0.60100  Biso   1.000  Ni
  Ni21     1.0000 0.87500  0.10100  0.85100  Biso   1.000  Ni
  Ni22     1.0000 0.37500  0.39900  0.14900  Biso   1.000  Ni
  Ni23     1.0000 0.12500  0.60100  0.64900  Biso   1.000  Ni
  Ni24     1.0000 0.62500  0.89900  0.35100  Biso   1.000  Ni
