data_image0
_cell_length_a       39.005
_cell_length_b       27.431
_cell_length_c       27.362
_cell_angle_alpha    90
_cell_angle_beta     133.84
_cell_angle_gamma    90

_symmetry_space_group_name_H-M    "P 1"
_symmetry_int_tables_number       1

loop_
  _symmetry_equiv_pos_as_xyz
  'x, y, z'

loop_
  _atom_site_label
  _atom_site_occupancy
  _atom_site_fract_x
  _atom_site_fract_y
  _atom_site_fract_z
  _atom_site_thermal_displace_type
  _atom_site_B_iso_or_equiv
  _atom_site_type_symbol
  C1       1.0000 0.59740  0.30070  0.82280  Biso   1.000  C
  C2       1.0000 0.59680  0.33440  0.86670  Biso   1.000  C
  C3       1.0000 0.63720  0.35670  0.92350  Biso   1.000  C
  H1       1.0000 0.66630  0.35070  0.93730  Biso   1.000  H
  C4       1.0000 0.63430  0.38790  0.95980  Biso   1.000  C
  H2       1.0000 0.66190  0.40230  0.99890  Biso   1.000  H
  C5       1.0000 0.59130  0.39850  0.93940  Biso   1.000  C
  C6       1.0000 0.55070  0.37590  0.88210  Biso   1.000  C
  H3       1.0000 0.52150  0.38270  0.86790  Biso   1.000  H
  C7       1.0000 0.55280  0.34410  0.84660  Biso   1.000  C
  H4       1.0000 0.52530  0.32850  0.80890  Biso   1.000  H
  C8       1.0000 0.58870  0.43460  0.97760  Biso   1.000  C
  C9       1.0000 0.61080  0.43050  0.03830  Biso   1.000  C
  C10      1.0000 0.61310  0.46790  0.08180  Biso   1.000  C
  H5       1.0000 0.63040  0.46270  0.12730  Biso   1.000  H
  C11      1.0000 0.58820  0.50910  0.04930  Biso   1.000  C
  C12      1.0000 0.55240  0.50670  0.97820  Biso   1.000  C
  C13      1.0000 0.55110  0.47390  0.93840  Biso   1.000  C
  H6       1.0000 0.52900  0.47600  0.89140  Biso   1.000  H
  C14      1.0000 0.63260  0.60970  0.17400  Biso   1.000  C
  H7       1.0000 0.66190  0.62340  0.21080  Biso   1.000  H
  C15      1.0000 0.63070  0.57100  0.13940  Biso   1.000  C
  H8       1.0000 0.65870  0.55970  0.15290  Biso   1.000  H
  C16      1.0000 0.58870  0.54900  0.08620  Biso   1.000  C
  C17      1.0000 0.54830  0.56720  0.06770  Biso   1.000  C
  H9       1.0000 0.51920  0.55360  0.03060  Biso   1.000  H
  C18      1.0000 0.54940  0.60480  0.10200  Biso   1.000  C
  H10      1.0000 0.52160  0.61460  0.09010  Biso   1.000  H
  C19      1.0000 0.59230  0.62810  0.15480  Biso   1.000  C
  C20      1.0000 0.59340  0.67160  0.18920  Biso   1.000  C
  C21      1.0000 0.47420  0.53930  0.85810  Biso   1.000  C
  H11      1.0000 0.48340  0.54170  0.83310  Biso   1.000  H
  H12      1.0000 0.45630  0.50950  0.84540  Biso   1.000  H
  C22      1.0000 0.44580  0.58430  0.84650  Biso   1.000  C
  H13      1.0000 0.41720  0.58670  0.79930  Biso   1.000  H
  H14      1.0000 0.46470  0.61310  0.86040  Biso   1.000  H
  H15      1.0000 0.43780  0.58120  0.87260  Biso   1.000  H
  C23      1.0000 0.60630  0.19930  0.67370  Biso   1.000  C
  C24      1.0000 0.60760  0.16560  0.63140  Biso   1.000  C
  C25      1.0000 0.56650  0.15140  0.56910  Biso   1.000  C
  H16      1.0000 0.53750  0.16350  0.55120  Biso   1.000  H
  C26      1.0000 0.56860  0.11940  0.53310  Biso   1.000  C
  H17      1.0000 0.54020  0.10940  0.49080  Biso   1.000  H
  C27      1.0000 0.61090  0.10070  0.55640  Biso   1.000  C
  C28      1.0000 0.65230  0.11750  0.61850  Biso   1.000  C
  H18      1.0000 0.68150  0.10700  0.63540  Biso   1.000  H
  C29      1.0000 0.65100  0.14940  0.65560  Biso   1.000  C
  H19      1.0000 0.67930  0.16040  0.69730  Biso   1.000  H
  C30      1.0000 0.60970  0.06280  0.51750  Biso   1.000  C
  C31      1.0000 0.58480  0.06860  0.44900  Biso   1.000  C
  C32      1.0000 0.58560  0.03290  0.41510  Biso   1.000  C
  H20      1.0000 0.56740  0.03830  0.36930  Biso   1.000  H
  C33      1.0000 0.60970  0.99100  0.44080  Biso   1.000  C
  C34      1.0000 0.63430  0.98120  0.51020  Biso   1.000  C
  C35      1.0000 0.63560  0.02190  0.55080  Biso   1.000  C
  H21      1.0000 0.65380  0.01830  0.59690  Biso   1.000  H
  C36      1.0000 0.56520  0.89890  0.30640  Biso   1.000  C
  H22      1.0000 0.53660  0.89010  0.26360  Biso   1.000  H
  C37      1.0000 0.56570  0.93660  0.34080  Biso   1.000  C
  H23      1.0000 0.53750  0.95200  0.32190  Biso   1.000  H
  C38      1.0000 0.60910  0.95100  0.40460  Biso   1.000  C
  C39      1.0000 0.64940  0.92810  0.43010  Biso   1.000  C
  H24      1.0000 0.67840  0.93780  0.47180  Biso   1.000  H
  C40      1.0000 0.64840  0.89020  0.39520  Biso   1.000  C
  H25      1.0000 0.67670  0.87570  0.41340  Biso   1.000  H
  C41      1.0000 0.60670  0.87430  0.33510  Biso   1.000  C
  C42      1.0000 0.60460  0.82990  0.30180  Biso   1.000  C
  C43      1.0000 0.54170  0.13270  0.35010  Biso   1.000  C
  H26      1.0000 0.56890  0.13430  0.35530  Biso   1.000  H
  H27      1.0000 0.51650  0.11440  0.30950  Biso   1.000  H
  C44      1.0000 0.52910  0.17100  0.34890  Biso   1.000  C
  H28      1.0000 0.51960  0.18880  0.31100  Biso   1.000  H
  H29      1.0000 0.55460  0.18790  0.39010  Biso   1.000  H
  H30      1.0000 0.50260  0.16820  0.34470  Biso   1.000  H
  C45      1.0000 0.45190  0.26260  0.56280  Biso   1.000  C
  H31      1.0000 0.46840  0.27860  0.55450  Biso   1.000  H
  C46      1.0000 0.40270  0.26260  0.51230  Biso   1.000  C
  H32      1.0000 0.38710  0.27750  0.47090  Biso   1.000  H
  C47      1.0000 0.37770  0.24090  0.52320  Biso   1.000  C
  C48      1.0000 0.40290  0.21670  0.58340  Biso   1.000  C
  H33      1.0000 0.38690  0.19950  0.59180  Biso   1.000  H
  C49      1.0000 0.45090  0.21780  0.63040  Biso   1.000  C
  H34      1.0000 0.46740  0.20130  0.67110  Biso   1.000  H
  C50      1.0000 0.25070  0.24890  0.35800  Biso   1.000  C
  H35      1.0000 0.23530  0.25480  0.31330  Biso   1.000  H
  C51      1.0000 0.29890  0.24710  0.40570  Biso   1.000  C
  H36      1.0000 0.31490  0.25010  0.39180  Biso   1.000  H
  C52      1.0000 0.32390  0.24150  0.46990  Biso   1.000  C
  C53      1.0000 0.29820  0.23040  0.48000  Biso   1.000  C
  H37      1.0000 0.31250  0.22110  0.52330  Biso   1.000  H
  C54      1.0000 0.24940  0.23150  0.42880  Biso   1.000  C
  H38      1.0000 0.23310  0.22220  0.44080  Biso   1.000  H
  N1       1.0000 0.47590  0.24190  0.62050  Biso   1.000  N
  N2       1.0000 0.22540  0.24280  0.37140  Biso   1.000  N
  O1       1.0000 0.56000  0.28400  0.76990  Biso   1.000  O
  O2       1.0000 0.63880  0.29310  0.84670  Biso   1.000  O
  O3       1.0000 0.55560  0.68880  0.16520  Biso   1.000  O
  O4       1.0000 0.63390  0.68820  0.23910  Biso   1.000  O
  O5       1.0000 0.52000  0.54190  0.93910  Biso   1.000  O
  O6       1.0000 0.65080  0.39860  0.07910  Biso   1.000  O
  O7       1.0000 0.56710  0.21230  0.65030  Biso   1.000  O
  O8       1.0000 0.64540  0.21090  0.73160  Biso   1.000  O
  O9       1.0000 0.56400  0.81620  0.24720  Biso   1.000  O
  O10      1.0000 0.64290  0.80870  0.33080  Biso   1.000  O
  O11      1.0000 0.55470  0.11100  0.41120  Biso   1.000  O
  O12      1.0000 0.66280  0.94060  0.54830  Biso   1.000  O
  Zn1      1.0000 0.54856  0.24694  0.69537  Biso   1.000  Zn
  Zn2      1.0000 0.65287  0.25316  0.79921  Biso   1.000  Zn
  C55      1.0000 0.09740  0.80070  0.82280  Biso   1.000  C
  C56      1.0000 0.09680  0.83440  0.86670  Biso   1.000  C
  C57      1.0000 0.13720  0.85670  0.92350  Biso   1.000  C
  H39      1.0000 0.16630  0.85070  0.93730  Biso   1.000  H
  C58      1.0000 0.13430  0.88790  0.95980  Biso   1.000  C
  H40      1.0000 0.16190  0.90230  0.99890  Biso   1.000  H
  C59      1.0000 0.09130  0.89850  0.93940  Biso   1.000  C
  C60      1.0000 0.05070  0.87590  0.88210  Biso   1.000  C
  H41      1.0000 0.02150  0.88270  0.86790  Biso   1.000  H
  C61      1.0000 0.05280  0.84410  0.84660  Biso   1.000  C
  H42      1.0000 0.02530  0.82850  0.80890  Biso   1.000  H
  C62      1.0000 0.08870  0.93460  0.97760  Biso   1.000  C
  C63      1.0000 0.11080  0.93050  0.03830  Biso   1.000  C
  C64      1.0000 0.11310  0.96790  0.08180  Biso   1.000  C
  H43      1.0000 0.13040  0.96270  0.12730  Biso   1.000  H
  C65      1.0000 0.08820  0.00910  0.04930  Biso   1.000  C
  C66      1.0000 0.05240  0.00670  0.97820  Biso   1.000  C
  C67      1.0000 0.05110  0.97390  0.93840  Biso   1.000  C
  H44      1.0000 0.02900  0.97600  0.89140  Biso   1.000  H
  C68      1.0000 0.13260  0.10970  0.17400  Biso   1.000  C
  H45      1.0000 0.16190  0.12340  0.21080  Biso   1.000  H
  C69      1.0000 0.13070  0.07100  0.13940  Biso   1.000  C
  H46      1.0000 0.15870  0.05970  0.15290  Biso   1.000  H
  C70      1.0000 0.08870  0.04900  0.08620  Biso   1.000  C
  C71      1.0000 0.04830  0.06720  0.06770  Biso   1.000  C
  H47      1.0000 0.01920  0.05360  0.03060  Biso   1.000  H
  C72      1.0000 0.04940  0.10480  0.10200  Biso   1.000  C
  H48      1.0000 0.02160  0.11460  0.09010  Biso   1.000  H
  C73      1.0000 0.09230  0.12810  0.15480  Biso   1.000  C
  C74      1.0000 0.09340  0.17160  0.18920  Biso   1.000  C
  C75      1.0000 0.97420  0.03930  0.85810  Biso   1.000  C
  H49      1.0000 0.98340  0.04170  0.83310  Biso   1.000  H
  H50      1.0000 0.95630  0.00950  0.84540  Biso   1.000  H
  C76      1.0000 0.94580  0.08430  0.84650  Biso   1.000  C
  H51      1.0000 0.91720  0.08670  0.79930  Biso   1.000  H
  H52      1.0000 0.96470  0.11310  0.86040  Biso   1.000  H
  H53      1.0000 0.93780  0.08120  0.87260  Biso   1.000  H
  C77      1.0000 0.10630  0.69930  0.67370  Biso   1.000  C
  C78      1.0000 0.10760  0.66560  0.63140  Biso   1.000  C
  C79      1.0000 0.06650  0.65140  0.56910  Biso   1.000  C
  H54      1.0000 0.03750  0.66350  0.55120  Biso   1.000  H
  C80      1.0000 0.06860  0.61940  0.53310  Biso   1.000  C
  H55      1.0000 0.04020  0.60940  0.49080  Biso   1.000  H
  C81      1.0000 0.11090  0.60070  0.55640  Biso   1.000  C
  C82      1.0000 0.15230  0.61750  0.61850  Biso   1.000  C
  H56      1.0000 0.18150  0.60700  0.63540  Biso   1.000  H
  C83      1.0000 0.15100  0.64940  0.65560  Biso   1.000  C
  H57      1.0000 0.17930  0.66040  0.69730  Biso   1.000  H
  C84      1.0000 0.10970  0.56280  0.51750  Biso   1.000  C
  C85      1.0000 0.08480  0.56860  0.44900  Biso   1.000  C
  C86      1.0000 0.08560  0.53290  0.41510  Biso   1.000  C
  H58      1.0000 0.06740  0.53830  0.36930  Biso   1.000  H
  C87      1.0000 0.10970  0.49100  0.44080  Biso   1.000  C
  C88      1.0000 0.13430  0.48120  0.51020  Biso   1.000  C
  C89      1.0000 0.13560  0.52190  0.55080  Biso   1.000  C
  H59      1.0000 0.15380  0.51830  0.59690  Biso   1.000  H
  C90      1.0000 0.06520  0.39890  0.30640  Biso   1.000  C
  H60      1.0000 0.03660  0.39010  0.26360  Biso   1.000  H
  C91      1.0000 0.06570  0.43660  0.34080  Biso   1.000  C
  H61      1.0000 0.03750  0.45200  0.32190  Biso   1.000  H
  C92      1.0000 0.10910  0.45100  0.40460  Biso   1.000  C
  C93      1.0000 0.14940  0.42810  0.43010  Biso   1.000  C
  H62      1.0000 0.17840  0.43780  0.47180  Biso   1.000  H
  C94      1.0000 0.14840  0.39020  0.39520  Biso   1.000  C
  H63      1.0000 0.17670  0.37570  0.41340  Biso   1.000  H
  C95      1.0000 0.10670  0.37430  0.33510  Biso   1.000  C
  C96      1.0000 0.10460  0.32990  0.30180  Biso   1.000  C
  C97      1.0000 0.04170  0.63270  0.35010  Biso   1.000  C
  H64      1.0000 0.06890  0.63430  0.35530  Biso   1.000  H
  H65      1.0000 0.01650  0.61440  0.30950  Biso   1.000  H
  C98      1.0000 0.02910  0.67100  0.34890  Biso   1.000  C
  H66      1.0000 0.01960  0.68880  0.31100  Biso   1.000  H
  H67      1.0000 0.05460  0.68790  0.39010  Biso   1.000  H
  H68      1.0000 0.00260  0.66820  0.34470  Biso   1.000  H
  C99      1.0000 0.95190  0.76260  0.56280  Biso   1.000  C
  H69      1.0000 0.96840  0.77860  0.55450  Biso   1.000  H
  C100     1.0000 0.90270  0.76260  0.51230  Biso   1.000  C
  H70      1.0000 0.88710  0.77750  0.47090  Biso   1.000  H
  C101     1.0000 0.87770  0.74090  0.52320  Biso   1.000  C
  C102     1.0000 0.90290  0.71670  0.58340  Biso   1.000  C
  H71      1.0000 0.88690  0.69950  0.59180  Biso   1.000  H
  C103     1.0000 0.95090  0.71780  0.63040  Biso   1.000  C
  H72      1.0000 0.96740  0.70130  0.67110  Biso   1.000  H
  C104     1.0000 0.75070  0.74890  0.35800  Biso   1.000  C
  H73      1.0000 0.73530  0.75480  0.31330  Biso   1.000  H
  C105     1.0000 0.79890  0.74710  0.40570  Biso   1.000  C
  H74      1.0000 0.81490  0.75010  0.39180  Biso   1.000  H
  C106     1.0000 0.82390  0.74150  0.46990  Biso   1.000  C
  C107     1.0000 0.79820  0.73040  0.48000  Biso   1.000  C
  H75      1.0000 0.81250  0.72110  0.52330  Biso   1.000  H
  C108     1.0000 0.74940  0.73150  0.42880  Biso   1.000  C
  H76      1.0000 0.73310  0.72220  0.44080  Biso   1.000  H
  N3       1.0000 0.97590  0.74190  0.62050  Biso   1.000  N
  N4       1.0000 0.72540  0.74280  0.37140  Biso   1.000  N
  O13      1.0000 0.06000  0.78400  0.76990  Biso   1.000  O
  O14      1.0000 0.13880  0.79310  0.84670  Biso   1.000  O
  O15      1.0000 0.05560  0.18880  0.16520  Biso   1.000  O
  O16      1.0000 0.13390  0.18820  0.23910  Biso   1.000  O
  O17      1.0000 0.02000  0.04190  0.93910  Biso   1.000  O
  O18      1.0000 0.15080  0.89860  0.07910  Biso   1.000  O
  O19      1.0000 0.06710  0.71230  0.65030  Biso   1.000  O
  O20      1.0000 0.14540  0.71090  0.73160  Biso   1.000  O
  O21      1.0000 0.06400  0.31620  0.24720  Biso   1.000  O
  O22      1.0000 0.14290  0.30870  0.33080  Biso   1.000  O
  O23      1.0000 0.05470  0.61100  0.41120  Biso   1.000  O
  O24      1.0000 0.16280  0.44060  0.54830  Biso   1.000  O
  Zn3      1.0000 0.04856  0.74694  0.69537  Biso   1.000  Zn
  Zn4      1.0000 0.15287  0.75316  0.79921  Biso   1.000  Zn
  C109     1.0000 0.59740  0.69930  0.32280  Biso   1.000  C
  C110     1.0000 0.59680  0.66560  0.36670  Biso   1.000  C
  C111     1.0000 0.63720  0.64330  0.42350  Biso   1.000  C
  H77      1.0000 0.66630  0.64930  0.43730  Biso   1.000  H
  C112     1.0000 0.63430  0.61210  0.45980  Biso   1.000  C
  H78      1.0000 0.66190  0.59770  0.49890  Biso   1.000  H
  C113     1.0000 0.59130  0.60150  0.43940  Biso   1.000  C
  C114     1.0000 0.55070  0.62410  0.38210  Biso   1.000  C
  H79      1.0000 0.52150  0.61730  0.36790  Biso   1.000  H
  C115     1.0000 0.55280  0.65590  0.34660  Biso   1.000  C
  H80      1.0000 0.52530  0.67150  0.30890  Biso   1.000  H
  C116     1.0000 0.58870  0.56540  0.47760  Biso   1.000  C
  C117     1.0000 0.61080  0.56950  0.53830  Biso   1.000  C
  C118     1.0000 0.61310  0.53210  0.58180  Biso   1.000  C
  H81      1.0000 0.63040  0.53730  0.62730  Biso   1.000  H
  C119     1.0000 0.58820  0.49090  0.54930  Biso   1.000  C
  C120     1.0000 0.55240  0.49330  0.47820  Biso   1.000  C
  C121     1.0000 0.55110  0.52610  0.43840  Biso   1.000  C
  H82      1.0000 0.52900  0.52400  0.39140  Biso   1.000  H
  C122     1.0000 0.63260  0.39030  0.67400  Biso   1.000  C
  H83      1.0000 0.66190  0.37660  0.71080  Biso   1.000  H
  C123     1.0000 0.63070  0.42900  0.63940  Biso   1.000  C
  H84      1.0000 0.65870  0.44030  0.65290  Biso   1.000  H
  C124     1.0000 0.58870  0.45100  0.58620  Biso   1.000  C
  C125     1.0000 0.54830  0.43280  0.56770  Biso   1.000  C
  H85      1.0000 0.51920  0.44640  0.53060  Biso   1.000  H
  C126     1.0000 0.54940  0.39520  0.60200  Biso   1.000  C
  H86      1.0000 0.52160  0.38540  0.59010  Biso   1.000  H
  C127     1.0000 0.59230  0.37190  0.65480  Biso   1.000  C
  C128     1.0000 0.59340  0.32840  0.68920  Biso   1.000  C
  C129     1.0000 0.47420  0.46070  0.35810  Biso   1.000  C
  H87      1.0000 0.48340  0.45830  0.33310  Biso   1.000  H
  H88      1.0000 0.45630  0.49050  0.34540  Biso   1.000  H
  C130     1.0000 0.44580  0.41570  0.34650  Biso   1.000  C
  H89      1.0000 0.41720  0.41330  0.29930  Biso   1.000  H
  H90      1.0000 0.46470  0.38690  0.36040  Biso   1.000  H
  H91      1.0000 0.43780  0.41880  0.37260  Biso   1.000  H
  C131     1.0000 0.60630  0.80070  0.17370  Biso   1.000  C
  C132     1.0000 0.60760  0.83440  0.13140  Biso   1.000  C
  C133     1.0000 0.56650  0.84860  0.06910  Biso   1.000  C
  H92      1.0000 0.53750  0.83650  0.05120  Biso   1.000  H
  C134     1.0000 0.56860  0.88060  0.03310  Biso   1.000  C
  H93      1.0000 0.54020  0.89060  0.99080  Biso   1.000  H
  C135     1.0000 0.61090  0.89930  0.05640  Biso   1.000  C
  C136     1.0000 0.65230  0.88250  0.11850  Biso   1.000  C
  H94      1.0000 0.68150  0.89300  0.13540  Biso   1.000  H
  C137     1.0000 0.65100  0.85060  0.15560  Biso   1.000  C
  H95      1.0000 0.67930  0.83960  0.19730  Biso   1.000  H
  C138     1.0000 0.60970  0.93720  0.01750  Biso   1.000  C
  C139     1.0000 0.58480  0.93140  0.94900  Biso   1.000  C
  C140     1.0000 0.58560  0.96710  0.91510  Biso   1.000  C
  H96      1.0000 0.56740  0.96170  0.86930  Biso   1.000  H
  C141     1.0000 0.60970  0.00900  0.94080  Biso   1.000  C
  C142     1.0000 0.63430  0.01880  0.01020  Biso   1.000  C
  C143     1.0000 0.63560  0.97810  0.05080  Biso   1.000  C
  H97      1.0000 0.65380  0.98170  0.09690  Biso   1.000  H
  C144     1.0000 0.56520  0.10110  0.80640  Biso   1.000  C
  H98      1.0000 0.53660  0.10990  0.76360  Biso   1.000  H
  C145     1.0000 0.56570  0.06340  0.84080  Biso   1.000  C
  H99      1.0000 0.53750  0.04800  0.82190  Biso   1.000  H
  C146     1.0000 0.60910  0.04900  0.90460  Biso   1.000  C
  C147     1.0000 0.64940  0.07190  0.93010  Biso   1.000  C
  H100     1.0000 0.67840  0.06220  0.97180  Biso   1.000  H
  C148     1.0000 0.64840  0.10980  0.89520  Biso   1.000  C
  H101     1.0000 0.67670  0.12430  0.91340  Biso   1.000  H
  C149     1.0000 0.60670  0.12570  0.83510  Biso   1.000  C
  C150     1.0000 0.60460  0.17010  0.80180  Biso   1.000  C
  C151     1.0000 0.54170  0.86730  0.85010  Biso   1.000  C
  H102     1.0000 0.56890  0.86570  0.85530  Biso   1.000  H
  H103     1.0000 0.51650  0.88560  0.80950  Biso   1.000  H
  C152     1.0000 0.52910  0.82900  0.84890  Biso   1.000  C
  H104     1.0000 0.51960  0.81120  0.81100  Biso   1.000  H
  H105     1.0000 0.55460  0.81210  0.89010  Biso   1.000  H
  H106     1.0000 0.50260  0.83180  0.84470  Biso   1.000  H
  C153     1.0000 0.45190  0.73740  0.06280  Biso   1.000  C
  H107     1.0000 0.46840  0.72140  0.05450  Biso   1.000  H
  C154     1.0000 0.40270  0.73740  0.01230  Biso   1.000  C
  H108     1.0000 0.38710  0.72250  0.97090  Biso   1.000  H
  C155     1.0000 0.37770  0.75910  0.02320  Biso   1.000  C
  C156     1.0000 0.40290  0.78330  0.08340  Biso   1.000  C
  H109     1.0000 0.38690  0.80050  0.09180  Biso   1.000  H
  C157     1.0000 0.45090  0.78220  0.13040  Biso   1.000  C
  H110     1.0000 0.46740  0.79870  0.17110  Biso   1.000  H
  C158     1.0000 0.25070  0.75110  0.85800  Biso   1.000  C
  H111     1.0000 0.23530  0.74520  0.81330  Biso   1.000  H
  C159     1.0000 0.29890  0.75290  0.90570  Biso   1.000  C
  H112     1.0000 0.31490  0.74990  0.89180  Biso   1.000  H
  C160     1.0000 0.32390  0.75850  0.96990  Biso   1.000  C
  C161     1.0000 0.29820  0.76960  0.98000  Biso   1.000  C
  H113     1.0000 0.31250  0.77890  0.02330  Biso   1.000  H
  C162     1.0000 0.24940  0.76850  0.92880  Biso   1.000  C
  H114     1.0000 0.23310  0.77780  0.94080  Biso   1.000  H
  N5       1.0000 0.47590  0.75810  0.12050  Biso   1.000  N
  N6       1.0000 0.22540  0.75720  0.87140  Biso   1.000  N
  O25      1.0000 0.56000  0.71600  0.26990  Biso   1.000  O
  O26      1.0000 0.63880  0.70690  0.34670  Biso   1.000  O
  O27      1.0000 0.55560  0.31120  0.66520  Biso   1.000  O
  O28      1.0000 0.63390  0.31180  0.73910  Biso   1.000  O
  O29      1.0000 0.52000  0.45810  0.43910  Biso   1.000  O
  O30      1.0000 0.65080  0.60140  0.57910  Biso   1.000  O
  O31      1.0000 0.56710  0.78770  0.15030  Biso   1.000  O
  O32      1.0000 0.64540  0.78910  0.23160  Biso   1.000  O
  O33      1.0000 0.56400  0.18380  0.74720  Biso   1.000  O
  O34      1.0000 0.64290  0.19130  0.83080  Biso   1.000  O
  O35      1.0000 0.55470  0.88900  0.91120  Biso   1.000  O
  O36      1.0000 0.66280  0.05940  0.04830  Biso   1.000  O
  Zn5      1.0000 0.54856  0.75306  0.19537  Biso   1.000  Zn
  Zn6      1.0000 0.65287  0.74684  0.29921  Biso   1.000  Zn
  C163     1.0000 0.09740  0.19930  0.32280  Biso   1.000  C
  C164     1.0000 0.09680  0.16560  0.36670  Biso   1.000  C
  C165     1.0000 0.13720  0.14330  0.42350  Biso   1.000  C
  H115     1.0000 0.16630  0.14930  0.43730  Biso   1.000  H
  C166     1.0000 0.13430  0.11210  0.45980  Biso   1.000  C
  H116     1.0000 0.16190  0.09770  0.49890  Biso   1.000  H
  C167     1.0000 0.09130  0.10150  0.43940  Biso   1.000  C
  C168     1.0000 0.05070  0.12410  0.38210  Biso   1.000  C
  H117     1.0000 0.02150  0.11730  0.36790  Biso   1.000  H
  C169     1.0000 0.05280  0.15590  0.34660  Biso   1.000  C
  H118     1.0000 0.02530  0.17150  0.30890  Biso   1.000  H
  C170     1.0000 0.08870  0.06540  0.47760  Biso   1.000  C
  C171     1.0000 0.11080  0.06950  0.53830  Biso   1.000  C
  C172     1.0000 0.11310  0.03210  0.58180  Biso   1.000  C
  H119     1.0000 0.13040  0.03730  0.62730  Biso   1.000  H
  C173     1.0000 0.08820  0.99090  0.54930  Biso   1.000  C
  C174     1.0000 0.05240  0.99330  0.47820  Biso   1.000  C
  C175     1.0000 0.05110  0.02610  0.43840  Biso   1.000  C
  H120     1.0000 0.02900  0.02400  0.39140  Biso   1.000  H
  C176     1.0000 0.13260  0.89030  0.67400  Biso   1.000  C
  H121     1.0000 0.16190  0.87660  0.71080  Biso   1.000  H
  C177     1.0000 0.13070  0.92900  0.63940  Biso   1.000  C
  H122     1.0000 0.15870  0.94030  0.65290  Biso   1.000  H
  C178     1.0000 0.08870  0.95100  0.58620  Biso   1.000  C
  C179     1.0000 0.04830  0.93280  0.56770  Biso   1.000  C
  H123     1.0000 0.01920  0.94640  0.53060  Biso   1.000  H
  C180     1.0000 0.04940  0.89520  0.60200  Biso   1.000  C
  H124     1.0000 0.02160  0.88540  0.59010  Biso   1.000  H
  C181     1.0000 0.09230  0.87190  0.65480  Biso   1.000  C
  C182     1.0000 0.09340  0.82840  0.68920  Biso   1.000  C
  C183     1.0000 0.97420  0.96070  0.35810  Biso   1.000  C
  H125     1.0000 0.98340  0.95830  0.33310  Biso   1.000  H
  H126     1.0000 0.95630  0.99050  0.34540  Biso   1.000  H
  C184     1.0000 0.94580  0.91570  0.34650  Biso   1.000  C
  H127     1.0000 0.91720  0.91330  0.29930  Biso   1.000  H
  H128     1.0000 0.96470  0.88690  0.36040  Biso   1.000  H
  H129     1.0000 0.93780  0.91880  0.37260  Biso   1.000  H
  C185     1.0000 0.10630  0.30070  0.17370  Biso   1.000  C
  C186     1.0000 0.10760  0.33440  0.13140  Biso   1.000  C
  C187     1.0000 0.06650  0.34860  0.06910  Biso   1.000  C
  H130     1.0000 0.03750  0.33650  0.05120  Biso   1.000  H
  C188     1.0000 0.06860  0.38060  0.03310  Biso   1.000  C
  H131     1.0000 0.04020  0.39060  0.99080  Biso   1.000  H
  C189     1.0000 0.11090  0.39930  0.05640  Biso   1.000  C
  C190     1.0000 0.15230  0.38250  0.11850  Biso   1.000  C
  H132     1.0000 0.18150  0.39300  0.13540  Biso   1.000  H
  C191     1.0000 0.15100  0.35060  0.15560  Biso   1.000  C
  H133     1.0000 0.17930  0.33960  0.19730  Biso   1.000  H
  C192     1.0000 0.10970  0.43720  0.01750  Biso   1.000  C
  C193     1.0000 0.08480  0.43140  0.94900  Biso   1.000  C
  C194     1.0000 0.08560  0.46710  0.91510  Biso   1.000  C
  H134     1.0000 0.06740  0.46170  0.86930  Biso   1.000  H
  C195     1.0000 0.10970  0.50900  0.94080  Biso   1.000  C
  C196     1.0000 0.13430  0.51880  0.01020  Biso   1.000  C
  C197     1.0000 0.13560  0.47810  0.05080  Biso   1.000  C
  H135     1.0000 0.15380  0.48170  0.09690  Biso   1.000  H
  C198     1.0000 0.06520  0.60110  0.80640  Biso   1.000  C
  H136     1.0000 0.03660  0.60990  0.76360  Biso   1.000  H
  C199     1.0000 0.06570  0.56340  0.84080  Biso   1.000  C
  H137     1.0000 0.03750  0.54800  0.82190  Biso   1.000  H
  C200     1.0000 0.10910  0.54900  0.90460  Biso   1.000  C
  C201     1.0000 0.14940  0.57190  0.93010  Biso   1.000  C
  H138     1.0000 0.17840  0.56220  0.97180  Biso   1.000  H
  C202     1.0000 0.14840  0.60980  0.89520  Biso   1.000  C
  H139     1.0000 0.17670  0.62430  0.91340  Biso   1.000  H
  C203     1.0000 0.10670  0.62570  0.83510  Biso   1.000  C
  C204     1.0000 0.10460  0.67010  0.80180  Biso   1.000  C
  C205     1.0000 0.04170  0.36730  0.85010  Biso   1.000  C
  H140     1.0000 0.06890  0.36570  0.85530  Biso   1.000  H
  H141     1.0000 0.01650  0.38560  0.80950  Biso   1.000  H
  C206     1.0000 0.02910  0.32900  0.84890  Biso   1.000  C
  H142     1.0000 0.01960  0.31120  0.81100  Biso   1.000  H
  H143     1.0000 0.05460  0.31210  0.89010  Biso   1.000  H
  H144     1.0000 0.00260  0.33180  0.84470  Biso   1.000  H
  C207     1.0000 0.95190  0.23740  0.06280  Biso   1.000  C
  H145     1.0000 0.96840  0.22140  0.05450  Biso   1.000  H
  C208     1.0000 0.90270  0.23740  0.01230  Biso   1.000  C
  H146     1.0000 0.88710  0.22250  0.97090  Biso   1.000  H
  C209     1.0000 0.87770  0.25910  0.02320  Biso   1.000  C
  C210     1.0000 0.90290  0.28330  0.08340  Biso   1.000  C
  H147     1.0000 0.88690  0.30050  0.09180  Biso   1.000  H
  C211     1.0000 0.95090  0.28220  0.13040  Biso   1.000  C
  H148     1.0000 0.96740  0.29870  0.17110  Biso   1.000  H
  C212     1.0000 0.75070  0.25110  0.85800  Biso   1.000  C
  H149     1.0000 0.73530  0.24520  0.81330  Biso   1.000  H
  C213     1.0000 0.79890  0.25290  0.90570  Biso   1.000  C
  H150     1.0000 0.81490  0.24990  0.89180  Biso   1.000  H
  C214     1.0000 0.82390  0.25850  0.96990  Biso   1.000  C
  C215     1.0000 0.79820  0.26960  0.98000  Biso   1.000  C
  H151     1.0000 0.81250  0.27890  0.02330  Biso   1.000  H
  C216     1.0000 0.74940  0.26850  0.92880  Biso   1.000  C
  H152     1.0000 0.73310  0.27780  0.94080  Biso   1.000  H
  N7       1.0000 0.97590  0.25810  0.12050  Biso   1.000  N
  N8       1.0000 0.72540  0.25720  0.87140  Biso   1.000  N
  O37      1.0000 0.06000  0.21600  0.26990  Biso   1.000  O
  O38      1.0000 0.13880  0.20690  0.34670  Biso   1.000  O
  O39      1.0000 0.05560  0.81120  0.66520  Biso   1.000  O
  O40      1.0000 0.13390  0.81180  0.73910  Biso   1.000  O
  O41      1.0000 0.02000  0.95810  0.43910  Biso   1.000  O
  O42      1.0000 0.15080  0.10140  0.57910  Biso   1.000  O
  O43      1.0000 0.06710  0.28770  0.15030  Biso   1.000  O
  O44      1.0000 0.14540  0.28910  0.23160  Biso   1.000  O
  O45      1.0000 0.06400  0.68380  0.74720  Biso   1.000  O
  O46      1.0000 0.14290  0.69130  0.83080  Biso   1.000  O
  O47      1.0000 0.05470  0.38900  0.91120  Biso   1.000  O
  O48      1.0000 0.16280  0.55940  0.04830  Biso   1.000  O
  Zn7      1.0000 0.04856  0.25306  0.19537  Biso   1.000  Zn
  Zn8      1.0000 0.15287  0.24684  0.29921  Biso   1.000  Zn
  C217     1.0000 0.40260  0.30070  0.67720  Biso   1.000  C
  C218     1.0000 0.40320  0.33440  0.63330  Biso   1.000  C
  C219     1.0000 0.36280  0.35670  0.57650  Biso   1.000  C
  H153     1.0000 0.33370  0.35070  0.56270  Biso   1.000  H
  C220     1.0000 0.36570  0.38790  0.54020  Biso   1.000  C
  H154     1.0000 0.33810  0.40230  0.50110  Biso   1.000  H
  C221     1.0000 0.40870  0.39850  0.56060  Biso   1.000  C
  C222     1.0000 0.44930  0.37590  0.61790  Biso   1.000  C
  H155     1.0000 0.47850  0.38270  0.63210  Biso   1.000  H
  C223     1.0000 0.44720  0.34410  0.65340  Biso   1.000  C
  H156     1.0000 0.47470  0.32850  0.69110  Biso   1.000  H
  C224     1.0000 0.41130  0.43460  0.52240  Biso   1.000  C
  C225     1.0000 0.38920  0.43050  0.46170  Biso   1.000  C
  C226     1.0000 0.38690  0.46790  0.41820  Biso   1.000  C
  H157     1.0000 0.36960  0.46270  0.37270  Biso   1.000  H
  C227     1.0000 0.41180  0.50910  0.45070  Biso   1.000  C
  C228     1.0000 0.44760  0.50670  0.52180  Biso   1.000  C
  C229     1.0000 0.44890  0.47390  0.56160  Biso   1.000  C
  H158     1.0000 0.47100  0.47600  0.60860  Biso   1.000  H
  C230     1.0000 0.36740  0.60970  0.32600  Biso   1.000  C
  H159     1.0000 0.33810  0.62340  0.28920  Biso   1.000  H
  C231     1.0000 0.36930  0.57100  0.36060  Biso   1.000  C
  H160     1.0000 0.34130  0.55970  0.34710  Biso   1.000  H
  C232     1.0000 0.41130  0.54900  0.41380  Biso   1.000  C
  C233     1.0000 0.45170  0.56720  0.43230  Biso   1.000  C
  H161     1.0000 0.48080  0.55360  0.46940  Biso   1.000  H
  C234     1.0000 0.45060  0.60480  0.39800  Biso   1.000  C
  H162     1.0000 0.47840  0.61460  0.40990  Biso   1.000  H
  C235     1.0000 0.40770  0.62810  0.34520  Biso   1.000  C
  C236     1.0000 0.40660  0.67160  0.31080  Biso   1.000  C
  C237     1.0000 0.52580  0.53930  0.64190  Biso   1.000  C
  H163     1.0000 0.51660  0.54170  0.66690  Biso   1.000  H
  H164     1.0000 0.54370  0.50950  0.65460  Biso   1.000  H
  C238     1.0000 0.55420  0.58430  0.65350  Biso   1.000  C
  H165     1.0000 0.58280  0.58670  0.70070  Biso   1.000  H
  H166     1.0000 0.53530  0.61310  0.63960  Biso   1.000  H
  H167     1.0000 0.56220  0.58120  0.62740  Biso   1.000  H
  C239     1.0000 0.39370  0.19930  0.82630  Biso   1.000  C
  C240     1.0000 0.39240  0.16560  0.86860  Biso   1.000  C
  C241     1.0000 0.43350  0.15140  0.93090  Biso   1.000  C
  H168     1.0000 0.46250  0.16350  0.94880  Biso   1.000  H
  C242     1.0000 0.43140  0.11940  0.96690  Biso   1.000  C
  H169     1.0000 0.45980  0.10940  0.00920  Biso   1.000  H
  C243     1.0000 0.38910  0.10070  0.94360  Biso   1.000  C
  C244     1.0000 0.34770  0.11750  0.88150  Biso   1.000  C
  H170     1.0000 0.31850  0.10700  0.86460  Biso   1.000  H
  C245     1.0000 0.34900  0.14940  0.84440  Biso   1.000  C
  H171     1.0000 0.32070  0.16040  0.80270  Biso   1.000  H
  C246     1.0000 0.39030  0.06280  0.98250  Biso   1.000  C
  C247     1.0000 0.41520  0.06860  0.05100  Biso   1.000  C
  C248     1.0000 0.41440  0.03290  0.08490  Biso   1.000  C
  H172     1.0000 0.43260  0.03830  0.13070  Biso   1.000  H
  C249     1.0000 0.39030  0.99100  0.05920  Biso   1.000  C
  C250     1.0000 0.36570  0.98120  0.98980  Biso   1.000  C
  C251     1.0000 0.36440  0.02190  0.94920  Biso   1.000  C
  H173     1.0000 0.34620  0.01830  0.90310  Biso   1.000  H
  C252     1.0000 0.43480  0.89890  0.19360  Biso   1.000  C
  H174     1.0000 0.46340  0.89010  0.23640  Biso   1.000  H
  C253     1.0000 0.43430  0.93660  0.15920  Biso   1.000  C
  H175     1.0000 0.46250  0.95200  0.17810  Biso   1.000  H
  C254     1.0000 0.39090  0.95100  0.09540  Biso   1.000  C
  C255     1.0000 0.35060  0.92810  0.06990  Biso   1.000  C
  H176     1.0000 0.32160  0.93780  0.02820  Biso   1.000  H
  C256     1.0000 0.35160  0.89020  0.10480  Biso   1.000  C
  H177     1.0000 0.32330  0.87570  0.08660  Biso   1.000  H
  C257     1.0000 0.39330  0.87430  0.16490  Biso   1.000  C
  C258     1.0000 0.39540  0.82990  0.19820  Biso   1.000  C
  C259     1.0000 0.45830  0.13270  0.14990  Biso   1.000  C
  H178     1.0000 0.43110  0.13430  0.14470  Biso   1.000  H
  H179     1.0000 0.48350  0.11440  0.19050  Biso   1.000  H
  C260     1.0000 0.47090  0.17100  0.15110  Biso   1.000  C
  H180     1.0000 0.48040  0.18880  0.18900  Biso   1.000  H
  H181     1.0000 0.44540  0.18790  0.10990  Biso   1.000  H
  H182     1.0000 0.49740  0.16820  0.15530  Biso   1.000  H
  C261     1.0000 0.54810  0.26260  0.93720  Biso   1.000  C
  H183     1.0000 0.53160  0.27860  0.94550  Biso   1.000  H
  C262     1.0000 0.59730  0.26260  0.98770  Biso   1.000  C
  H184     1.0000 0.61290  0.27750  0.02910  Biso   1.000  H
  C263     1.0000 0.62230  0.24090  0.97680  Biso   1.000  C
  C264     1.0000 0.59710  0.21670  0.91660  Biso   1.000  C
  H185     1.0000 0.61310  0.19950  0.90820  Biso   1.000  H
  C265     1.0000 0.54910  0.21780  0.86960  Biso   1.000  C
  H186     1.0000 0.53260  0.20130  0.82890  Biso   1.000  H
  C266     1.0000 0.74930  0.24890  0.14200  Biso   1.000  C
  H187     1.0000 0.76470  0.25480  0.18670  Biso   1.000  H
  C267     1.0000 0.70110  0.24710  0.09430  Biso   1.000  C
  H188     1.0000 0.68510  0.25010  0.10820  Biso   1.000  H
  C268     1.0000 0.67610  0.24150  0.03010  Biso   1.000  C
  C269     1.0000 0.70180  0.23040  0.02000  Biso   1.000  C
  H189     1.0000 0.68750  0.22110  0.97670  Biso   1.000  H
  C270     1.0000 0.75060  0.23150  0.07120  Biso   1.000  C
  H190     1.0000 0.76690  0.22220  0.05920  Biso   1.000  H
  N9       1.0000 0.52410  0.24190  0.87950  Biso   1.000  N
  N10      1.0000 0.77460  0.24280  0.12860  Biso   1.000  N
  O49      1.0000 0.44000  0.28400  0.73010  Biso   1.000  O
  O50      1.0000 0.36120  0.29310  0.65330  Biso   1.000  O
  O51      1.0000 0.44440  0.68880  0.33480  Biso   1.000  O
  O52      1.0000 0.36610  0.68820  0.26090  Biso   1.000  O
  O53      1.0000 0.48000  0.54190  0.56090  Biso   1.000  O
  O54      1.0000 0.34920  0.39860  0.42090  Biso   1.000  O
  O55      1.0000 0.43290  0.21230  0.84970  Biso   1.000  O
  O56      1.0000 0.35460  0.21090  0.76840  Biso   1.000  O
  O57      1.0000 0.43600  0.81620  0.25280  Biso   1.000  O
  O58      1.0000 0.35710  0.80870  0.16920  Biso   1.000  O
  O59      1.0000 0.44530  0.11100  0.08880  Biso   1.000  O
  O60      1.0000 0.33720  0.94060  0.95170  Biso   1.000  O
  Zn9      1.0000 0.45144  0.24694  0.80463  Biso   1.000  Zn
  Zn10     1.0000 0.34713  0.25316  0.70079  Biso   1.000  Zn
  C271     1.0000 0.90260  0.80070  0.67720  Biso   1.000  C
  C272     1.0000 0.90320  0.83440  0.63330  Biso   1.000  C
  C273     1.0000 0.86280  0.85670  0.57650  Biso   1.000  C
  H191     1.0000 0.83370  0.85070  0.56270  Biso   1.000  H
  C274     1.0000 0.86570  0.88790  0.54020  Biso   1.000  C
  H192     1.0000 0.83810  0.90230  0.50110  Biso   1.000  H
  C275     1.0000 0.90870  0.89850  0.56060  Biso   1.000  C
  C276     1.0000 0.94930  0.87590  0.61790  Biso   1.000  C
  H193     1.0000 0.97850  0.88270  0.63210  Biso   1.000  H
  C277     1.0000 0.94720  0.84410  0.65340  Biso   1.000  C
  H194     1.0000 0.97470  0.82850  0.69110  Biso   1.000  H
  C278     1.0000 0.91130  0.93460  0.52240  Biso   1.000  C
  C279     1.0000 0.88920  0.93050  0.46170  Biso   1.000  C
  C280     1.0000 0.88690  0.96790  0.41820  Biso   1.000  C
  H195     1.0000 0.86960  0.96270  0.37270  Biso   1.000  H
  C281     1.0000 0.91180  0.00910  0.45070  Biso   1.000  C
  C282     1.0000 0.94760  0.00670  0.52180  Biso   1.000  C
  C283     1.0000 0.94890  0.97390  0.56160  Biso   1.000  C
  H196     1.0000 0.97100  0.97600  0.60860  Biso   1.000  H
  C284     1.0000 0.86740  0.10970  0.32600  Biso   1.000  C
  H197     1.0000 0.83810  0.12340  0.28920  Biso   1.000  H
  C285     1.0000 0.86930  0.07100  0.36060  Biso   1.000  C
  H198     1.0000 0.84130  0.05970  0.34710  Biso   1.000  H
  C286     1.0000 0.91130  0.04900  0.41380  Biso   1.000  C
  C287     1.0000 0.95170  0.06720  0.43230  Biso   1.000  C
  H199     1.0000 0.98080  0.05360  0.46940  Biso   1.000  H
  C288     1.0000 0.95060  0.10480  0.39800  Biso   1.000  C
  H200     1.0000 0.97840  0.11460  0.40990  Biso   1.000  H
  C289     1.0000 0.90770  0.12810  0.34520  Biso   1.000  C
  C290     1.0000 0.90660  0.17160  0.31080  Biso   1.000  C
  C291     1.0000 0.02580  0.03930  0.64190  Biso   1.000  C
  H201     1.0000 0.01660  0.04170  0.66690  Biso   1.000  H
  H202     1.0000 0.04370  0.00950  0.65460  Biso   1.000  H
  C292     1.0000 0.05420  0.08430  0.65350  Biso   1.000  C
  H203     1.0000 0.08280  0.08670  0.70070  Biso   1.000  H
  H204     1.0000 0.03530  0.11310  0.63960  Biso   1.000  H
  H205     1.0000 0.06220  0.08120  0.62740  Biso   1.000  H
  C293     1.0000 0.89370  0.69930  0.82630  Biso   1.000  C
  C294     1.0000 0.89240  0.66560  0.86860  Biso   1.000  C
  C295     1.0000 0.93350  0.65140  0.93090  Biso   1.000  C
  H206     1.0000 0.96250  0.66350  0.94880  Biso   1.000  H
  C296     1.0000 0.93140  0.61940  0.96690  Biso   1.000  C
  H207     1.0000 0.95980  0.60940  0.00920  Biso   1.000  H
  C297     1.0000 0.88910  0.60070  0.94360  Biso   1.000  C
  C298     1.0000 0.84770  0.61750  0.88150  Biso   1.000  C
  H208     1.0000 0.81850  0.60700  0.86460  Biso   1.000  H
  C299     1.0000 0.84900  0.64940  0.84440  Biso   1.000  C
  H209     1.0000 0.82070  0.66040  0.80270  Biso   1.000  H
  C300     1.0000 0.89030  0.56280  0.98250  Biso   1.000  C
  C301     1.0000 0.91520  0.56860  0.05100  Biso   1.000  C
  C302     1.0000 0.91440  0.53290  0.08490  Biso   1.000  C
  H210     1.0000 0.93260  0.53830  0.13070  Biso   1.000  H
  C303     1.0000 0.89030  0.49100  0.05920  Biso   1.000  C
  C304     1.0000 0.86570  0.48120  0.98980  Biso   1.000  C
  C305     1.0000 0.86440  0.52190  0.94920  Biso   1.000  C
  H211     1.0000 0.84620  0.51830  0.90310  Biso   1.000  H
  C306     1.0000 0.93480  0.39890  0.19360  Biso   1.000  C
  H212     1.0000 0.96340  0.39010  0.23640  Biso   1.000  H
  C307     1.0000 0.93430  0.43660  0.15920  Biso   1.000  C
  H213     1.0000 0.96250  0.45200  0.17810  Biso   1.000  H
  C308     1.0000 0.89090  0.45100  0.09540  Biso   1.000  C
  C309     1.0000 0.85060  0.42810  0.06990  Biso   1.000  C
  H214     1.0000 0.82160  0.43780  0.02820  Biso   1.000  H
  C310     1.0000 0.85160  0.39020  0.10480  Biso   1.000  C
  H215     1.0000 0.82330  0.37570  0.08660  Biso   1.000  H
  C311     1.0000 0.89330  0.37430  0.16490  Biso   1.000  C
  C312     1.0000 0.89540  0.32990  0.19820  Biso   1.000  C
  C313     1.0000 0.95830  0.63270  0.14990  Biso   1.000  C
  H216     1.0000 0.93110  0.63430  0.14470  Biso   1.000  H
  H217     1.0000 0.98350  0.61440  0.19050  Biso   1.000  H
  C314     1.0000 0.97090  0.67100  0.15110  Biso   1.000  C
  H218     1.0000 0.98040  0.68880  0.18900  Biso   1.000  H
  H219     1.0000 0.94540  0.68790  0.10990  Biso   1.000  H
  H220     1.0000 0.99740  0.66820  0.15530  Biso   1.000  H
  C315     1.0000 0.04810  0.76260  0.93720  Biso   1.000  C
  H221     1.0000 0.03160  0.77860  0.94550  Biso   1.000  H
  C316     1.0000 0.09730  0.76260  0.98770  Biso   1.000  C
  H222     1.0000 0.11290  0.77750  0.02910  Biso   1.000  H
  C317     1.0000 0.12230  0.74090  0.97680  Biso   1.000  C
  C318     1.0000 0.09710  0.71670  0.91660  Biso   1.000  C
  H223     1.0000 0.11310  0.69950  0.90820  Biso   1.000  H
  C319     1.0000 0.04910  0.71780  0.86960  Biso   1.000  C
  H224     1.0000 0.03260  0.70130  0.82890  Biso   1.000  H
  C320     1.0000 0.24930  0.74890  0.14200  Biso   1.000  C
  H225     1.0000 0.26470  0.75480  0.18670  Biso   1.000  H
  C321     1.0000 0.20110  0.74710  0.09430  Biso   1.000  C
  H226     1.0000 0.18510  0.75010  0.10820  Biso   1.000  H
  C322     1.0000 0.17610  0.74150  0.03010  Biso   1.000  C
  C323     1.0000 0.20180  0.73040  0.02000  Biso   1.000  C
  H227     1.0000 0.18750  0.72110  0.97670  Biso   1.000  H
  C324     1.0000 0.25060  0.73150  0.07120  Biso   1.000  C
  H228     1.0000 0.26690  0.72220  0.05920  Biso   1.000  H
  N11      1.0000 0.02410  0.74190  0.87950  Biso   1.000  N
  N12      1.0000 0.27460  0.74280  0.12860  Biso   1.000  N
  O61      1.0000 0.94000  0.78400  0.73010  Biso   1.000  O
  O62      1.0000 0.86120  0.79310  0.65330  Biso   1.000  O
  O63      1.0000 0.94440  0.18880  0.33480  Biso   1.000  O
  O64      1.0000 0.86610  0.18820  0.26090  Biso   1.000  O
  O65      1.0000 0.98000  0.04190  0.56090  Biso   1.000  O
  O66      1.0000 0.84920  0.89860  0.42090  Biso   1.000  O
  O67      1.0000 0.93290  0.71230  0.84970  Biso   1.000  O
  O68      1.0000 0.85460  0.71090  0.76840  Biso   1.000  O
  O69      1.0000 0.93600  0.31620  0.25280  Biso   1.000  O
  O70      1.0000 0.85710  0.30870  0.16920  Biso   1.000  O
  O71      1.0000 0.94530  0.61100  0.08880  Biso   1.000  O
  O72      1.0000 0.83720  0.44060  0.95170  Biso   1.000  O
  Zn11     1.0000 0.95144  0.74694  0.80463  Biso   1.000  Zn
  Zn12     1.0000 0.84713  0.75316  0.70079  Biso   1.000  Zn
  C325     1.0000 0.40260  0.69930  0.17720  Biso   1.000  C
  C326     1.0000 0.40320  0.66560  0.13330  Biso   1.000  C
  C327     1.0000 0.36280  0.64330  0.07650  Biso   1.000  C
  H229     1.0000 0.33370  0.64930  0.06270  Biso   1.000  H
  C328     1.0000 0.36570  0.61210  0.04020  Biso   1.000  C
  H230     1.0000 0.33810  0.59770  0.00110  Biso   1.000  H
  C329     1.0000 0.40870  0.60150  0.06060  Biso   1.000  C
  C330     1.0000 0.44930  0.62410  0.11790  Biso   1.000  C
  H231     1.0000 0.47850  0.61730  0.13210  Biso   1.000  H
  C331     1.0000 0.44720  0.65590  0.15340  Biso   1.000  C
  H232     1.0000 0.47470  0.67150  0.19110  Biso   1.000  H
  C332     1.0000 0.41130  0.56540  0.02240  Biso   1.000  C
  C333     1.0000 0.38920  0.56950  0.96170  Biso   1.000  C
  C334     1.0000 0.38690  0.53210  0.91820  Biso   1.000  C
  H233     1.0000 0.36960  0.53730  0.87270  Biso   1.000  H
  C335     1.0000 0.41180  0.49090  0.95070  Biso   1.000  C
  C336     1.0000 0.44760  0.49330  0.02180  Biso   1.000  C
  C337     1.0000 0.44890  0.52610  0.06160  Biso   1.000  C
  H234     1.0000 0.47100  0.52400  0.10860  Biso   1.000  H
  C338     1.0000 0.36740  0.39030  0.82600  Biso   1.000  C
  H235     1.0000 0.33810  0.37660  0.78920  Biso   1.000  H
  C339     1.0000 0.36930  0.42900  0.86060  Biso   1.000  C
  H236     1.0000 0.34130  0.44030  0.84710  Biso   1.000  H
  C340     1.0000 0.41130  0.45100  0.91380  Biso   1.000  C
  C341     1.0000 0.45170  0.43280  0.93230  Biso   1.000  C
  H237     1.0000 0.48080  0.44640  0.96940  Biso   1.000  H
  C342     1.0000 0.45060  0.39520  0.89800  Biso   1.000  C
  H238     1.0000 0.47840  0.38540  0.90990  Biso   1.000  H
  C343     1.0000 0.40770  0.37190  0.84520  Biso   1.000  C
  C344     1.0000 0.40660  0.32840  0.81080  Biso   1.000  C
  C345     1.0000 0.52580  0.46070  0.14190  Biso   1.000  C
  H239     1.0000 0.51660  0.45830  0.16690  Biso   1.000  H
  H240     1.0000 0.54370  0.49050  0.15460  Biso   1.000  H
  C346     1.0000 0.55420  0.41570  0.15350  Biso   1.000  C
  H241     1.0000 0.58280  0.41330  0.20070  Biso   1.000  H
  H242     1.0000 0.53530  0.38690  0.13960  Biso   1.000  H
  H243     1.0000 0.56220  0.41880  0.12740  Biso   1.000  H
  C347     1.0000 0.39370  0.80070  0.32630  Biso   1.000  C
  C348     1.0000 0.39240  0.83440  0.36860  Biso   1.000  C
  C349     1.0000 0.43350  0.84860  0.43090  Biso   1.000  C
  H244     1.0000 0.46250  0.83650  0.44880  Biso   1.000  H
  C350     1.0000 0.43140  0.88060  0.46690  Biso   1.000  C
  H245     1.0000 0.45980  0.89060  0.50920  Biso   1.000  H
  C351     1.0000 0.38910  0.89930  0.44360  Biso   1.000  C
  C352     1.0000 0.34770  0.88250  0.38150  Biso   1.000  C
  H246     1.0000 0.31850  0.89300  0.36460  Biso   1.000  H
  C353     1.0000 0.34900  0.85060  0.34440  Biso   1.000  C
  H247     1.0000 0.32070  0.83960  0.30270  Biso   1.000  H
  C354     1.0000 0.39030  0.93720  0.48250  Biso   1.000  C
  C355     1.0000 0.41520  0.93140  0.55100  Biso   1.000  C
  C356     1.0000 0.41440  0.96710  0.58490  Biso   1.000  C
  H248     1.0000 0.43260  0.96170  0.63070  Biso   1.000  H
  C357     1.0000 0.39030  0.00900  0.55920  Biso   1.000  C
  C358     1.0000 0.36570  0.01880  0.48980  Biso   1.000  C
  C359     1.0000 0.36440  0.97810  0.44920  Biso   1.000  C
  H249     1.0000 0.34620  0.98170  0.40310  Biso   1.000  H
  C360     1.0000 0.43480  0.10110  0.69360  Biso   1.000  C
  H250     1.0000 0.46340  0.10990  0.73640  Biso   1.000  H
  C361     1.0000 0.43430  0.06340  0.65920  Biso   1.000  C
  H251     1.0000 0.46250  0.04800  0.67810  Biso   1.000  H
  C362     1.0000 0.39090  0.04900  0.59540  Biso   1.000  C
  C363     1.0000 0.35060  0.07190  0.56990  Biso   1.000  C
  H252     1.0000 0.32160  0.06220  0.52820  Biso   1.000  H
  C364     1.0000 0.35160  0.10980  0.60480  Biso   1.000  C
  H253     1.0000 0.32330  0.12430  0.58660  Biso   1.000  H
  C365     1.0000 0.39330  0.12570  0.66490  Biso   1.000  C
  C366     1.0000 0.39540  0.17010  0.69820  Biso   1.000  C
  C367     1.0000 0.45830  0.86730  0.64990  Biso   1.000  C
  H254     1.0000 0.43110  0.86570  0.64470  Biso   1.000  H
  H255     1.0000 0.48350  0.88560  0.69050  Biso   1.000  H
  C368     1.0000 0.47090  0.82900  0.65110  Biso   1.000  C
  H256     1.0000 0.48040  0.81120  0.68900  Biso   1.000  H
  H257     1.0000 0.44540  0.81210  0.60990  Biso   1.000  H
  H258     1.0000 0.49740  0.83180  0.65530  Biso   1.000  H
  C369     1.0000 0.54810  0.73740  0.43720  Biso   1.000  C
  H259     1.0000 0.53160  0.72140  0.44550  Biso   1.000  H
  C370     1.0000 0.59730  0.73740  0.48770  Biso   1.000  C
  H260     1.0000 0.61290  0.72250  0.52910  Biso   1.000  H
  C371     1.0000 0.62230  0.75910  0.47680  Biso   1.000  C
  C372     1.0000 0.59710  0.78330  0.41660  Biso   1.000  C
  H261     1.0000 0.61310  0.80050  0.40820  Biso   1.000  H
  C373     1.0000 0.54910  0.78220  0.36960  Biso   1.000  C
  H262     1.0000 0.53260  0.79870  0.32890  Biso   1.000  H
  C374     1.0000 0.74930  0.75110  0.64200  Biso   1.000  C
  H263     1.0000 0.76470  0.74520  0.68670  Biso   1.000  H
  C375     1.0000 0.70110  0.75290  0.59430  Biso   1.000  C
  H264     1.0000 0.68510  0.74990  0.60820  Biso   1.000  H
  C376     1.0000 0.67610  0.75850  0.53010  Biso   1.000  C
  C377     1.0000 0.70180  0.76960  0.52000  Biso   1.000  C
  H265     1.0000 0.68750  0.77890  0.47670  Biso   1.000  H
  C378     1.0000 0.75060  0.76850  0.57120  Biso   1.000  C
  H266     1.0000 0.76690  0.77780  0.55920  Biso   1.000  H
  N13      1.0000 0.52410  0.75810  0.37950  Biso   1.000  N
  N14      1.0000 0.77460  0.75720  0.62860  Biso   1.000  N
  O73      1.0000 0.44000  0.71600  0.23010  Biso   1.000  O
  O74      1.0000 0.36120  0.70690  0.15330  Biso   1.000  O
  O75      1.0000 0.44440  0.31120  0.83480  Biso   1.000  O
  O76      1.0000 0.36610  0.31180  0.76090  Biso   1.000  O
  O77      1.0000 0.48000  0.45810  0.06090  Biso   1.000  O
  O78      1.0000 0.34920  0.60140  0.92090  Biso   1.000  O
  O79      1.0000 0.43290  0.78770  0.34970  Biso   1.000  O
  O80      1.0000 0.35460  0.78910  0.26840  Biso   1.000  O
  O81      1.0000 0.43600  0.18380  0.75280  Biso   1.000  O
  O82      1.0000 0.35710  0.19130  0.66920  Biso   1.000  O
  O83      1.0000 0.44530  0.88900  0.58880  Biso   1.000  O
  O84      1.0000 0.33720  0.05940  0.45170  Biso   1.000  O
  Zn13     1.0000 0.45144  0.75306  0.30463  Biso   1.000  Zn
  Zn14     1.0000 0.34713  0.74684  0.20079  Biso   1.000  Zn
  C379     1.0000 0.90260  0.19930  0.17720  Biso   1.000  C
  C380     1.0000 0.90320  0.16560  0.13330  Biso   1.000  C
  C381     1.0000 0.86280  0.14330  0.07650  Biso   1.000  C
  H267     1.0000 0.83370  0.14930  0.06270  Biso   1.000  H
  C382     1.0000 0.86570  0.11210  0.04020  Biso   1.000  C
  H268     1.0000 0.83810  0.09770  0.00110  Biso   1.000  H
  C383     1.0000 0.90870  0.10150  0.06060  Biso   1.000  C
  C384     1.0000 0.94930  0.12410  0.11790  Biso   1.000  C
  H269     1.0000 0.97850  0.11730  0.13210  Biso   1.000  H
  C385     1.0000 0.94720  0.15590  0.15340  Biso   1.000  C
  H270     1.0000 0.97470  0.17150  0.19110  Biso   1.000  H
  C386     1.0000 0.91130  0.06540  0.02240  Biso   1.000  C
  C387     1.0000 0.88920  0.06950  0.96170  Biso   1.000  C
  C388     1.0000 0.88690  0.03210  0.91820  Biso   1.000  C
  H271     1.0000 0.86960  0.03730  0.87270  Biso   1.000  H
  C389     1.0000 0.91180  0.99090  0.95070  Biso   1.000  C
  C390     1.0000 0.94760  0.99330  0.02180  Biso   1.000  C
  C391     1.0000 0.94890  0.02610  0.06160  Biso   1.000  C
  H272     1.0000 0.97100  0.02400  0.10860  Biso   1.000  H
  C392     1.0000 0.86740  0.89030  0.82600  Biso   1.000  C
  H273     1.0000 0.83810  0.87660  0.78920  Biso   1.000  H
  C393     1.0000 0.86930  0.92900  0.86060  Biso   1.000  C
  H274     1.0000 0.84130  0.94030  0.84710  Biso   1.000  H
  C394     1.0000 0.91130  0.95100  0.91380  Biso   1.000  C
  C395     1.0000 0.95170  0.93280  0.93230  Biso   1.000  C
  H275     1.0000 0.98080  0.94640  0.96940  Biso   1.000  H
  C396     1.0000 0.95060  0.89520  0.89800  Biso   1.000  C
  H276     1.0000 0.97840  0.88540  0.90990  Biso   1.000  H
  C397     1.0000 0.90770  0.87190  0.84520  Biso   1.000  C
  C398     1.0000 0.90660  0.82840  0.81080  Biso   1.000  C
  C399     1.0000 0.02580  0.96070  0.14190  Biso   1.000  C
  H277     1.0000 0.01660  0.95830  0.16690  Biso   1.000  H
  H278     1.0000 0.04370  0.99050  0.15460  Biso   1.000  H
  C400     1.0000 0.05420  0.91570  0.15350  Biso   1.000  C
  H279     1.0000 0.08280  0.91330  0.20070  Biso   1.000  H
  H280     1.0000 0.03530  0.88690  0.13960  Biso   1.000  H
  H281     1.0000 0.06220  0.91880  0.12740  Biso   1.000  H
  C401     1.0000 0.89370  0.30070  0.32630  Biso   1.000  C
  C402     1.0000 0.89240  0.33440  0.36860  Biso   1.000  C
  C403     1.0000 0.93350  0.34860  0.43090  Biso   1.000  C
  H282     1.0000 0.96250  0.33650  0.44880  Biso   1.000  H
  C404     1.0000 0.93140  0.38060  0.46690  Biso   1.000  C
  H283     1.0000 0.95980  0.39060  0.50920  Biso   1.000  H
  C405     1.0000 0.88910  0.39930  0.44360  Biso   1.000  C
  C406     1.0000 0.84770  0.38250  0.38150  Biso   1.000  C
  H284     1.0000 0.81850  0.39300  0.36460  Biso   1.000  H
  C407     1.0000 0.84900  0.35060  0.34440  Biso   1.000  C
  H285     1.0000 0.82070  0.33960  0.30270  Biso   1.000  H
  C408     1.0000 0.89030  0.43720  0.48250  Biso   1.000  C
  C409     1.0000 0.91520  0.43140  0.55100  Biso   1.000  C
  C410     1.0000 0.91440  0.46710  0.58490  Biso   1.000  C
  H286     1.0000 0.93260  0.46170  0.63070  Biso   1.000  H
  C411     1.0000 0.89030  0.50900  0.55920  Biso   1.000  C
  C412     1.0000 0.86570  0.51880  0.48980  Biso   1.000  C
  C413     1.0000 0.86440  0.47810  0.44920  Biso   1.000  C
  H287     1.0000 0.84620  0.48170  0.40310  Biso   1.000  H
  C414     1.0000 0.93480  0.60110  0.69360  Biso   1.000  C
  H288     1.0000 0.96340  0.60990  0.73640  Biso   1.000  H
  C415     1.0000 0.93430  0.56340  0.65920  Biso   1.000  C
  H289     1.0000 0.96250  0.54800  0.67810  Biso   1.000  H
  C416     1.0000 0.89090  0.54900  0.59540  Biso   1.000  C
  C417     1.0000 0.85060  0.57190  0.56990  Biso   1.000  C
  H290     1.0000 0.82160  0.56220  0.52820  Biso   1.000  H
  C418     1.0000 0.85160  0.60980  0.60480  Biso   1.000  C
  H291     1.0000 0.82330  0.62430  0.58660  Biso   1.000  H
  C419     1.0000 0.89330  0.62570  0.66490  Biso   1.000  C
  C420     1.0000 0.89540  0.67010  0.69820  Biso   1.000  C
  C421     1.0000 0.95830  0.36730  0.64990  Biso   1.000  C
  H292     1.0000 0.93110  0.36570  0.64470  Biso   1.000  H
  H293     1.0000 0.98350  0.38560  0.69050  Biso   1.000  H
  C422     1.0000 0.97090  0.32900  0.65110  Biso   1.000  C
  H294     1.0000 0.98040  0.31120  0.68900  Biso   1.000  H
  H295     1.0000 0.94540  0.31210  0.60990  Biso   1.000  H
  H296     1.0000 0.99740  0.33180  0.65530  Biso   1.000  H
  C423     1.0000 0.04810  0.23740  0.43720  Biso   1.000  C
  H297     1.0000 0.03160  0.22140  0.44550  Biso   1.000  H
  C424     1.0000 0.09730  0.23740  0.48770  Biso   1.000  C
  H298     1.0000 0.11290  0.22250  0.52910  Biso   1.000  H
  C425     1.0000 0.12230  0.25910  0.47680  Biso   1.000  C
  C426     1.0000 0.09710  0.28330  0.41660  Biso   1.000  C
  H299     1.0000 0.11310  0.30050  0.40820  Biso   1.000  H
  C427     1.0000 0.04910  0.28220  0.36960  Biso   1.000  C
  H300     1.0000 0.03260  0.29870  0.32890  Biso   1.000  H
  C428     1.0000 0.24930  0.25110  0.64200  Biso   1.000  C
  H301     1.0000 0.26470  0.24520  0.68670  Biso   1.000  H
  C429     1.0000 0.20110  0.25290  0.59430  Biso   1.000  C
  H302     1.0000 0.18510  0.24990  0.60820  Biso   1.000  H
  C430     1.0000 0.17610  0.25850  0.53010  Biso   1.000  C
  C431     1.0000 0.20180  0.26960  0.52000  Biso   1.000  C
  H303     1.0000 0.18750  0.27890  0.47670  Biso   1.000  H
  C432     1.0000 0.25060  0.26850  0.57120  Biso   1.000  C
  H304     1.0000 0.26690  0.27780  0.55920  Biso   1.000  H
  N15      1.0000 0.02410  0.25810  0.37950  Biso   1.000  N
  N16      1.0000 0.27460  0.25720  0.62860  Biso   1.000  N
  O85      1.0000 0.94000  0.21600  0.23010  Biso   1.000  O
  O86      1.0000 0.86120  0.20690  0.15330  Biso   1.000  O
  O87      1.0000 0.94440  0.81120  0.83480  Biso   1.000  O
  O88      1.0000 0.86610  0.81180  0.76090  Biso   1.000  O
  O89      1.0000 0.98000  0.95810  0.06090  Biso   1.000  O
  O90      1.0000 0.84920  0.10140  0.92090  Biso   1.000  O
  O91      1.0000 0.93290  0.28770  0.34970  Biso   1.000  O
  O92      1.0000 0.85460  0.28910  0.26840  Biso   1.000  O
  O93      1.0000 0.93600  0.68380  0.75280  Biso   1.000  O
  O94      1.0000 0.85710  0.69130  0.66920  Biso   1.000  O
  O95      1.0000 0.94530  0.38900  0.58880  Biso   1.000  O
  O96      1.0000 0.83720  0.55940  0.45170  Biso   1.000  O
  Zn15     1.0000 0.95144  0.25306  0.30463  Biso   1.000  Zn
  Zn16     1.0000 0.84713  0.24684  0.20079  Biso   1.000  Zn
