data_image0
_cell_length_a       38.8298
_cell_length_b       27.7339
_cell_length_c       27.0455
_cell_angle_alpha    90
_cell_angle_beta     133.545
_cell_angle_gamma    90

_symmetry_space_group_name_H-M    "P 1"
_symmetry_int_tables_number       1

loop_
  _symmetry_equiv_pos_as_xyz
  'x, y, z'

loop_
  _atom_site_label
  _atom_site_occupancy
  _atom_site_fract_x
  _atom_site_fract_y
  _atom_site_fract_z
  _atom_site_thermal_displace_type
  _atom_site_B_iso_or_equiv
  _atom_site_type_symbol
  C1       1.0000 0.10443  0.82848  0.80010  Biso   1.000  C
  C2       1.0000 0.10644  0.87295  0.83520  Biso   1.000  C
  C3       1.0000 0.06502  0.89785  0.80550  Biso   1.000  C
  H1       1.0000 0.03630  0.88900  0.76280  Biso   1.000  H
  C4       1.0000 0.06710  0.93617  0.84050  Biso   1.000  C
  H2       1.0000 0.03940  0.95290  0.82070  Biso   1.000  H
  C5       1.0000 0.10880  0.94994  0.90330  Biso   1.000  C
  C6       1.0000 0.14980  0.92590  0.93090  Biso   1.000  C
  H3       1.0000 0.17860  0.93510  0.97340  Biso   1.000  H
  C7       1.0000 0.14853  0.88863  0.89660  Biso   1.000  C
  H4       1.0000 0.17670  0.87370  0.91520  Biso   1.000  H
  C8       1.0000 0.08150  0.06790  0.94340  Biso   1.000  C
  C9       1.0000 0.08310  0.03000  0.90990  Biso   1.000  C
  H5       1.0000 0.06600  0.03310  0.86370  Biso   1.000  H
  C10      1.0000 0.10770  0.99110  0.94180  Biso   1.000  C
  C11      1.0000 0.13330  0.98350  0.01170  Biso   1.000  C
  C12      1.0000 0.13780  0.01960  0.05070  Biso   1.000  C
  H6       1.0000 0.15730  0.01520  0.09740  Biso   1.000  H
  C13      1.0000 0.11190  0.06500  0.01870  Biso   1.000  C
  C14      1.0000 0.06700  0.15260  0.06600  Biso   1.000  C
  H7       1.0000 0.03820  0.16490  0.04840  Biso   1.000  H
  C15      1.0000 0.06780  0.12150  0.02740  Biso   1.000  C
  H8       1.0000 0.03980  0.11410  0.98310  Biso   1.000  H
  C16      1.0000 0.10990  0.10120  0.05390  Biso   1.000  C
  C17      1.0000 0.15130  0.11710  0.11630  Biso   1.000  C
  H9       1.0000 0.18070  0.10700  0.13380  Biso   1.000  H
  C18      1.0000 0.14800  0.14780  0.15160  Biso   1.000  C
  H10      1.0000 0.17610  0.15730  0.19470  Biso   1.000  H
  C19      1.0000 0.10719  0.16551  0.12870  Biso   1.000  C
  C20      1.0000 0.10655  0.19976  0.17180  Biso   1.000  C
  C21      1.0000 0.02920  0.11580  0.82990  Biso   1.000  C
  H11      1.0000 0.00940  0.08860  0.80100  Biso   1.000  H
  H12      1.0000 0.04980  0.12490  0.82310  Biso   1.000  H
  C22      1.0000 0.99890  0.16070  0.82170  Biso   1.000  C
  H13      1.0000 0.00420  0.16300  0.86230  Biso   1.000  H
  H14      1.0000 0.96530  0.15480  0.78320  Biso   1.000  H
  C23      1.0000 0.09325  0.67273  0.68670  Biso   1.000  C
  C24      1.0000 0.09052  0.62939  0.65050  Biso   1.000  C
  C25      1.0000 0.04714  0.60700  0.59700  Biso   1.000  C
  H15      1.0000 0.01940  0.61740  0.58510  Biso   1.000  H
  C26      1.0000 0.04560  0.56912  0.56190  Biso   1.000  C
  H16      1.0000 0.01620  0.55630  0.52420  Biso   1.000  H
  C27      1.0000 0.08540  0.55023  0.58080  Biso   1.000  C
  C28      1.0000 0.12960  0.57200  0.63680  Biso   1.000  C
  H17      1.0000 0.15760  0.55940  0.65160  Biso   1.000  H
  C29      1.0000 0.13136  0.61160  0.66960  Biso   1.000  C
  H18      1.0000 0.16040  0.62640  0.70480  Biso   1.000  H
  C30      1.0000 0.08570  0.51090  0.54730  Biso   1.000  C
  C31      1.0000 0.05190  0.50780  0.47560  Biso   1.000  C
  C32      1.0000 0.11910  0.43550  0.54560  Biso   1.000  C
  C33      1.0000 0.08721  0.43411  0.47620  Biso   1.000  C
  C34      1.0000 0.05300  0.47040  0.43880  Biso   1.000  C
  H19      1.0000 0.03140  0.47070  0.39150  Biso   1.000  H
  C35      1.0000 0.11820  0.47150  0.58310  Biso   1.000  C
  H20      1.0000 0.13860  0.46900  0.63020  Biso   1.000  H
  C36      1.0000 0.13607  0.35708  0.42120  Biso   1.000  C
  H21      1.0000 0.16510  0.35160  0.43430  Biso   1.000  H
  C37      1.0000 0.13290  0.38943  0.45830  Biso   1.000  C
  H22      1.0000 0.16030  0.40470  0.49650  Biso   1.000  H
  C38      1.0000 0.09030  0.39886  0.43910  Biso   1.000  C
  C39      1.0000 0.04999  0.37512  0.38160  Biso   1.000  C
  H23      1.0000 0.02090  0.38110  0.36800  Biso   1.000  H
  C40      1.0000 0.05159  0.34293  0.34390  Biso   1.000  C
  C41      1.0000 0.09579  0.33375  0.36540  Biso   1.000  C
  C42      1.0000 0.09794  0.30081  0.32290  Biso   1.000  C
  C43      1.0000 0.97160  0.52990  0.35780  Biso   1.000  C
  H24      1.0000 0.95450  0.50050  0.34850  Biso   1.000  H
  H25      1.0000 0.97970  0.53150  0.33100  Biso   1.000  H
  C44      1.0000 0.17510  0.39160  0.66000  Biso   1.000  C
  H26      1.0000 0.19870  0.41640  0.68960  Biso   1.000  H
  H27      1.0000 0.15040  0.39440  0.66050  Biso   1.000  H
  C45      1.0000 0.19960  0.33930  0.68820  Biso   1.000  C
  H28      1.0000 0.17970  0.31640  0.65100  Biso   1.000  H
  H29      1.0000 0.22980  0.34060  0.70080  Biso   1.000  H
  C46      1.0000 0.20750  0.32200  0.74160  Biso   1.000  C
  H30      1.0000 0.22210  0.29080  0.75380  Biso   1.000  H
  H31      1.0000 0.17790  0.31930  0.72960  Biso   1.000  H
  H32      1.0000 0.22820  0.34350  0.77960  Biso   1.000  H
  C47      1.0000 0.25160  0.25740  0.43670  Biso   1.000  C
  H33      1.0000 0.23560  0.25570  0.45090  Biso   1.000  H
  C48      1.0000 0.29600  0.25980  0.48250  Biso   1.000  C
  H34      1.0000 0.31030  0.26480  0.52720  Biso   1.000  H
  C49      1.0000 0.32460  0.25540  0.47010  Biso   1.000  C
  C50      1.0000 0.29890  0.25340  0.40000  Biso   1.000  C
  H35      1.0000 0.31470  0.25110  0.38550  Biso   1.000  H
  C51      1.0000 0.24880  0.25490  0.35220  Biso   1.000  C
  H36      1.0000 0.23200  0.25430  0.30600  Biso   1.000  H
  C52      1.0000 0.45064  0.28150  0.62970  Biso   1.000  C
  H37      1.0000 0.46700  0.29800  0.67050  Biso   1.000  H
  C53      1.0000 0.40207  0.28184  0.58260  Biso   1.000  C
  H38      1.0000 0.38610  0.29780  0.59210  Biso   1.000  H
  C54      1.0000 0.37705  0.25881  0.52170  Biso   1.000  C
  C55      1.0000 0.40299  0.23710  0.51060  Biso   1.000  C
  H39      1.0000 0.38750  0.22220  0.46900  Biso   1.000  H
  C56      1.0000 0.45070  0.23720  0.55980  Biso   1.000  C
  H40      1.0000 0.46730  0.22140  0.55130  Biso   1.000  H
  N1       1.0000 0.22502  0.25706  0.36983  Biso   1.000  N
  N2       1.0000 0.47541  0.25852  0.61961  Biso   1.000  N
  O1       1.0000 0.14216  0.80701  0.82959  Biso   1.000  O
  O2       1.0000 0.06400  0.81538  0.74613  Biso   1.000  O
  O3       1.0000 0.05760  0.10700  0.90890  Biso   1.000  O
  O4       1.0000 0.16200  0.94220  0.04790  Biso   1.000  O
  O5       1.0000 0.14482  0.21150  0.22938  Biso   1.000  O
  O6       1.0000 0.06634  0.21246  0.14734  Biso   1.000  O
  O7       1.0000 0.13321  0.68893  0.73586  Biso   1.000  O
  O8       1.0000 0.05439  0.68991  0.66212  Biso   1.000  O
  O9       1.0000 0.01470  0.54010  0.43600  Biso   1.000  O
  O10      1.0000 0.15230  0.39960  0.58330  Biso   1.000  O
  O11      1.0000 0.13839  0.29315  0.34518  Biso   1.000  O
  O12      1.0000 0.06003  0.28353  0.26935  Biso   1.000  O
  Zn1      1.0000 0.15234  0.25326  0.29736  Biso   1.000  Zn
  Zn2      1.0000 0.04800  0.24670  0.19342  Biso   1.000  Zn
  C57      1.0000 0.60443  0.32848  0.80010  Biso   1.000  C
  C58      1.0000 0.60644  0.37295  0.83520  Biso   1.000  C
  C59      1.0000 0.56502  0.39785  0.80550  Biso   1.000  C
  H41      1.0000 0.53630  0.38900  0.76280  Biso   1.000  H
  C60      1.0000 0.56710  0.43617  0.84050  Biso   1.000  C
  H42      1.0000 0.53940  0.45290  0.82070  Biso   1.000  H
  C61      1.0000 0.60880  0.44994  0.90330  Biso   1.000  C
  C62      1.0000 0.64980  0.42590  0.93090  Biso   1.000  C
  H43      1.0000 0.67860  0.43510  0.97340  Biso   1.000  H
  C63      1.0000 0.64853  0.38863  0.89660  Biso   1.000  C
  H44      1.0000 0.67670  0.37370  0.91520  Biso   1.000  H
  C64      1.0000 0.58150  0.56790  0.94340  Biso   1.000  C
  C65      1.0000 0.58310  0.53000  0.90990  Biso   1.000  C
  H45      1.0000 0.56600  0.53310  0.86370  Biso   1.000  H
  C66      1.0000 0.60770  0.49110  0.94180  Biso   1.000  C
  C67      1.0000 0.63330  0.48350  0.01170  Biso   1.000  C
  C68      1.0000 0.63780  0.51960  0.05070  Biso   1.000  C
  H46      1.0000 0.65730  0.51520  0.09740  Biso   1.000  H
  C69      1.0000 0.61190  0.56500  0.01870  Biso   1.000  C
  C70      1.0000 0.56700  0.65260  0.06600  Biso   1.000  C
  H47      1.0000 0.53820  0.66490  0.04840  Biso   1.000  H
  C71      1.0000 0.56780  0.62150  0.02740  Biso   1.000  C
  H48      1.0000 0.53980  0.61410  0.98310  Biso   1.000  H
  C72      1.0000 0.60990  0.60120  0.05390  Biso   1.000  C
  C73      1.0000 0.65130  0.61710  0.11630  Biso   1.000  C
  H49      1.0000 0.68070  0.60700  0.13380  Biso   1.000  H
  C74      1.0000 0.64800  0.64780  0.15160  Biso   1.000  C
  H50      1.0000 0.67610  0.65730  0.19470  Biso   1.000  H
  C75      1.0000 0.60719  0.66551  0.12870  Biso   1.000  C
  C76      1.0000 0.60655  0.69976  0.17180  Biso   1.000  C
  C77      1.0000 0.52920  0.61580  0.82990  Biso   1.000  C
  H51      1.0000 0.50940  0.58860  0.80100  Biso   1.000  H
  H52      1.0000 0.54980  0.62490  0.82310  Biso   1.000  H
  C78      1.0000 0.49890  0.66070  0.82170  Biso   1.000  C
  H53      1.0000 0.50420  0.66300  0.86230  Biso   1.000  H
  H54      1.0000 0.46530  0.65480  0.78320  Biso   1.000  H
  C79      1.0000 0.59325  0.17273  0.68670  Biso   1.000  C
  C80      1.0000 0.59052  0.12939  0.65050  Biso   1.000  C
  C81      1.0000 0.54714  0.10700  0.59700  Biso   1.000  C
  H55      1.0000 0.51940  0.11740  0.58510  Biso   1.000  H
  C82      1.0000 0.54560  0.06912  0.56190  Biso   1.000  C
  H56      1.0000 0.51620  0.05630  0.52420  Biso   1.000  H
  C83      1.0000 0.58540  0.05023  0.58080  Biso   1.000  C
  C84      1.0000 0.62960  0.07200  0.63680  Biso   1.000  C
  H57      1.0000 0.65760  0.05940  0.65160  Biso   1.000  H
  C85      1.0000 0.63136  0.11160  0.66960  Biso   1.000  C
  H58      1.0000 0.66040  0.12640  0.70480  Biso   1.000  H
  C86      1.0000 0.58570  0.01090  0.54730  Biso   1.000  C
  C87      1.0000 0.55190  0.00780  0.47560  Biso   1.000  C
  C88      1.0000 0.61910  0.93550  0.54560  Biso   1.000  C
  C89      1.0000 0.58721  0.93411  0.47620  Biso   1.000  C
  C90      1.0000 0.55300  0.97040  0.43880  Biso   1.000  C
  H59      1.0000 0.53140  0.97070  0.39150  Biso   1.000  H
  C91      1.0000 0.61820  0.97150  0.58310  Biso   1.000  C
  H60      1.0000 0.63860  0.96900  0.63020  Biso   1.000  H
  C92      1.0000 0.63607  0.85708  0.42120  Biso   1.000  C
  H61      1.0000 0.66510  0.85160  0.43430  Biso   1.000  H
  C93      1.0000 0.63290  0.88943  0.45830  Biso   1.000  C
  H62      1.0000 0.66030  0.90470  0.49650  Biso   1.000  H
  C94      1.0000 0.59030  0.89886  0.43910  Biso   1.000  C
  C95      1.0000 0.54999  0.87512  0.38160  Biso   1.000  C
  H63      1.0000 0.52090  0.88110  0.36800  Biso   1.000  H
  C96      1.0000 0.55159  0.84293  0.34390  Biso   1.000  C
  C97      1.0000 0.59579  0.83375  0.36540  Biso   1.000  C
  C98      1.0000 0.59794  0.80081  0.32290  Biso   1.000  C
  C99      1.0000 0.47160  0.02990  0.35780  Biso   1.000  C
  H64      1.0000 0.45450  0.00050  0.34850  Biso   1.000  H
  H65      1.0000 0.47970  0.03150  0.33100  Biso   1.000  H
  C100     1.0000 0.67510  0.89160  0.66000  Biso   1.000  C
  H66      1.0000 0.69870  0.91640  0.68960  Biso   1.000  H
  H67      1.0000 0.65040  0.89440  0.66050  Biso   1.000  H
  C101     1.0000 0.69960  0.83930  0.68820  Biso   1.000  C
  H68      1.0000 0.67970  0.81640  0.65100  Biso   1.000  H
  H69      1.0000 0.72980  0.84060  0.70080  Biso   1.000  H
  C102     1.0000 0.70750  0.82200  0.74160  Biso   1.000  C
  H70      1.0000 0.72210  0.79080  0.75380  Biso   1.000  H
  H71      1.0000 0.67790  0.81930  0.72960  Biso   1.000  H
  H72      1.0000 0.72820  0.84350  0.77960  Biso   1.000  H
  C103     1.0000 0.75160  0.75740  0.43670  Biso   1.000  C
  H73      1.0000 0.73560  0.75570  0.45090  Biso   1.000  H
  C104     1.0000 0.79600  0.75980  0.48250  Biso   1.000  C
  H74      1.0000 0.81030  0.76480  0.52720  Biso   1.000  H
  C105     1.0000 0.82460  0.75540  0.47010  Biso   1.000  C
  C106     1.0000 0.79890  0.75340  0.40000  Biso   1.000  C
  H75      1.0000 0.81470  0.75110  0.38550  Biso   1.000  H
  C107     1.0000 0.74880  0.75490  0.35220  Biso   1.000  C
  H76      1.0000 0.73200  0.75430  0.30600  Biso   1.000  H
  C108     1.0000 0.95064  0.78150  0.62970  Biso   1.000  C
  H77      1.0000 0.96700  0.79800  0.67050  Biso   1.000  H
  C109     1.0000 0.90207  0.78184  0.58260  Biso   1.000  C
  H78      1.0000 0.88610  0.79780  0.59210  Biso   1.000  H
  C110     1.0000 0.87705  0.75881  0.52170  Biso   1.000  C
  C111     1.0000 0.90299  0.73710  0.51060  Biso   1.000  C
  H79      1.0000 0.88750  0.72220  0.46900  Biso   1.000  H
  C112     1.0000 0.95070  0.73720  0.55980  Biso   1.000  C
  H80      1.0000 0.96730  0.72140  0.55130  Biso   1.000  H
  N3       1.0000 0.72502  0.75706  0.36983  Biso   1.000  N
  N4       1.0000 0.97541  0.75852  0.61961  Biso   1.000  N
  O13      1.0000 0.64216  0.30701  0.82959  Biso   1.000  O
  O14      1.0000 0.56400  0.31538  0.74613  Biso   1.000  O
  O15      1.0000 0.55760  0.60700  0.90890  Biso   1.000  O
  O16      1.0000 0.66200  0.44220  0.04790  Biso   1.000  O
  O17      1.0000 0.64482  0.71150  0.22938  Biso   1.000  O
  O18      1.0000 0.56634  0.71246  0.14734  Biso   1.000  O
  O19      1.0000 0.63321  0.18893  0.73586  Biso   1.000  O
  O20      1.0000 0.55439  0.18991  0.66212  Biso   1.000  O
  O21      1.0000 0.51470  0.04010  0.43600  Biso   1.000  O
  O22      1.0000 0.65230  0.89960  0.58330  Biso   1.000  O
  O23      1.0000 0.63839  0.79315  0.34518  Biso   1.000  O
  O24      1.0000 0.56003  0.78353  0.26935  Biso   1.000  O
  Zn3      1.0000 0.65234  0.75326  0.29736  Biso   1.000  Zn
  Zn4      1.0000 0.54800  0.74670  0.19342  Biso   1.000  Zn
  C113     1.0000 0.10443  0.17152  0.30010  Biso   1.000  C
  C114     1.0000 0.10644  0.12705  0.33520  Biso   1.000  C
  C115     1.0000 0.06502  0.10215  0.30550  Biso   1.000  C
  H81      1.0000 0.03630  0.11100  0.26280  Biso   1.000  H
  C116     1.0000 0.06710  0.06383  0.34050  Biso   1.000  C
  H82      1.0000 0.03940  0.04710  0.32070  Biso   1.000  H
  C117     1.0000 0.10880  0.05006  0.40330  Biso   1.000  C
  C118     1.0000 0.14980  0.07410  0.43090  Biso   1.000  C
  H83      1.0000 0.17860  0.06490  0.47340  Biso   1.000  H
  C119     1.0000 0.14853  0.11137  0.39660  Biso   1.000  C
  H84      1.0000 0.17670  0.12630  0.41520  Biso   1.000  H
  C120     1.0000 0.08150  0.93210  0.44340  Biso   1.000  C
  C121     1.0000 0.08310  0.97000  0.40990  Biso   1.000  C
  H85      1.0000 0.06600  0.96690  0.36370  Biso   1.000  H
  C122     1.0000 0.10770  0.00890  0.44180  Biso   1.000  C
  C123     1.0000 0.13330  0.01650  0.51170  Biso   1.000  C
  C124     1.0000 0.13780  0.98040  0.55070  Biso   1.000  C
  H86      1.0000 0.15730  0.98480  0.59740  Biso   1.000  H
  C125     1.0000 0.11190  0.93500  0.51870  Biso   1.000  C
  C126     1.0000 0.06700  0.84740  0.56600  Biso   1.000  C
  H87      1.0000 0.03820  0.83510  0.54840  Biso   1.000  H
  C127     1.0000 0.06780  0.87850  0.52740  Biso   1.000  C
  H88      1.0000 0.03980  0.88590  0.48310  Biso   1.000  H
  C128     1.0000 0.10990  0.89880  0.55390  Biso   1.000  C
  C129     1.0000 0.15130  0.88290  0.61630  Biso   1.000  C
  H89      1.0000 0.18070  0.89300  0.63380  Biso   1.000  H
  C130     1.0000 0.14800  0.85220  0.65160  Biso   1.000  C
  H90      1.0000 0.17610  0.84270  0.69470  Biso   1.000  H
  C131     1.0000 0.10719  0.83449  0.62870  Biso   1.000  C
  C132     1.0000 0.10655  0.80024  0.67180  Biso   1.000  C
  C133     1.0000 0.02920  0.88420  0.32990  Biso   1.000  C
  H91      1.0000 0.00940  0.91140  0.30100  Biso   1.000  H
  H92      1.0000 0.04980  0.87510  0.32310  Biso   1.000  H
  C134     1.0000 0.99890  0.83930  0.32170  Biso   1.000  C
  H93      1.0000 0.00420  0.83700  0.36230  Biso   1.000  H
  H94      1.0000 0.96530  0.84520  0.28320  Biso   1.000  H
  C135     1.0000 0.09325  0.32727  0.18670  Biso   1.000  C
  C136     1.0000 0.09052  0.37061  0.15050  Biso   1.000  C
  C137     1.0000 0.04714  0.39300  0.09700  Biso   1.000  C
  H95      1.0000 0.01940  0.38260  0.08510  Biso   1.000  H
  C138     1.0000 0.04560  0.43088  0.06190  Biso   1.000  C
  H96      1.0000 0.01620  0.44370  0.02420  Biso   1.000  H
  C139     1.0000 0.08540  0.44977  0.08080  Biso   1.000  C
  C140     1.0000 0.12960  0.42800  0.13680  Biso   1.000  C
  H97      1.0000 0.15760  0.44060  0.15160  Biso   1.000  H
  C141     1.0000 0.13136  0.38840  0.16960  Biso   1.000  C
  H98      1.0000 0.16040  0.37360  0.20480  Biso   1.000  H
  C142     1.0000 0.08570  0.48910  0.04730  Biso   1.000  C
  C143     1.0000 0.05190  0.49220  0.97560  Biso   1.000  C
  C144     1.0000 0.11910  0.56450  0.04560  Biso   1.000  C
  C145     1.0000 0.08721  0.56589  0.97620  Biso   1.000  C
  C146     1.0000 0.05300  0.52960  0.93880  Biso   1.000  C
  H99      1.0000 0.03140  0.52930  0.89150  Biso   1.000  H
  C147     1.0000 0.11820  0.52850  0.08310  Biso   1.000  C
  H100     1.0000 0.13860  0.53100  0.13020  Biso   1.000  H
  C148     1.0000 0.13607  0.64292  0.92120  Biso   1.000  C
  H101     1.0000 0.16510  0.64840  0.93430  Biso   1.000  H
  C149     1.0000 0.13290  0.61057  0.95830  Biso   1.000  C
  H102     1.0000 0.16030  0.59530  0.99650  Biso   1.000  H
  C150     1.0000 0.09030  0.60114  0.93910  Biso   1.000  C
  C151     1.0000 0.04999  0.62488  0.88160  Biso   1.000  C
  H103     1.0000 0.02090  0.61890  0.86800  Biso   1.000  H
  C152     1.0000 0.05159  0.65707  0.84390  Biso   1.000  C
  C153     1.0000 0.09579  0.66625  0.86540  Biso   1.000  C
  C154     1.0000 0.09794  0.69919  0.82290  Biso   1.000  C
  C155     1.0000 0.97160  0.47010  0.85780  Biso   1.000  C
  H104     1.0000 0.95450  0.49950  0.84850  Biso   1.000  H
  H105     1.0000 0.97970  0.46850  0.83100  Biso   1.000  H
  C156     1.0000 0.17510  0.60840  0.16000  Biso   1.000  C
  H106     1.0000 0.19870  0.58360  0.18960  Biso   1.000  H
  H107     1.0000 0.15040  0.60560  0.16050  Biso   1.000  H
  C157     1.0000 0.19960  0.66070  0.18820  Biso   1.000  C
  H108     1.0000 0.17970  0.68360  0.15100  Biso   1.000  H
  H109     1.0000 0.22980  0.65940  0.20080  Biso   1.000  H
  C158     1.0000 0.20750  0.67800  0.24160  Biso   1.000  C
  H110     1.0000 0.22210  0.70920  0.25380  Biso   1.000  H
  H111     1.0000 0.17790  0.68070  0.22960  Biso   1.000  H
  H112     1.0000 0.22820  0.65650  0.27960  Biso   1.000  H
  C159     1.0000 0.25160  0.74260  0.93670  Biso   1.000  C
  H113     1.0000 0.23560  0.74430  0.95090  Biso   1.000  H
  C160     1.0000 0.29600  0.74020  0.98250  Biso   1.000  C
  H114     1.0000 0.31030  0.73520  0.02720  Biso   1.000  H
  C161     1.0000 0.32460  0.74460  0.97010  Biso   1.000  C
  C162     1.0000 0.29890  0.74660  0.90000  Biso   1.000  C
  H115     1.0000 0.31470  0.74890  0.88550  Biso   1.000  H
  C163     1.0000 0.24880  0.74510  0.85220  Biso   1.000  C
  H116     1.0000 0.23200  0.74570  0.80600  Biso   1.000  H
  C164     1.0000 0.45064  0.71850  0.12970  Biso   1.000  C
  H117     1.0000 0.46700  0.70200  0.17050  Biso   1.000  H
  C165     1.0000 0.40207  0.71816  0.08260  Biso   1.000  C
  H118     1.0000 0.38610  0.70220  0.09210  Biso   1.000  H
  C166     1.0000 0.37705  0.74119  0.02170  Biso   1.000  C
  C167     1.0000 0.40299  0.76290  0.01060  Biso   1.000  C
  H119     1.0000 0.38750  0.77780  0.96900  Biso   1.000  H
  C168     1.0000 0.45070  0.76280  0.05980  Biso   1.000  C
  H120     1.0000 0.46730  0.77860  0.05130  Biso   1.000  H
  N5       1.0000 0.22502  0.74294  0.86983  Biso   1.000  N
  N6       1.0000 0.47541  0.74148  0.11961  Biso   1.000  N
  O25      1.0000 0.14216  0.19299  0.32959  Biso   1.000  O
  O26      1.0000 0.06400  0.18462  0.24613  Biso   1.000  O
  O27      1.0000 0.05760  0.89300  0.40890  Biso   1.000  O
  O28      1.0000 0.16200  0.05780  0.54790  Biso   1.000  O
  O29      1.0000 0.14482  0.78850  0.72938  Biso   1.000  O
  O30      1.0000 0.06634  0.78754  0.64734  Biso   1.000  O
  O31      1.0000 0.13321  0.31107  0.23586  Biso   1.000  O
  O32      1.0000 0.05439  0.31009  0.16212  Biso   1.000  O
  O33      1.0000 0.01470  0.45990  0.93600  Biso   1.000  O
  O34      1.0000 0.15230  0.60040  0.08330  Biso   1.000  O
  O35      1.0000 0.13839  0.70685  0.84518  Biso   1.000  O
  O36      1.0000 0.06003  0.71647  0.76935  Biso   1.000  O
  Zn5      1.0000 0.15234  0.74674  0.79736  Biso   1.000  Zn
  Zn6      1.0000 0.04800  0.75330  0.69342  Biso   1.000  Zn
  C169     1.0000 0.60443  0.67152  0.30010  Biso   1.000  C
  C170     1.0000 0.60644  0.62705  0.33520  Biso   1.000  C
  C171     1.0000 0.56502  0.60215  0.30550  Biso   1.000  C
  H121     1.0000 0.53630  0.61100  0.26280  Biso   1.000  H
  C172     1.0000 0.56710  0.56383  0.34050  Biso   1.000  C
  H122     1.0000 0.53940  0.54710  0.32070  Biso   1.000  H
  C173     1.0000 0.60880  0.55006  0.40330  Biso   1.000  C
  C174     1.0000 0.64980  0.57410  0.43090  Biso   1.000  C
  H123     1.0000 0.67860  0.56490  0.47340  Biso   1.000  H
  C175     1.0000 0.64853  0.61137  0.39660  Biso   1.000  C
  H124     1.0000 0.67670  0.62630  0.41520  Biso   1.000  H
  C176     1.0000 0.58150  0.43210  0.44340  Biso   1.000  C
  C177     1.0000 0.58310  0.47000  0.40990  Biso   1.000  C
  H125     1.0000 0.56600  0.46690  0.36370  Biso   1.000  H
  C178     1.0000 0.60770  0.50890  0.44180  Biso   1.000  C
  C179     1.0000 0.63330  0.51650  0.51170  Biso   1.000  C
  C180     1.0000 0.63780  0.48040  0.55070  Biso   1.000  C
  H126     1.0000 0.65730  0.48480  0.59740  Biso   1.000  H
  C181     1.0000 0.61190  0.43500  0.51870  Biso   1.000  C
  C182     1.0000 0.56700  0.34740  0.56600  Biso   1.000  C
  H127     1.0000 0.53820  0.33510  0.54840  Biso   1.000  H
  C183     1.0000 0.56780  0.37850  0.52740  Biso   1.000  C
  H128     1.0000 0.53980  0.38590  0.48310  Biso   1.000  H
  C184     1.0000 0.60990  0.39880  0.55390  Biso   1.000  C
  C185     1.0000 0.65130  0.38290  0.61630  Biso   1.000  C
  H129     1.0000 0.68070  0.39300  0.63380  Biso   1.000  H
  C186     1.0000 0.64800  0.35220  0.65160  Biso   1.000  C
  H130     1.0000 0.67610  0.34270  0.69470  Biso   1.000  H
  C187     1.0000 0.60719  0.33449  0.62870  Biso   1.000  C
  C188     1.0000 0.60655  0.30024  0.67180  Biso   1.000  C
  C189     1.0000 0.52920  0.38420  0.32990  Biso   1.000  C
  H131     1.0000 0.50940  0.41140  0.30100  Biso   1.000  H
  H132     1.0000 0.54980  0.37510  0.32310  Biso   1.000  H
  C190     1.0000 0.49890  0.33930  0.32170  Biso   1.000  C
  H133     1.0000 0.50420  0.33700  0.36230  Biso   1.000  H
  H134     1.0000 0.46530  0.34520  0.28320  Biso   1.000  H
  C191     1.0000 0.59325  0.82727  0.18670  Biso   1.000  C
  C192     1.0000 0.59052  0.87061  0.15050  Biso   1.000  C
  C193     1.0000 0.54714  0.89300  0.09700  Biso   1.000  C
  H135     1.0000 0.51940  0.88260  0.08510  Biso   1.000  H
  C194     1.0000 0.54560  0.93088  0.06190  Biso   1.000  C
  H136     1.0000 0.51620  0.94370  0.02420  Biso   1.000  H
  C195     1.0000 0.58540  0.94977  0.08080  Biso   1.000  C
  C196     1.0000 0.62960  0.92800  0.13680  Biso   1.000  C
  H137     1.0000 0.65760  0.94060  0.15160  Biso   1.000  H
  C197     1.0000 0.63136  0.88840  0.16960  Biso   1.000  C
  H138     1.0000 0.66040  0.87360  0.20480  Biso   1.000  H
  C198     1.0000 0.58570  0.98910  0.04730  Biso   1.000  C
  C199     1.0000 0.55190  0.99220  0.97560  Biso   1.000  C
  C200     1.0000 0.61910  0.06450  0.04560  Biso   1.000  C
  C201     1.0000 0.58721  0.06589  0.97620  Biso   1.000  C
  C202     1.0000 0.55300  0.02960  0.93880  Biso   1.000  C
  H139     1.0000 0.53140  0.02930  0.89150  Biso   1.000  H
  C203     1.0000 0.61820  0.02850  0.08310  Biso   1.000  C
  H140     1.0000 0.63860  0.03100  0.13020  Biso   1.000  H
  C204     1.0000 0.63607  0.14292  0.92120  Biso   1.000  C
  H141     1.0000 0.66510  0.14840  0.93430  Biso   1.000  H
  C205     1.0000 0.63290  0.11057  0.95830  Biso   1.000  C
  H142     1.0000 0.66030  0.09530  0.99650  Biso   1.000  H
  C206     1.0000 0.59030  0.10114  0.93910  Biso   1.000  C
  C207     1.0000 0.54999  0.12488  0.88160  Biso   1.000  C
  H143     1.0000 0.52090  0.11890  0.86800  Biso   1.000  H
  C208     1.0000 0.55159  0.15707  0.84390  Biso   1.000  C
  C209     1.0000 0.59579  0.16625  0.86540  Biso   1.000  C
  C210     1.0000 0.59794  0.19919  0.82290  Biso   1.000  C
  C211     1.0000 0.47160  0.97010  0.85780  Biso   1.000  C
  H144     1.0000 0.45450  0.99950  0.84850  Biso   1.000  H
  H145     1.0000 0.47970  0.96850  0.83100  Biso   1.000  H
  C212     1.0000 0.67510  0.10840  0.16000  Biso   1.000  C
  H146     1.0000 0.69870  0.08360  0.18960  Biso   1.000  H
  H147     1.0000 0.65040  0.10560  0.16050  Biso   1.000  H
  C213     1.0000 0.69960  0.16070  0.18820  Biso   1.000  C
  H148     1.0000 0.67970  0.18360  0.15100  Biso   1.000  H
  H149     1.0000 0.72980  0.15940  0.20080  Biso   1.000  H
  C214     1.0000 0.70750  0.17800  0.24160  Biso   1.000  C
  H150     1.0000 0.72210  0.20920  0.25380  Biso   1.000  H
  H151     1.0000 0.67790  0.18070  0.22960  Biso   1.000  H
  H152     1.0000 0.72820  0.15650  0.27960  Biso   1.000  H
  C215     1.0000 0.75160  0.24260  0.93670  Biso   1.000  C
  H153     1.0000 0.73560  0.24430  0.95090  Biso   1.000  H
  C216     1.0000 0.79600  0.24020  0.98250  Biso   1.000  C
  H154     1.0000 0.81030  0.23520  0.02720  Biso   1.000  H
  C217     1.0000 0.82460  0.24460  0.97010  Biso   1.000  C
  C218     1.0000 0.79890  0.24660  0.90000  Biso   1.000  C
  H155     1.0000 0.81470  0.24890  0.88550  Biso   1.000  H
  C219     1.0000 0.74880  0.24510  0.85220  Biso   1.000  C
  H156     1.0000 0.73200  0.24570  0.80600  Biso   1.000  H
  C220     1.0000 0.95064  0.21850  0.12970  Biso   1.000  C
  H157     1.0000 0.96700  0.20200  0.17050  Biso   1.000  H
  C221     1.0000 0.90207  0.21816  0.08260  Biso   1.000  C
  H158     1.0000 0.88610  0.20220  0.09210  Biso   1.000  H
  C222     1.0000 0.87705  0.24119  0.02170  Biso   1.000  C
  C223     1.0000 0.90299  0.26290  0.01060  Biso   1.000  C
  H159     1.0000 0.88750  0.27780  0.96900  Biso   1.000  H
  C224     1.0000 0.95070  0.26280  0.05980  Biso   1.000  C
  H160     1.0000 0.96730  0.27860  0.05130  Biso   1.000  H
  N7       1.0000 0.72502  0.24294  0.86983  Biso   1.000  N
  N8       1.0000 0.97541  0.24148  0.11961  Biso   1.000  N
  O37      1.0000 0.64216  0.69299  0.32959  Biso   1.000  O
  O38      1.0000 0.56400  0.68462  0.24613  Biso   1.000  O
  O39      1.0000 0.55760  0.39300  0.40890  Biso   1.000  O
  O40      1.0000 0.66200  0.55780  0.54790  Biso   1.000  O
  O41      1.0000 0.64482  0.28850  0.72938  Biso   1.000  O
  O42      1.0000 0.56634  0.28754  0.64734  Biso   1.000  O
  O43      1.0000 0.63321  0.81107  0.23586  Biso   1.000  O
  O44      1.0000 0.55439  0.81009  0.16212  Biso   1.000  O
  O45      1.0000 0.51470  0.95990  0.93600  Biso   1.000  O
  O46      1.0000 0.65230  0.10040  0.08330  Biso   1.000  O
  O47      1.0000 0.63839  0.20685  0.84518  Biso   1.000  O
  O48      1.0000 0.56003  0.21647  0.76935  Biso   1.000  O
  Zn7      1.0000 0.65234  0.24674  0.79736  Biso   1.000  Zn
  Zn8      1.0000 0.54800  0.25330  0.69342  Biso   1.000  Zn
  C225     1.0000 0.89557  0.82848  0.69990  Biso   1.000  C
  C226     1.0000 0.89356  0.87295  0.66480  Biso   1.000  C
  C227     1.0000 0.93498  0.89785  0.69450  Biso   1.000  C
  H161     1.0000 0.96370  0.88900  0.73720  Biso   1.000  H
  C228     1.0000 0.93290  0.93617  0.65950  Biso   1.000  C
  H162     1.0000 0.96060  0.95290  0.67930  Biso   1.000  H
  C229     1.0000 0.89120  0.94994  0.59670  Biso   1.000  C
  C230     1.0000 0.85020  0.92590  0.56910  Biso   1.000  C
  H163     1.0000 0.82140  0.93510  0.52660  Biso   1.000  H
  C231     1.0000 0.85147  0.88863  0.60340  Biso   1.000  C
  H164     1.0000 0.82330  0.87370  0.58480  Biso   1.000  H
  C232     1.0000 0.91850  0.06790  0.55660  Biso   1.000  C
  C233     1.0000 0.91690  0.03000  0.59010  Biso   1.000  C
  H165     1.0000 0.93400  0.03310  0.63630  Biso   1.000  H
  C234     1.0000 0.89230  0.99110  0.55820  Biso   1.000  C
  C235     1.0000 0.86670  0.98350  0.48830  Biso   1.000  C
  C236     1.0000 0.86220  0.01960  0.44930  Biso   1.000  C
  H166     1.0000 0.84270  0.01520  0.40260  Biso   1.000  H
  C237     1.0000 0.88810  0.06500  0.48130  Biso   1.000  C
  C238     1.0000 0.93300  0.15260  0.43400  Biso   1.000  C
  H167     1.0000 0.96180  0.16490  0.45160  Biso   1.000  H
  C239     1.0000 0.93220  0.12150  0.47260  Biso   1.000  C
  H168     1.0000 0.96020  0.11410  0.51690  Biso   1.000  H
  C240     1.0000 0.89010  0.10120  0.44610  Biso   1.000  C
  C241     1.0000 0.84870  0.11710  0.38370  Biso   1.000  C
  H169     1.0000 0.81930  0.10700  0.36620  Biso   1.000  H
  C242     1.0000 0.85200  0.14780  0.34840  Biso   1.000  C
  H170     1.0000 0.82390  0.15730  0.30530  Biso   1.000  H
  C243     1.0000 0.89281  0.16551  0.37130  Biso   1.000  C
  C244     1.0000 0.89345  0.19976  0.32820  Biso   1.000  C
  C245     1.0000 0.97080  0.11580  0.67010  Biso   1.000  C
  H171     1.0000 0.99060  0.08860  0.69900  Biso   1.000  H
  H172     1.0000 0.95020  0.12490  0.67690  Biso   1.000  H
  C246     1.0000 0.00110  0.16070  0.67830  Biso   1.000  C
  H173     1.0000 0.99580  0.16300  0.63770  Biso   1.000  H
  H174     1.0000 0.03470  0.15480  0.71680  Biso   1.000  H
  C247     1.0000 0.90675  0.67273  0.81330  Biso   1.000  C
  C248     1.0000 0.90948  0.62939  0.84950  Biso   1.000  C
  C249     1.0000 0.95286  0.60700  0.90300  Biso   1.000  C
  H175     1.0000 0.98060  0.61740  0.91490  Biso   1.000  H
  C250     1.0000 0.95440  0.56912  0.93810  Biso   1.000  C
  H176     1.0000 0.98380  0.55630  0.97580  Biso   1.000  H
  C251     1.0000 0.91460  0.55023  0.91920  Biso   1.000  C
  C252     1.0000 0.87040  0.57200  0.86320  Biso   1.000  C
  H177     1.0000 0.84240  0.55940  0.84840  Biso   1.000  H
  C253     1.0000 0.86864  0.61160  0.83040  Biso   1.000  C
  H178     1.0000 0.83960  0.62640  0.79520  Biso   1.000  H
  C254     1.0000 0.91430  0.51090  0.95270  Biso   1.000  C
  C255     1.0000 0.94810  0.50780  0.02440  Biso   1.000  C
  C256     1.0000 0.88090  0.43550  0.95440  Biso   1.000  C
  C257     1.0000 0.91279  0.43411  0.02380  Biso   1.000  C
  C258     1.0000 0.94700  0.47040  0.06120  Biso   1.000  C
  H179     1.0000 0.96860  0.47070  0.10850  Biso   1.000  H
  C259     1.0000 0.88180  0.47150  0.91690  Biso   1.000  C
  H180     1.0000 0.86140  0.46900  0.86980  Biso   1.000  H
  C260     1.0000 0.86393  0.35708  0.07880  Biso   1.000  C
  H181     1.0000 0.83490  0.35160  0.06570  Biso   1.000  H
  C261     1.0000 0.86710  0.38943  0.04170  Biso   1.000  C
  H182     1.0000 0.83970  0.40470  0.00350  Biso   1.000  H
  C262     1.0000 0.90970  0.39886  0.06090  Biso   1.000  C
  C263     1.0000 0.95001  0.37512  0.11840  Biso   1.000  C
  H183     1.0000 0.97910  0.38110  0.13200  Biso   1.000  H
  C264     1.0000 0.94841  0.34293  0.15610  Biso   1.000  C
  C265     1.0000 0.90421  0.33375  0.13460  Biso   1.000  C
  C266     1.0000 0.90206  0.30081  0.17710  Biso   1.000  C
  C267     1.0000 0.02840  0.52990  0.14220  Biso   1.000  C
  H184     1.0000 0.04550  0.50050  0.15150  Biso   1.000  H
  H185     1.0000 0.02030  0.53150  0.16900  Biso   1.000  H
  C268     1.0000 0.82490  0.39160  0.84000  Biso   1.000  C
  H186     1.0000 0.80130  0.41640  0.81040  Biso   1.000  H
  H187     1.0000 0.84960  0.39440  0.83950  Biso   1.000  H
  C269     1.0000 0.80040  0.33930  0.81180  Biso   1.000  C
  H188     1.0000 0.82030  0.31640  0.84900  Biso   1.000  H
  H189     1.0000 0.77020  0.34060  0.79920  Biso   1.000  H
  C270     1.0000 0.79250  0.32200  0.75840  Biso   1.000  C
  H190     1.0000 0.77790  0.29080  0.74620  Biso   1.000  H
  H191     1.0000 0.82210  0.31930  0.77040  Biso   1.000  H
  H192     1.0000 0.77180  0.34350  0.72040  Biso   1.000  H
  C271     1.0000 0.74840  0.25740  0.06330  Biso   1.000  C
  H193     1.0000 0.76440  0.25570  0.04910  Biso   1.000  H
  C272     1.0000 0.70400  0.25980  0.01750  Biso   1.000  C
  H194     1.0000 0.68970  0.26480  0.97280  Biso   1.000  H
  C273     1.0000 0.67540  0.25540  0.02990  Biso   1.000  C
  C274     1.0000 0.70110  0.25340  0.10000  Biso   1.000  C
  H195     1.0000 0.68530  0.25110  0.11450  Biso   1.000  H
  C275     1.0000 0.75120  0.25490  0.14780  Biso   1.000  C
  H196     1.0000 0.76800  0.25430  0.19400  Biso   1.000  H
  C276     1.0000 0.54936  0.28150  0.87030  Biso   1.000  C
  H197     1.0000 0.53300  0.29800  0.82950  Biso   1.000  H
  C277     1.0000 0.59793  0.28184  0.91740  Biso   1.000  C
  H198     1.0000 0.61390  0.29780  0.90790  Biso   1.000  H
  C278     1.0000 0.62295  0.25881  0.97830  Biso   1.000  C
  C279     1.0000 0.59701  0.23710  0.98940  Biso   1.000  C
  H199     1.0000 0.61250  0.22220  0.03100  Biso   1.000  H
  C280     1.0000 0.54930  0.23720  0.94020  Biso   1.000  C
  H200     1.0000 0.53270  0.22140  0.94870  Biso   1.000  H
  N9       1.0000 0.77498  0.25706  0.13017  Biso   1.000  N
  N10      1.0000 0.52459  0.25852  0.88039  Biso   1.000  N
  O49      1.0000 0.85784  0.80701  0.67041  Biso   1.000  O
  O50      1.0000 0.93600  0.81538  0.75387  Biso   1.000  O
  O51      1.0000 0.94240  0.10700  0.59110  Biso   1.000  O
  O52      1.0000 0.83800  0.94220  0.45210  Biso   1.000  O
  O53      1.0000 0.85518  0.21150  0.27062  Biso   1.000  O
  O54      1.0000 0.93366  0.21246  0.35266  Biso   1.000  O
  O55      1.0000 0.86679  0.68893  0.76414  Biso   1.000  O
  O56      1.0000 0.94561  0.68991  0.83788  Biso   1.000  O
  O57      1.0000 0.98530  0.54010  0.06400  Biso   1.000  O
  O58      1.0000 0.84770  0.39960  0.91670  Biso   1.000  O
  O59      1.0000 0.86161  0.29315  0.15482  Biso   1.000  O
  O60      1.0000 0.93997  0.28353  0.23065  Biso   1.000  O
  Zn9      1.0000 0.84766  0.25326  0.20264  Biso   1.000  Zn
  Zn10     1.0000 0.95200  0.24670  0.30658  Biso   1.000  Zn
  C281     1.0000 0.39557  0.32848  0.69990  Biso   1.000  C
  C282     1.0000 0.39356  0.37295  0.66480  Biso   1.000  C
  C283     1.0000 0.43498  0.39785  0.69450  Biso   1.000  C
  H201     1.0000 0.46370  0.38900  0.73720  Biso   1.000  H
  C284     1.0000 0.43290  0.43617  0.65950  Biso   1.000  C
  H202     1.0000 0.46060  0.45290  0.67930  Biso   1.000  H
  C285     1.0000 0.39120  0.44994  0.59670  Biso   1.000  C
  C286     1.0000 0.35020  0.42590  0.56910  Biso   1.000  C
  H203     1.0000 0.32140  0.43510  0.52660  Biso   1.000  H
  C287     1.0000 0.35147  0.38863  0.60340  Biso   1.000  C
  H204     1.0000 0.32330  0.37370  0.58480  Biso   1.000  H
  C288     1.0000 0.41850  0.56790  0.55660  Biso   1.000  C
  C289     1.0000 0.41690  0.53000  0.59010  Biso   1.000  C
  H205     1.0000 0.43400  0.53310  0.63630  Biso   1.000  H
  C290     1.0000 0.39230  0.49110  0.55820  Biso   1.000  C
  C291     1.0000 0.36670  0.48350  0.48830  Biso   1.000  C
  C292     1.0000 0.36220  0.51960  0.44930  Biso   1.000  C
  H206     1.0000 0.34270  0.51520  0.40260  Biso   1.000  H
  C293     1.0000 0.38810  0.56500  0.48130  Biso   1.000  C
  C294     1.0000 0.43300  0.65260  0.43400  Biso   1.000  C
  H207     1.0000 0.46180  0.66490  0.45160  Biso   1.000  H
  C295     1.0000 0.43220  0.62150  0.47260  Biso   1.000  C
  H208     1.0000 0.46020  0.61410  0.51690  Biso   1.000  H
  C296     1.0000 0.39010  0.60120  0.44610  Biso   1.000  C
  C297     1.0000 0.34870  0.61710  0.38370  Biso   1.000  C
  H209     1.0000 0.31930  0.60700  0.36620  Biso   1.000  H
  C298     1.0000 0.35200  0.64780  0.34840  Biso   1.000  C
  H210     1.0000 0.32390  0.65730  0.30530  Biso   1.000  H
  C299     1.0000 0.39281  0.66551  0.37130  Biso   1.000  C
  C300     1.0000 0.39345  0.69976  0.32820  Biso   1.000  C
  C301     1.0000 0.47080  0.61580  0.67010  Biso   1.000  C
  H211     1.0000 0.49060  0.58860  0.69900  Biso   1.000  H
  H212     1.0000 0.45020  0.62490  0.67690  Biso   1.000  H
  C302     1.0000 0.50110  0.66070  0.67830  Biso   1.000  C
  H213     1.0000 0.49580  0.66300  0.63770  Biso   1.000  H
  H214     1.0000 0.53470  0.65480  0.71680  Biso   1.000  H
  C303     1.0000 0.40675  0.17273  0.81330  Biso   1.000  C
  C304     1.0000 0.40948  0.12939  0.84950  Biso   1.000  C
  C305     1.0000 0.45286  0.10700  0.90300  Biso   1.000  C
  H215     1.0000 0.48060  0.11740  0.91490  Biso   1.000  H
  C306     1.0000 0.45440  0.06912  0.93810  Biso   1.000  C
  H216     1.0000 0.48380  0.05630  0.97580  Biso   1.000  H
  C307     1.0000 0.41460  0.05023  0.91920  Biso   1.000  C
  C308     1.0000 0.37040  0.07200  0.86320  Biso   1.000  C
  H217     1.0000 0.34240  0.05940  0.84840  Biso   1.000  H
  C309     1.0000 0.36864  0.11160  0.83040  Biso   1.000  C
  H218     1.0000 0.33960  0.12640  0.79520  Biso   1.000  H
  C310     1.0000 0.41430  0.01090  0.95270  Biso   1.000  C
  C311     1.0000 0.44810  0.00780  0.02440  Biso   1.000  C
  C312     1.0000 0.38090  0.93550  0.95440  Biso   1.000  C
  C313     1.0000 0.41279  0.93411  0.02380  Biso   1.000  C
  C314     1.0000 0.44700  0.97040  0.06120  Biso   1.000  C
  H219     1.0000 0.46860  0.97070  0.10850  Biso   1.000  H
  C315     1.0000 0.38180  0.97150  0.91690  Biso   1.000  C
  H220     1.0000 0.36140  0.96900  0.86980  Biso   1.000  H
  C316     1.0000 0.36393  0.85708  0.07880  Biso   1.000  C
  H221     1.0000 0.33490  0.85160  0.06570  Biso   1.000  H
  C317     1.0000 0.36710  0.88943  0.04170  Biso   1.000  C
  H222     1.0000 0.33970  0.90470  0.00350  Biso   1.000  H
  C318     1.0000 0.40970  0.89886  0.06090  Biso   1.000  C
  C319     1.0000 0.45001  0.87512  0.11840  Biso   1.000  C
  H223     1.0000 0.47910  0.88110  0.13200  Biso   1.000  H
  C320     1.0000 0.44841  0.84293  0.15610  Biso   1.000  C
  C321     1.0000 0.40421  0.83375  0.13460  Biso   1.000  C
  C322     1.0000 0.40206  0.80081  0.17710  Biso   1.000  C
  C323     1.0000 0.52840  0.02990  0.14220  Biso   1.000  C
  H224     1.0000 0.54550  0.00050  0.15150  Biso   1.000  H
  H225     1.0000 0.52030  0.03150  0.16900  Biso   1.000  H
  C324     1.0000 0.32490  0.89160  0.84000  Biso   1.000  C
  H226     1.0000 0.30130  0.91640  0.81040  Biso   1.000  H
  H227     1.0000 0.34960  0.89440  0.83950  Biso   1.000  H
  C325     1.0000 0.30040  0.83930  0.81180  Biso   1.000  C
  H228     1.0000 0.32030  0.81640  0.84900  Biso   1.000  H
  H229     1.0000 0.27020  0.84060  0.79920  Biso   1.000  H
  C326     1.0000 0.29250  0.82200  0.75840  Biso   1.000  C
  H230     1.0000 0.27790  0.79080  0.74620  Biso   1.000  H
  H231     1.0000 0.32210  0.81930  0.77040  Biso   1.000  H
  H232     1.0000 0.27180  0.84350  0.72040  Biso   1.000  H
  C327     1.0000 0.24840  0.75740  0.06330  Biso   1.000  C
  H233     1.0000 0.26440  0.75570  0.04910  Biso   1.000  H
  C328     1.0000 0.20400  0.75980  0.01750  Biso   1.000  C
  H234     1.0000 0.18970  0.76480  0.97280  Biso   1.000  H
  C329     1.0000 0.17540  0.75540  0.02990  Biso   1.000  C
  C330     1.0000 0.20110  0.75340  0.10000  Biso   1.000  C
  H235     1.0000 0.18530  0.75110  0.11450  Biso   1.000  H
  C331     1.0000 0.25120  0.75490  0.14780  Biso   1.000  C
  H236     1.0000 0.26800  0.75430  0.19400  Biso   1.000  H
  C332     1.0000 0.04936  0.78150  0.87030  Biso   1.000  C
  H237     1.0000 0.03300  0.79800  0.82950  Biso   1.000  H
  C333     1.0000 0.09793  0.78184  0.91740  Biso   1.000  C
  H238     1.0000 0.11390  0.79780  0.90790  Biso   1.000  H
  C334     1.0000 0.12295  0.75881  0.97830  Biso   1.000  C
  C335     1.0000 0.09701  0.73710  0.98940  Biso   1.000  C
  H239     1.0000 0.11250  0.72220  0.03100  Biso   1.000  H
  C336     1.0000 0.04930  0.73720  0.94020  Biso   1.000  C
  H240     1.0000 0.03270  0.72140  0.94870  Biso   1.000  H
  N11      1.0000 0.27498  0.75706  0.13017  Biso   1.000  N
  N12      1.0000 0.02459  0.75852  0.88039  Biso   1.000  N
  O61      1.0000 0.35784  0.30701  0.67041  Biso   1.000  O
  O62      1.0000 0.43600  0.31538  0.75387  Biso   1.000  O
  O63      1.0000 0.44240  0.60700  0.59110  Biso   1.000  O
  O64      1.0000 0.33800  0.44220  0.45210  Biso   1.000  O
  O65      1.0000 0.35518  0.71150  0.27062  Biso   1.000  O
  O66      1.0000 0.43366  0.71246  0.35266  Biso   1.000  O
  O67      1.0000 0.36679  0.18893  0.76414  Biso   1.000  O
  O68      1.0000 0.44561  0.18991  0.83788  Biso   1.000  O
  O69      1.0000 0.48530  0.04010  0.06400  Biso   1.000  O
  O70      1.0000 0.34770  0.89960  0.91670  Biso   1.000  O
  O71      1.0000 0.36161  0.79315  0.15482  Biso   1.000  O
  O72      1.0000 0.43997  0.78353  0.23065  Biso   1.000  O
  Zn11     1.0000 0.34766  0.75326  0.20264  Biso   1.000  Zn
  Zn12     1.0000 0.45200  0.74670  0.30658  Biso   1.000  Zn
  C337     1.0000 0.89557  0.17152  0.19990  Biso   1.000  C
  C338     1.0000 0.89356  0.12705  0.16480  Biso   1.000  C
  C339     1.0000 0.93498  0.10215  0.19450  Biso   1.000  C
  H241     1.0000 0.96370  0.11100  0.23720  Biso   1.000  H
  C340     1.0000 0.93290  0.06383  0.15950  Biso   1.000  C
  H242     1.0000 0.96060  0.04710  0.17930  Biso   1.000  H
  C341     1.0000 0.89120  0.05006  0.09670  Biso   1.000  C
  C342     1.0000 0.85020  0.07410  0.06910  Biso   1.000  C
  H243     1.0000 0.82140  0.06490  0.02660  Biso   1.000  H
  C343     1.0000 0.85147  0.11137  0.10340  Biso   1.000  C
  H244     1.0000 0.82330  0.12630  0.08480  Biso   1.000  H
  C344     1.0000 0.91850  0.93210  0.05660  Biso   1.000  C
  C345     1.0000 0.91690  0.97000  0.09010  Biso   1.000  C
  H245     1.0000 0.93400  0.96690  0.13630  Biso   1.000  H
  C346     1.0000 0.89230  0.00890  0.05820  Biso   1.000  C
  C347     1.0000 0.86670  0.01650  0.98830  Biso   1.000  C
  C348     1.0000 0.86220  0.98040  0.94930  Biso   1.000  C
  H246     1.0000 0.84270  0.98480  0.90260  Biso   1.000  H
  C349     1.0000 0.88810  0.93500  0.98130  Biso   1.000  C
  C350     1.0000 0.93300  0.84740  0.93400  Biso   1.000  C
  H247     1.0000 0.96180  0.83510  0.95160  Biso   1.000  H
  C351     1.0000 0.93220  0.87850  0.97260  Biso   1.000  C
  H248     1.0000 0.96020  0.88590  0.01690  Biso   1.000  H
  C352     1.0000 0.89010  0.89880  0.94610  Biso   1.000  C
  C353     1.0000 0.84870  0.88290  0.88370  Biso   1.000  C
  H249     1.0000 0.81930  0.89300  0.86620  Biso   1.000  H
  C354     1.0000 0.85200  0.85220  0.84840  Biso   1.000  C
  H250     1.0000 0.82390  0.84270  0.80530  Biso   1.000  H
  C355     1.0000 0.89281  0.83449  0.87130  Biso   1.000  C
  C356     1.0000 0.89345  0.80024  0.82820  Biso   1.000  C
  C357     1.0000 0.97080  0.88420  0.17010  Biso   1.000  C
  H251     1.0000 0.99060  0.91140  0.19900  Biso   1.000  H
  H252     1.0000 0.95020  0.87510  0.17690  Biso   1.000  H
  C358     1.0000 0.00110  0.83930  0.17830  Biso   1.000  C
  H253     1.0000 0.99580  0.83700  0.13770  Biso   1.000  H
  H254     1.0000 0.03470  0.84520  0.21680  Biso   1.000  H
  C359     1.0000 0.90675  0.32727  0.31330  Biso   1.000  C
  C360     1.0000 0.90948  0.37061  0.34950  Biso   1.000  C
  C361     1.0000 0.95286  0.39300  0.40300  Biso   1.000  C
  H255     1.0000 0.98060  0.38260  0.41490  Biso   1.000  H
  C362     1.0000 0.95440  0.43088  0.43810  Biso   1.000  C
  H256     1.0000 0.98380  0.44370  0.47580  Biso   1.000  H
  C363     1.0000 0.91460  0.44977  0.41920  Biso   1.000  C
  C364     1.0000 0.87040  0.42800  0.36320  Biso   1.000  C
  H257     1.0000 0.84240  0.44060  0.34840  Biso   1.000  H
  C365     1.0000 0.86864  0.38840  0.33040  Biso   1.000  C
  H258     1.0000 0.83960  0.37360  0.29520  Biso   1.000  H
  C366     1.0000 0.91430  0.48910  0.45270  Biso   1.000  C
  C367     1.0000 0.94810  0.49220  0.52440  Biso   1.000  C
  C368     1.0000 0.88090  0.56450  0.45440  Biso   1.000  C
  C369     1.0000 0.91279  0.56589  0.52380  Biso   1.000  C
  C370     1.0000 0.94700  0.52960  0.56120  Biso   1.000  C
  H259     1.0000 0.96860  0.52930  0.60850  Biso   1.000  H
  C371     1.0000 0.88180  0.52850  0.41690  Biso   1.000  C
  H260     1.0000 0.86140  0.53100  0.36980  Biso   1.000  H
  C372     1.0000 0.86393  0.64292  0.57880  Biso   1.000  C
  H261     1.0000 0.83490  0.64840  0.56570  Biso   1.000  H
  C373     1.0000 0.86710  0.61057  0.54170  Biso   1.000  C
  H262     1.0000 0.83970  0.59530  0.50350  Biso   1.000  H
  C374     1.0000 0.90970  0.60114  0.56090  Biso   1.000  C
  C375     1.0000 0.95001  0.62488  0.61840  Biso   1.000  C
  H263     1.0000 0.97910  0.61890  0.63200  Biso   1.000  H
  C376     1.0000 0.94841  0.65707  0.65610  Biso   1.000  C
  C377     1.0000 0.90421  0.66625  0.63460  Biso   1.000  C
  C378     1.0000 0.90206  0.69919  0.67710  Biso   1.000  C
  C379     1.0000 0.02840  0.47010  0.64220  Biso   1.000  C
  H264     1.0000 0.04550  0.49950  0.65150  Biso   1.000  H
  H265     1.0000 0.02030  0.46850  0.66900  Biso   1.000  H
  C380     1.0000 0.82490  0.60840  0.34000  Biso   1.000  C
  H266     1.0000 0.80130  0.58360  0.31040  Biso   1.000  H
  H267     1.0000 0.84960  0.60560  0.33950  Biso   1.000  H
  C381     1.0000 0.80040  0.66070  0.31180  Biso   1.000  C
  H268     1.0000 0.82030  0.68360  0.34900  Biso   1.000  H
  H269     1.0000 0.77020  0.65940  0.29920  Biso   1.000  H
  C382     1.0000 0.79250  0.67800  0.25840  Biso   1.000  C
  H270     1.0000 0.77790  0.70920  0.24620  Biso   1.000  H
  H271     1.0000 0.82210  0.68070  0.27040  Biso   1.000  H
  H272     1.0000 0.77180  0.65650  0.22040  Biso   1.000  H
  C383     1.0000 0.74840  0.74260  0.56330  Biso   1.000  C
  H273     1.0000 0.76440  0.74430  0.54910  Biso   1.000  H
  C384     1.0000 0.70400  0.74020  0.51750  Biso   1.000  C
  H274     1.0000 0.68970  0.73520  0.47280  Biso   1.000  H
  C385     1.0000 0.67540  0.74460  0.52990  Biso   1.000  C
  C386     1.0000 0.70110  0.74660  0.60000  Biso   1.000  C
  H275     1.0000 0.68530  0.74890  0.61450  Biso   1.000  H
  C387     1.0000 0.75120  0.74510  0.64780  Biso   1.000  C
  H276     1.0000 0.76800  0.74570  0.69400  Biso   1.000  H
  C388     1.0000 0.54936  0.71850  0.37030  Biso   1.000  C
  H277     1.0000 0.53300  0.70200  0.32950  Biso   1.000  H
  C389     1.0000 0.59793  0.71816  0.41740  Biso   1.000  C
  H278     1.0000 0.61390  0.70220  0.40790  Biso   1.000  H
  C390     1.0000 0.62295  0.74119  0.47830  Biso   1.000  C
  C391     1.0000 0.59701  0.76290  0.48940  Biso   1.000  C
  H279     1.0000 0.61250  0.77780  0.53100  Biso   1.000  H
  C392     1.0000 0.54930  0.76280  0.44020  Biso   1.000  C
  H280     1.0000 0.53270  0.77860  0.44870  Biso   1.000  H
  N13      1.0000 0.77498  0.74294  0.63017  Biso   1.000  N
  N14      1.0000 0.52459  0.74148  0.38039  Biso   1.000  N
  O73      1.0000 0.85784  0.19299  0.17041  Biso   1.000  O
  O74      1.0000 0.93600  0.18462  0.25387  Biso   1.000  O
  O75      1.0000 0.94240  0.89300  0.09110  Biso   1.000  O
  O76      1.0000 0.83800  0.05780  0.95210  Biso   1.000  O
  O77      1.0000 0.85518  0.78850  0.77062  Biso   1.000  O
  O78      1.0000 0.93366  0.78754  0.85266  Biso   1.000  O
  O79      1.0000 0.86679  0.31107  0.26414  Biso   1.000  O
  O80      1.0000 0.94561  0.31009  0.33788  Biso   1.000  O
  O81      1.0000 0.98530  0.45990  0.56400  Biso   1.000  O
  O82      1.0000 0.84770  0.60040  0.41670  Biso   1.000  O
  O83      1.0000 0.86161  0.70685  0.65482  Biso   1.000  O
  O84      1.0000 0.93997  0.71647  0.73065  Biso   1.000  O
  Zn13     1.0000 0.84766  0.74674  0.70264  Biso   1.000  Zn
  Zn14     1.0000 0.95200  0.75330  0.80658  Biso   1.000  Zn
  C393     1.0000 0.39557  0.67152  0.19990  Biso   1.000  C
  C394     1.0000 0.39356  0.62705  0.16480  Biso   1.000  C
  C395     1.0000 0.43498  0.60215  0.19450  Biso   1.000  C
  H281     1.0000 0.46370  0.61100  0.23720  Biso   1.000  H
  C396     1.0000 0.43290  0.56383  0.15950  Biso   1.000  C
  H282     1.0000 0.46060  0.54710  0.17930  Biso   1.000  H
  C397     1.0000 0.39120  0.55006  0.09670  Biso   1.000  C
  C398     1.0000 0.35020  0.57410  0.06910  Biso   1.000  C
  H283     1.0000 0.32140  0.56490  0.02660  Biso   1.000  H
  C399     1.0000 0.35147  0.61137  0.10340  Biso   1.000  C
  H284     1.0000 0.32330  0.62630  0.08480  Biso   1.000  H
  C400     1.0000 0.41850  0.43210  0.05660  Biso   1.000  C
  C401     1.0000 0.41690  0.47000  0.09010  Biso   1.000  C
  H285     1.0000 0.43400  0.46690  0.13630  Biso   1.000  H
  C402     1.0000 0.39230  0.50890  0.05820  Biso   1.000  C
  C403     1.0000 0.36670  0.51650  0.98830  Biso   1.000  C
  C404     1.0000 0.36220  0.48040  0.94930  Biso   1.000  C
  H286     1.0000 0.34270  0.48480  0.90260  Biso   1.000  H
  C405     1.0000 0.38810  0.43500  0.98130  Biso   1.000  C
  C406     1.0000 0.43300  0.34740  0.93400  Biso   1.000  C
  H287     1.0000 0.46180  0.33510  0.95160  Biso   1.000  H
  C407     1.0000 0.43220  0.37850  0.97260  Biso   1.000  C
  H288     1.0000 0.46020  0.38590  0.01690  Biso   1.000  H
  C408     1.0000 0.39010  0.39880  0.94610  Biso   1.000  C
  C409     1.0000 0.34870  0.38290  0.88370  Biso   1.000  C
  H289     1.0000 0.31930  0.39300  0.86620  Biso   1.000  H
  C410     1.0000 0.35200  0.35220  0.84840  Biso   1.000  C
  H290     1.0000 0.32390  0.34270  0.80530  Biso   1.000  H
  C411     1.0000 0.39281  0.33449  0.87130  Biso   1.000  C
  C412     1.0000 0.39345  0.30024  0.82820  Biso   1.000  C
  C413     1.0000 0.47080  0.38420  0.17010  Biso   1.000  C
  H291     1.0000 0.49060  0.41140  0.19900  Biso   1.000  H
  H292     1.0000 0.45020  0.37510  0.17690  Biso   1.000  H
  C414     1.0000 0.50110  0.33930  0.17830  Biso   1.000  C
  H293     1.0000 0.49580  0.33700  0.13770  Biso   1.000  H
  H294     1.0000 0.53470  0.34520  0.21680  Biso   1.000  H
  C415     1.0000 0.40675  0.82727  0.31330  Biso   1.000  C
  C416     1.0000 0.40948  0.87061  0.34950  Biso   1.000  C
  C417     1.0000 0.45286  0.89300  0.40300  Biso   1.000  C
  H295     1.0000 0.48060  0.88260  0.41490  Biso   1.000  H
  C418     1.0000 0.45440  0.93088  0.43810  Biso   1.000  C
  H296     1.0000 0.48380  0.94370  0.47580  Biso   1.000  H
  C419     1.0000 0.41460  0.94977  0.41920  Biso   1.000  C
  C420     1.0000 0.37040  0.92800  0.36320  Biso   1.000  C
  H297     1.0000 0.34240  0.94060  0.34840  Biso   1.000  H
  C421     1.0000 0.36864  0.88840  0.33040  Biso   1.000  C
  H298     1.0000 0.33960  0.87360  0.29520  Biso   1.000  H
  C422     1.0000 0.41430  0.98910  0.45270  Biso   1.000  C
  C423     1.0000 0.44810  0.99220  0.52440  Biso   1.000  C
  C424     1.0000 0.38090  0.06450  0.45440  Biso   1.000  C
  C425     1.0000 0.41279  0.06589  0.52380  Biso   1.000  C
  C426     1.0000 0.44700  0.02960  0.56120  Biso   1.000  C
  H299     1.0000 0.46860  0.02930  0.60850  Biso   1.000  H
  C427     1.0000 0.38180  0.02850  0.41690  Biso   1.000  C
  H300     1.0000 0.36140  0.03100  0.36980  Biso   1.000  H
  C428     1.0000 0.36393  0.14292  0.57880  Biso   1.000  C
  H301     1.0000 0.33490  0.14840  0.56570  Biso   1.000  H
  C429     1.0000 0.36710  0.11057  0.54170  Biso   1.000  C
  H302     1.0000 0.33970  0.09530  0.50350  Biso   1.000  H
  C430     1.0000 0.40970  0.10114  0.56090  Biso   1.000  C
  C431     1.0000 0.45001  0.12488  0.61840  Biso   1.000  C
  H303     1.0000 0.47910  0.11890  0.63200  Biso   1.000  H
  C432     1.0000 0.44841  0.15707  0.65610  Biso   1.000  C
  C433     1.0000 0.40421  0.16625  0.63460  Biso   1.000  C
  C434     1.0000 0.40206  0.19919  0.67710  Biso   1.000  C
  C435     1.0000 0.52840  0.97010  0.64220  Biso   1.000  C
  H304     1.0000 0.54550  0.99950  0.65150  Biso   1.000  H
  H305     1.0000 0.52030  0.96850  0.66900  Biso   1.000  H
  C436     1.0000 0.32490  0.10840  0.34000  Biso   1.000  C
  H306     1.0000 0.30130  0.08360  0.31040  Biso   1.000  H
  H307     1.0000 0.34960  0.10560  0.33950  Biso   1.000  H
  C437     1.0000 0.30040  0.16070  0.31180  Biso   1.000  C
  H308     1.0000 0.32030  0.18360  0.34900  Biso   1.000  H
  H309     1.0000 0.27020  0.15940  0.29920  Biso   1.000  H
  C438     1.0000 0.29250  0.17800  0.25840  Biso   1.000  C
  H310     1.0000 0.27790  0.20920  0.24620  Biso   1.000  H
  H311     1.0000 0.32210  0.18070  0.27040  Biso   1.000  H
  H312     1.0000 0.27180  0.15650  0.22040  Biso   1.000  H
  C439     1.0000 0.24840  0.24260  0.56330  Biso   1.000  C
  H313     1.0000 0.26440  0.24430  0.54910  Biso   1.000  H
  C440     1.0000 0.20400  0.24020  0.51750  Biso   1.000  C
  H314     1.0000 0.18970  0.23520  0.47280  Biso   1.000  H
  C441     1.0000 0.17540  0.24460  0.52990  Biso   1.000  C
  C442     1.0000 0.20110  0.24660  0.60000  Biso   1.000  C
  H315     1.0000 0.18530  0.24890  0.61450  Biso   1.000  H
  C443     1.0000 0.25120  0.24510  0.64780  Biso   1.000  C
  H316     1.0000 0.26800  0.24570  0.69400  Biso   1.000  H
  C444     1.0000 0.04936  0.21850  0.37030  Biso   1.000  C
  H317     1.0000 0.03300  0.20200  0.32950  Biso   1.000  H
  C445     1.0000 0.09793  0.21816  0.41740  Biso   1.000  C
  H318     1.0000 0.11390  0.20220  0.40790  Biso   1.000  H
  C446     1.0000 0.12295  0.24119  0.47830  Biso   1.000  C
  C447     1.0000 0.09701  0.26290  0.48940  Biso   1.000  C
  H319     1.0000 0.11250  0.27780  0.53100  Biso   1.000  H
  C448     1.0000 0.04930  0.26280  0.44020  Biso   1.000  C
  H320     1.0000 0.03270  0.27860  0.44870  Biso   1.000  H
  N15      1.0000 0.27498  0.24294  0.63017  Biso   1.000  N
  N16      1.0000 0.02459  0.24148  0.38039  Biso   1.000  N
  O85      1.0000 0.35784  0.69299  0.17041  Biso   1.000  O
  O86      1.0000 0.43600  0.68462  0.25387  Biso   1.000  O
  O87      1.0000 0.44240  0.39300  0.09110  Biso   1.000  O
  O88      1.0000 0.33800  0.55780  0.95210  Biso   1.000  O
  O89      1.0000 0.35518  0.28850  0.77062  Biso   1.000  O
  O90      1.0000 0.43366  0.28754  0.85266  Biso   1.000  O
  O91      1.0000 0.36679  0.81107  0.26414  Biso   1.000  O
  O92      1.0000 0.44561  0.81009  0.33788  Biso   1.000  O
  O93      1.0000 0.48530  0.95990  0.56400  Biso   1.000  O
  O94      1.0000 0.34770  0.10040  0.41670  Biso   1.000  O
  O95      1.0000 0.36161  0.20685  0.65482  Biso   1.000  O
  O96      1.0000 0.43997  0.21647  0.73065  Biso   1.000  O
  Zn15     1.0000 0.34766  0.24674  0.70264  Biso   1.000  Zn
  Zn16     1.0000 0.45200  0.25330  0.80658  Biso   1.000  Zn
