data_image0
_cell_length_a       39.049
_cell_length_b       27.573
_cell_length_c       27.218
_cell_angle_alpha    90
_cell_angle_beta     133.883
_cell_angle_gamma    90

_symmetry_space_group_name_H-M    "P 1"
_symmetry_int_tables_number       1

loop_
  _symmetry_equiv_pos_as_xyz
  'x, y, z'

loop_
  _atom_site_label
  _atom_site_occupancy
  _atom_site_fract_x
  _atom_site_fract_y
  _atom_site_fract_z
  _atom_site_thermal_displace_type
  _atom_site_B_iso_or_equiv
  _atom_site_type_symbol
  C1       1.0000 0.09870  0.19864  0.37220  Biso   1.000  C
  C2       1.0000 0.09674  0.16619  0.32630  Biso   1.000  C
  C3       1.0000 0.05349  0.15604  0.26020  Biso   1.000  C
  H1       1.0000 0.02580  0.17050  0.24420  Biso   1.000  H
  C4       1.0000 0.05150  0.12513  0.21900  Biso   1.000  C
  H2       1.0000 0.02260  0.12020  0.17440  Biso   1.000  H
  C5       1.0000 0.09250  0.10040  0.24290  Biso   1.000  C
  C6       1.0000 0.13590  0.11280  0.30830  Biso   1.000  C
  H3       1.0000 0.16390  0.09960  0.32400  Biso   1.000  H
  C7       1.0000 0.13770  0.14430  0.34990  Biso   1.000  C
  H4       1.0000 0.16660  0.15070  0.39390  Biso   1.000  H
  C8       1.0000 0.09100  0.06550  0.19930  Biso   1.000  C
  C9       1.0000 0.05450  0.02930  0.16840  Biso   1.000  C
  H5       1.0000 0.03330  0.03020  0.17360  Biso   1.000  H
  C10      1.0000 0.05180  0.99200  0.12960  Biso   1.000  C
  C11      1.0000 0.09020  0.99120  0.13090  Biso   1.000  C
  C12      1.0000 0.10800  0.03160  0.13970  Biso   1.000  C
  H6       1.0000 0.11890  0.03820  0.11890  Biso   1.000  H
  C13      1.0000 0.11230  0.06920  0.18230  Biso   1.000  C
  C14      1.0000 0.13250  0.88870  0.09090  Biso   1.000  C
  H7       1.0000 0.16130  0.87400  0.11210  Biso   1.000  H
  C15      1.0000 0.13210  0.92750  0.12350  Biso   1.000  C
  H8       1.0000 0.16010  0.93690  0.16690  Biso   1.000  H
  C16      1.0000 0.09110  0.95170  0.09210  Biso   1.000  C
  C17      1.0000 0.04920  0.93480  0.02960  Biso   1.000  C
  H9       1.0000 0.02030  0.94960  0.00820  Biso   1.000  H
  C18      1.0000 0.05110  0.89490  0.99910  Biso   1.000  C
  H10      1.0000 0.02320  0.88410  0.95670  Biso   1.000  H
  C19      1.0000 0.09245  0.87162  0.02970  Biso   1.000  C
  C20      1.0000 0.09321  0.82842  0.99640  Biso   1.000  C
  C21      1.0000 0.18780  0.10250  0.21170  Biso   1.000  C
  H11      1.0000 0.20770  0.07430  0.23690  Biso   1.000  H
  H12      1.0000 0.17620  0.10230  0.16660  Biso   1.000  H
  C22      1.0000 0.21330  0.14830  0.24880  Biso   1.000  C
  H13      1.0000 0.19010  0.16810  0.24290  Biso   1.000  H
  H14      1.0000 0.23680  0.13930  0.29660  Biso   1.000  H
  C23      1.0000 0.23590  0.17890  0.24130  Biso   1.000  C
  H15      1.0000 0.26820  0.16680  0.27370  Biso   1.000  H
  H16      1.0000 0.23690  0.20870  0.26130  Biso   1.000  H
  C24      1.0000 0.22980  0.19720  0.18210  Biso   1.000  C
  H17      1.0000 0.19900  0.18670  0.13960  Biso   1.000  H
  H18      1.0000 0.25370  0.18180  0.18560  Biso   1.000  H
  C25      1.0000 0.23350  0.25280  0.17860  Biso   1.000  C
  H19      1.0000 0.22920  0.26050  0.14030  Biso   1.000  H
  H20      1.0000 0.26420  0.26370  0.21980  Biso   1.000  H
  H21      1.0000 0.20930  0.26860  0.17360  Biso   1.000  H
  C26      1.0000 0.97490  0.95940  0.08810  Biso   1.000  C
  H22      1.0000 0.95910  0.99020  0.06660  Biso   1.000  H
  H23      1.0000 0.98340  0.95740  0.13100  Biso   1.000  H
  C27      1.0000 0.94370  0.91900  0.04350  Biso   1.000  C
  H24      1.0000 0.91290  0.93480  0.01140  Biso   1.000  H
  H25      1.0000 0.94290  0.90030  0.07290  Biso   1.000  H
  C28      1.0000 0.93800  0.87670  0.99640  Biso   1.000  C
  H26      1.0000 0.90690  0.87990  0.95050  Biso   1.000  H
  H27      1.0000 0.96140  0.88240  0.99410  Biso   1.000  H
  C29      1.0000 0.94320  0.82770  0.01850  Biso   1.000  C
  H28      1.0000 0.91450  0.80970  0.98240  Biso   1.000  H
  H29      1.0000 0.94720  0.82780  0.05790  Biso   1.000  H
  C30      1.0000 0.10565  0.30085  0.53750  Biso   1.000  C
  C31      1.0000 0.10595  0.33299  0.58210  Biso   1.000  C
  C32      1.0000 0.14870  0.35200  0.64270  Biso   1.000  C
  H30      1.0000 0.17740  0.34330  0.65680  Biso   1.000  H
  C33      1.0000 0.14820  0.38320  0.68110  Biso   1.000  C
  H31      1.0000 0.17720  0.39350  0.72260  Biso   1.000  H
  C34      1.0000 0.10820  0.39990  0.66240  Biso   1.000  C
  C35      1.0000 0.06690  0.38240  0.60370  Biso   1.000  C
  H32      1.0000 0.03850  0.39270  0.58920  Biso   1.000  H
  C36      1.0000 0.06600  0.34850  0.56340  Biso   1.000  C
  H33      1.0000 0.03690  0.33700  0.52320  Biso   1.000  H
  C37      1.0000 0.10770  0.43760  0.70110  Biso   1.000  C
  C38      1.0000 0.13350  0.47860  0.71990  Biso   1.000  C
  H34      1.0000 0.14990  0.48240  0.70680  Biso   1.000  H
  C39      1.0000 0.13660  0.51580  0.75840  Biso   1.000  C
  C40      1.0000 0.11100  0.50920  0.77770  Biso   1.000  C
  C41      1.0000 0.08560  0.46820  0.75750  Biso   1.000  C
  H35      1.0000 0.06840  0.46430  0.76930  Biso   1.000  H
  C42      1.0000 0.08310  0.43260  0.72170  Biso   1.000  C
  C43      1.0000 0.06496  0.60189  0.82350  Biso   1.000  C
  H36      1.0000 0.03620  0.61110  0.80900  Biso   1.000  H
  C44      1.0000 0.06630  0.56390  0.79150  Biso   1.000  C
  H37      1.0000 0.03820  0.54830  0.75500  Biso   1.000  H
  C45      1.0000 0.10800  0.54905  0.81260  Biso   1.000  C
  C46      1.0000 0.14860  0.57260  0.86540  Biso   1.000  C
  H38      1.0000 0.17720  0.56340  0.87970  Biso   1.000  H
  C47      1.0000 0.14790  0.61073  0.89870  Biso   1.000  C
  H39      1.0000 0.17620  0.62560  0.93610  Biso   1.000  H
  C48      1.0000 0.10599  0.62600  0.87660  Biso   1.000  C
  C49      1.0000 0.10429  0.67124  0.90660  Biso   1.000  C
  C50      1.0000 0.06030  0.36890  0.76080  Biso   1.000  C
  H40      1.0000 0.03020  0.35750  0.74380  Biso   1.000  H
  H41      1.0000 0.07380  0.39240  0.79680  Biso   1.000  H
  C51      1.0000 0.19100  0.56060  0.75950  Biso   1.000  C
  H42      1.0000 0.17750  0.54290  0.71860  Biso   1.000  H
  H43      1.0000 0.19500  0.59410  0.75340  Biso   1.000  H
  C52      1.0000 0.23170  0.54260  0.81040  Biso   1.000  C
  H44      1.0000 0.25050  0.53690  0.79970  Biso   1.000  H
  H45      1.0000 0.22870  0.51260  0.82580  Biso   1.000  H
  C53      1.0000 0.24830  0.25690  0.63400  Biso   1.000  C
  H46      1.0000 0.23240  0.26920  0.64540  Biso   1.000  H
  C54      1.0000 0.29840  0.25550  0.68620  Biso   1.000  C
  H47      1.0000 0.31290  0.26560  0.72960  Biso   1.000  H
  C55      1.0000 0.32388  0.24207  0.67810  Biso   1.000  C
  C56      1.0000 0.29910  0.22770  0.61570  Biso   1.000  C
  H48      1.0000 0.31450  0.21580  0.60320  Biso   1.000  H
  C57      1.0000 0.25030  0.23020  0.56840  Biso   1.000  C
  H49      1.0000 0.23450  0.22050  0.52430  Biso   1.000  H
  C58      1.0000 0.45141  0.21870  0.77220  Biso   1.000  C
  H50      1.0000 0.46830  0.20290  0.76440  Biso   1.000  H
  C59      1.0000 0.40287  0.21670  0.72260  Biso   1.000  C
  H51      1.0000 0.38740  0.19910  0.68280  Biso   1.000  H
  C60      1.0000 0.37711  0.24103  0.73240  Biso   1.000  C
  C61      1.0000 0.40178  0.26490  0.79260  Biso   1.000  C
  H52      1.0000 0.38560  0.28120  0.80130  Biso   1.000  H
  C62      1.0000 0.45050  0.26470  0.84020  Biso   1.000  C
  H53      1.0000 0.46650  0.28130  0.88090  Biso   1.000  H
  N1       1.0000 0.22494  0.24394  0.57780  Biso   1.000  N
  N2       1.0000 0.47598  0.24239  0.83160  Biso   1.000  N
  O1       1.0000 0.13874  0.20796  0.42967  Biso   1.000  O
  O2       1.0000 0.06052  0.21577  0.35016  Biso   1.000  O
  O3       1.0000 0.13356  0.81080  0.02718  Biso   1.000  O
  O4       1.0000 0.05561  0.81185  0.94592  Biso   1.000  O
  O5       1.0000 0.14670  0.10540  0.20840  Biso   1.000  O
  O6       1.0000 0.01700  0.95510  0.09930  Biso   1.000  O
  O7       1.0000 0.14444  0.28908  0.55769  Biso   1.000  O
  O8       1.0000 0.06575  0.28742  0.48310  Biso   1.000  O
  O9       1.0000 0.14268  0.69190  0.95328  Biso   1.000  O
  O10      1.0000 0.06403  0.68473  0.88081  Biso   1.000  O
  O11      1.0000 0.05410  0.39110  0.70240  Biso   1.000  O
  O12      1.0000 0.15710  0.55850  0.76870  Biso   1.000  O
  Zn1      1.0000 0.15250  0.24717  0.50501  Biso   1.000  Zn
  Zn2      1.0000 0.04813  0.25265  0.40171  Biso   1.000  Zn
  C63      1.0000 0.59870  0.69864  0.37220  Biso   1.000  C
  C64      1.0000 0.59674  0.66619  0.32630  Biso   1.000  C
  C65      1.0000 0.55349  0.65604  0.26020  Biso   1.000  C
  H54      1.0000 0.52580  0.67050  0.24420  Biso   1.000  H
  C66      1.0000 0.55150  0.62513  0.21900  Biso   1.000  C
  H55      1.0000 0.52260  0.62020  0.17440  Biso   1.000  H
  C67      1.0000 0.59250  0.60040  0.24290  Biso   1.000  C
  C68      1.0000 0.63590  0.61280  0.30830  Biso   1.000  C
  H56      1.0000 0.66390  0.59960  0.32400  Biso   1.000  H
  C69      1.0000 0.63770  0.64430  0.34990  Biso   1.000  C
  H57      1.0000 0.66660  0.65070  0.39390  Biso   1.000  H
  C70      1.0000 0.59100  0.56550  0.19930  Biso   1.000  C
  C71      1.0000 0.55450  0.52930  0.16840  Biso   1.000  C
  H58      1.0000 0.53330  0.53020  0.17360  Biso   1.000  H
  C72      1.0000 0.55180  0.49200  0.12960  Biso   1.000  C
  C73      1.0000 0.59020  0.49120  0.13090  Biso   1.000  C
  C74      1.0000 0.60800  0.53160  0.13970  Biso   1.000  C
  H59      1.0000 0.61890  0.53820  0.11890  Biso   1.000  H
  C75      1.0000 0.61230  0.56920  0.18230  Biso   1.000  C
  C76      1.0000 0.63250  0.38870  0.09090  Biso   1.000  C
  H60      1.0000 0.66130  0.37400  0.11210  Biso   1.000  H
  C77      1.0000 0.63210  0.42750  0.12350  Biso   1.000  C
  H61      1.0000 0.66010  0.43690  0.16690  Biso   1.000  H
  C78      1.0000 0.59110  0.45170  0.09210  Biso   1.000  C
  C79      1.0000 0.54920  0.43480  0.02960  Biso   1.000  C
  H62      1.0000 0.52030  0.44960  0.00820  Biso   1.000  H
  C80      1.0000 0.55110  0.39490  0.99910  Biso   1.000  C
  H63      1.0000 0.52320  0.38410  0.95670  Biso   1.000  H
  C81      1.0000 0.59245  0.37162  0.02970  Biso   1.000  C
  C82      1.0000 0.59321  0.32842  0.99640  Biso   1.000  C
  C83      1.0000 0.68780  0.60250  0.21170  Biso   1.000  C
  H64      1.0000 0.70770  0.57430  0.23690  Biso   1.000  H
  H65      1.0000 0.67620  0.60230  0.16660  Biso   1.000  H
  C84      1.0000 0.71330  0.64830  0.24880  Biso   1.000  C
  H66      1.0000 0.69010  0.66810  0.24290  Biso   1.000  H
  H67      1.0000 0.73680  0.63930  0.29660  Biso   1.000  H
  C85      1.0000 0.73590  0.67890  0.24130  Biso   1.000  C
  H68      1.0000 0.76820  0.66680  0.27370  Biso   1.000  H
  H69      1.0000 0.73690  0.70870  0.26130  Biso   1.000  H
  C86      1.0000 0.72980  0.69720  0.18210  Biso   1.000  C
  H70      1.0000 0.69900  0.68670  0.13960  Biso   1.000  H
  H71      1.0000 0.75370  0.68180  0.18560  Biso   1.000  H
  C87      1.0000 0.73350  0.75280  0.17860  Biso   1.000  C
  H72      1.0000 0.72920  0.76050  0.14030  Biso   1.000  H
  H73      1.0000 0.76420  0.76370  0.21980  Biso   1.000  H
  H74      1.0000 0.70930  0.76860  0.17360  Biso   1.000  H
  C88      1.0000 0.47490  0.45940  0.08810  Biso   1.000  C
  H75      1.0000 0.45910  0.49020  0.06660  Biso   1.000  H
  H76      1.0000 0.48340  0.45740  0.13100  Biso   1.000  H
  C89      1.0000 0.44370  0.41900  0.04350  Biso   1.000  C
  H77      1.0000 0.41290  0.43480  0.01140  Biso   1.000  H
  H78      1.0000 0.44290  0.40030  0.07290  Biso   1.000  H
  C90      1.0000 0.43800  0.37670  0.99640  Biso   1.000  C
  H79      1.0000 0.40690  0.37990  0.95050  Biso   1.000  H
  H80      1.0000 0.46140  0.38240  0.99410  Biso   1.000  H
  C91      1.0000 0.44320  0.32770  0.01850  Biso   1.000  C
  H81      1.0000 0.41450  0.30970  0.98240  Biso   1.000  H
  H82      1.0000 0.44720  0.32780  0.05790  Biso   1.000  H
  C92      1.0000 0.60565  0.80085  0.53750  Biso   1.000  C
  C93      1.0000 0.60595  0.83299  0.58210  Biso   1.000  C
  C94      1.0000 0.64870  0.85200  0.64270  Biso   1.000  C
  H83      1.0000 0.67740  0.84330  0.65680  Biso   1.000  H
  C95      1.0000 0.64820  0.88320  0.68110  Biso   1.000  C
  H84      1.0000 0.67720  0.89350  0.72260  Biso   1.000  H
  C96      1.0000 0.60820  0.89990  0.66240  Biso   1.000  C
  C97      1.0000 0.56690  0.88240  0.60370  Biso   1.000  C
  H85      1.0000 0.53850  0.89270  0.58920  Biso   1.000  H
  C98      1.0000 0.56600  0.84850  0.56340  Biso   1.000  C
  H86      1.0000 0.53690  0.83700  0.52320  Biso   1.000  H
  C99      1.0000 0.60770  0.93760  0.70110  Biso   1.000  C
  C100     1.0000 0.63350  0.97860  0.71990  Biso   1.000  C
  H87      1.0000 0.64990  0.98240  0.70680  Biso   1.000  H
  C101     1.0000 0.63660  0.01580  0.75840  Biso   1.000  C
  C102     1.0000 0.61100  0.00920  0.77770  Biso   1.000  C
  C103     1.0000 0.58560  0.96820  0.75750  Biso   1.000  C
  H88      1.0000 0.56840  0.96430  0.76930  Biso   1.000  H
  C104     1.0000 0.58310  0.93260  0.72170  Biso   1.000  C
  C105     1.0000 0.56496  0.10189  0.82350  Biso   1.000  C
  H89      1.0000 0.53620  0.11110  0.80900  Biso   1.000  H
  C106     1.0000 0.56630  0.06390  0.79150  Biso   1.000  C
  H90      1.0000 0.53820  0.04830  0.75500  Biso   1.000  H
  C107     1.0000 0.60800  0.04905  0.81260  Biso   1.000  C
  C108     1.0000 0.64860  0.07260  0.86540  Biso   1.000  C
  H91      1.0000 0.67720  0.06340  0.87970  Biso   1.000  H
  C109     1.0000 0.64790  0.11073  0.89870  Biso   1.000  C
  H92      1.0000 0.67620  0.12560  0.93610  Biso   1.000  H
  C110     1.0000 0.60599  0.12600  0.87660  Biso   1.000  C
  C111     1.0000 0.60429  0.17124  0.90660  Biso   1.000  C
  C112     1.0000 0.56030  0.86890  0.76080  Biso   1.000  C
  H93      1.0000 0.53020  0.85750  0.74380  Biso   1.000  H
  H94      1.0000 0.57380  0.89240  0.79680  Biso   1.000  H
  C113     1.0000 0.69100  0.06060  0.75950  Biso   1.000  C
  H95      1.0000 0.67750  0.04290  0.71860  Biso   1.000  H
  H96      1.0000 0.69500  0.09410  0.75340  Biso   1.000  H
  C114     1.0000 0.73170  0.04260  0.81040  Biso   1.000  C
  H97      1.0000 0.75050  0.03690  0.79970  Biso   1.000  H
  H98      1.0000 0.72870  0.01260  0.82580  Biso   1.000  H
  C115     1.0000 0.74830  0.75690  0.63400  Biso   1.000  C
  H99      1.0000 0.73240  0.76920  0.64540  Biso   1.000  H
  C116     1.0000 0.79840  0.75550  0.68620  Biso   1.000  C
  H100     1.0000 0.81290  0.76560  0.72960  Biso   1.000  H
  C117     1.0000 0.82388  0.74207  0.67810  Biso   1.000  C
  C118     1.0000 0.79910  0.72770  0.61570  Biso   1.000  C
  H101     1.0000 0.81450  0.71580  0.60320  Biso   1.000  H
  C119     1.0000 0.75030  0.73020  0.56840  Biso   1.000  C
  H102     1.0000 0.73450  0.72050  0.52430  Biso   1.000  H
  C120     1.0000 0.95141  0.71870  0.77220  Biso   1.000  C
  H103     1.0000 0.96830  0.70290  0.76440  Biso   1.000  H
  C121     1.0000 0.90287  0.71670  0.72260  Biso   1.000  C
  H104     1.0000 0.88740  0.69910  0.68280  Biso   1.000  H
  C122     1.0000 0.87711  0.74103  0.73240  Biso   1.000  C
  C123     1.0000 0.90178  0.76490  0.79260  Biso   1.000  C
  H105     1.0000 0.88560  0.78120  0.80130  Biso   1.000  H
  C124     1.0000 0.95050  0.76470  0.84020  Biso   1.000  C
  H106     1.0000 0.96650  0.78130  0.88090  Biso   1.000  H
  N3       1.0000 0.72494  0.74394  0.57780  Biso   1.000  N
  N4       1.0000 0.97598  0.74239  0.83160  Biso   1.000  N
  O13      1.0000 0.63874  0.70796  0.42967  Biso   1.000  O
  O14      1.0000 0.56052  0.71577  0.35016  Biso   1.000  O
  O15      1.0000 0.63356  0.31080  0.02718  Biso   1.000  O
  O16      1.0000 0.55561  0.31185  0.94592  Biso   1.000  O
  O17      1.0000 0.64670  0.60540  0.20840  Biso   1.000  O
  O18      1.0000 0.51700  0.45510  0.09930  Biso   1.000  O
  O19      1.0000 0.64444  0.78908  0.55769  Biso   1.000  O
  O20      1.0000 0.56575  0.78742  0.48310  Biso   1.000  O
  O21      1.0000 0.64268  0.19190  0.95328  Biso   1.000  O
  O22      1.0000 0.56403  0.18473  0.88081  Biso   1.000  O
  O23      1.0000 0.55410  0.89110  0.70240  Biso   1.000  O
  O24      1.0000 0.65710  0.05850  0.76870  Biso   1.000  O
  Zn3      1.0000 0.65250  0.74717  0.50501  Biso   1.000  Zn
  Zn4      1.0000 0.54813  0.75265  0.40171  Biso   1.000  Zn
  C125     1.0000 0.09870  0.80136  0.87220  Biso   1.000  C
  C126     1.0000 0.09674  0.83381  0.82630  Biso   1.000  C
  C127     1.0000 0.05349  0.84396  0.76020  Biso   1.000  C
  H107     1.0000 0.02580  0.82950  0.74420  Biso   1.000  H
  C128     1.0000 0.05150  0.87487  0.71900  Biso   1.000  C
  H108     1.0000 0.02260  0.87980  0.67440  Biso   1.000  H
  C129     1.0000 0.09250  0.89960  0.74290  Biso   1.000  C
  C130     1.0000 0.13590  0.88720  0.80830  Biso   1.000  C
  H109     1.0000 0.16390  0.90040  0.82400  Biso   1.000  H
  C131     1.0000 0.13770  0.85570  0.84990  Biso   1.000  C
  H110     1.0000 0.16660  0.84930  0.89390  Biso   1.000  H
  C132     1.0000 0.09100  0.93450  0.69930  Biso   1.000  C
  C133     1.0000 0.05450  0.97070  0.66840  Biso   1.000  C
  H111     1.0000 0.03330  0.96980  0.67360  Biso   1.000  H
  C134     1.0000 0.05180  0.00800  0.62960  Biso   1.000  C
  C135     1.0000 0.09020  0.00880  0.63090  Biso   1.000  C
  C136     1.0000 0.10800  0.96840  0.63970  Biso   1.000  C
  H112     1.0000 0.11890  0.96180  0.61890  Biso   1.000  H
  C137     1.0000 0.11230  0.93080  0.68230  Biso   1.000  C
  C138     1.0000 0.13250  0.11130  0.59090  Biso   1.000  C
  H113     1.0000 0.16130  0.12600  0.61210  Biso   1.000  H
  C139     1.0000 0.13210  0.07250  0.62350  Biso   1.000  C
  H114     1.0000 0.16010  0.06310  0.66690  Biso   1.000  H
  C140     1.0000 0.09110  0.04830  0.59210  Biso   1.000  C
  C141     1.0000 0.04920  0.06520  0.52960  Biso   1.000  C
  H115     1.0000 0.02030  0.05040  0.50820  Biso   1.000  H
  C142     1.0000 0.05110  0.10510  0.49910  Biso   1.000  C
  H116     1.0000 0.02320  0.11590  0.45670  Biso   1.000  H
  C143     1.0000 0.09245  0.12838  0.52970  Biso   1.000  C
  C144     1.0000 0.09321  0.17158  0.49640  Biso   1.000  C
  C145     1.0000 0.18780  0.89750  0.71170  Biso   1.000  C
  H117     1.0000 0.20770  0.92570  0.73690  Biso   1.000  H
  H118     1.0000 0.17620  0.89770  0.66660  Biso   1.000  H
  C146     1.0000 0.21330  0.85170  0.74880  Biso   1.000  C
  H119     1.0000 0.19010  0.83190  0.74290  Biso   1.000  H
  H120     1.0000 0.23680  0.86070  0.79660  Biso   1.000  H
  C147     1.0000 0.23590  0.82110  0.74130  Biso   1.000  C
  H121     1.0000 0.26820  0.83320  0.77370  Biso   1.000  H
  H122     1.0000 0.23690  0.79130  0.76130  Biso   1.000  H
  C148     1.0000 0.22980  0.80280  0.68210  Biso   1.000  C
  H123     1.0000 0.19900  0.81330  0.63960  Biso   1.000  H
  H124     1.0000 0.25370  0.81820  0.68560  Biso   1.000  H
  C149     1.0000 0.23350  0.74720  0.67860  Biso   1.000  C
  H125     1.0000 0.22920  0.73950  0.64030  Biso   1.000  H
  H126     1.0000 0.26420  0.73630  0.71980  Biso   1.000  H
  H127     1.0000 0.20930  0.73140  0.67360  Biso   1.000  H
  C150     1.0000 0.97490  0.04060  0.58810  Biso   1.000  C
  H128     1.0000 0.95910  0.00980  0.56660  Biso   1.000  H
  H129     1.0000 0.98340  0.04260  0.63100  Biso   1.000  H
  C151     1.0000 0.94370  0.08100  0.54350  Biso   1.000  C
  H130     1.0000 0.91290  0.06520  0.51140  Biso   1.000  H
  H131     1.0000 0.94290  0.09970  0.57290  Biso   1.000  H
  C152     1.0000 0.93800  0.12330  0.49640  Biso   1.000  C
  H132     1.0000 0.90690  0.12010  0.45050  Biso   1.000  H
  H133     1.0000 0.96140  0.11760  0.49410  Biso   1.000  H
  C153     1.0000 0.94320  0.17230  0.51850  Biso   1.000  C
  H134     1.0000 0.91450  0.19030  0.48240  Biso   1.000  H
  H135     1.0000 0.94720  0.17220  0.55790  Biso   1.000  H
  C154     1.0000 0.10565  0.69915  0.03750  Biso   1.000  C
  C155     1.0000 0.10595  0.66701  0.08210  Biso   1.000  C
  C156     1.0000 0.14870  0.64800  0.14270  Biso   1.000  C
  H136     1.0000 0.17740  0.65670  0.15680  Biso   1.000  H
  C157     1.0000 0.14820  0.61680  0.18110  Biso   1.000  C
  H137     1.0000 0.17720  0.60650  0.22260  Biso   1.000  H
  C158     1.0000 0.10820  0.60010  0.16240  Biso   1.000  C
  C159     1.0000 0.06690  0.61760  0.10370  Biso   1.000  C
  H138     1.0000 0.03850  0.60730  0.08920  Biso   1.000  H
  C160     1.0000 0.06600  0.65150  0.06340  Biso   1.000  C
  H139     1.0000 0.03690  0.66300  0.02320  Biso   1.000  H
  C161     1.0000 0.10770  0.56240  0.20110  Biso   1.000  C
  C162     1.0000 0.13350  0.52140  0.21990  Biso   1.000  C
  H140     1.0000 0.14990  0.51760  0.20680  Biso   1.000  H
  C163     1.0000 0.13660  0.48420  0.25840  Biso   1.000  C
  C164     1.0000 0.11100  0.49080  0.27770  Biso   1.000  C
  C165     1.0000 0.08560  0.53180  0.25750  Biso   1.000  C
  H141     1.0000 0.06840  0.53570  0.26930  Biso   1.000  H
  C166     1.0000 0.08310  0.56740  0.22170  Biso   1.000  C
  C167     1.0000 0.06496  0.39811  0.32350  Biso   1.000  C
  H142     1.0000 0.03620  0.38890  0.30900  Biso   1.000  H
  C168     1.0000 0.06630  0.43610  0.29150  Biso   1.000  C
  H143     1.0000 0.03820  0.45170  0.25500  Biso   1.000  H
  C169     1.0000 0.10800  0.45095  0.31260  Biso   1.000  C
  C170     1.0000 0.14860  0.42740  0.36540  Biso   1.000  C
  H144     1.0000 0.17720  0.43660  0.37970  Biso   1.000  H
  C171     1.0000 0.14790  0.38927  0.39870  Biso   1.000  C
  H145     1.0000 0.17620  0.37440  0.43610  Biso   1.000  H
  C172     1.0000 0.10599  0.37400  0.37660  Biso   1.000  C
  C173     1.0000 0.10429  0.32876  0.40660  Biso   1.000  C
  C174     1.0000 0.06030  0.63110  0.26080  Biso   1.000  C
  H146     1.0000 0.03020  0.64250  0.24380  Biso   1.000  H
  H147     1.0000 0.07380  0.60760  0.29680  Biso   1.000  H
  C175     1.0000 0.19100  0.43940  0.25950  Biso   1.000  C
  H148     1.0000 0.17750  0.45710  0.21860  Biso   1.000  H
  H149     1.0000 0.19500  0.40590  0.25340  Biso   1.000  H
  C176     1.0000 0.23170  0.45740  0.31040  Biso   1.000  C
  H150     1.0000 0.25050  0.46310  0.29970  Biso   1.000  H
  H151     1.0000 0.22870  0.48740  0.32580  Biso   1.000  H
  C177     1.0000 0.24830  0.74310  0.13400  Biso   1.000  C
  H152     1.0000 0.23240  0.73080  0.14540  Biso   1.000  H
  C178     1.0000 0.29840  0.74450  0.18620  Biso   1.000  C
  H153     1.0000 0.31290  0.73440  0.22960  Biso   1.000  H
  C179     1.0000 0.32388  0.75793  0.17810  Biso   1.000  C
  C180     1.0000 0.29910  0.77230  0.11570  Biso   1.000  C
  H154     1.0000 0.31450  0.78420  0.10320  Biso   1.000  H
  C181     1.0000 0.25030  0.76980  0.06840  Biso   1.000  C
  H155     1.0000 0.23450  0.77950  0.02430  Biso   1.000  H
  C182     1.0000 0.45141  0.78130  0.27220  Biso   1.000  C
  H156     1.0000 0.46830  0.79710  0.26440  Biso   1.000  H
  C183     1.0000 0.40287  0.78330  0.22260  Biso   1.000  C
  H157     1.0000 0.38740  0.80090  0.18280  Biso   1.000  H
  C184     1.0000 0.37711  0.75897  0.23240  Biso   1.000  C
  C185     1.0000 0.40178  0.73510  0.29260  Biso   1.000  C
  H158     1.0000 0.38560  0.71880  0.30130  Biso   1.000  H
  C186     1.0000 0.45050  0.73530  0.34020  Biso   1.000  C
  H159     1.0000 0.46650  0.71870  0.38090  Biso   1.000  H
  N5       1.0000 0.22494  0.75606  0.07780  Biso   1.000  N
  N6       1.0000 0.47598  0.75761  0.33160  Biso   1.000  N
  O25      1.0000 0.13874  0.79204  0.92967  Biso   1.000  O
  O26      1.0000 0.06052  0.78423  0.85016  Biso   1.000  O
  O27      1.0000 0.13356  0.18920  0.52718  Biso   1.000  O
  O28      1.0000 0.05561  0.18815  0.44592  Biso   1.000  O
  O29      1.0000 0.14670  0.89460  0.70840  Biso   1.000  O
  O30      1.0000 0.01700  0.04490  0.59930  Biso   1.000  O
  O31      1.0000 0.14444  0.71092  0.05769  Biso   1.000  O
  O32      1.0000 0.06575  0.71258  0.98310  Biso   1.000  O
  O33      1.0000 0.14268  0.30810  0.45328  Biso   1.000  O
  O34      1.0000 0.06403  0.31527  0.38081  Biso   1.000  O
  O35      1.0000 0.05410  0.60890  0.20240  Biso   1.000  O
  O36      1.0000 0.15710  0.44150  0.26870  Biso   1.000  O
  Zn5      1.0000 0.15250  0.75283  0.00501  Biso   1.000  Zn
  Zn6      1.0000 0.04813  0.74735  0.90171  Biso   1.000  Zn
  C187     1.0000 0.59870  0.30136  0.87220  Biso   1.000  C
  C188     1.0000 0.59674  0.33381  0.82630  Biso   1.000  C
  C189     1.0000 0.55349  0.34396  0.76020  Biso   1.000  C
  H160     1.0000 0.52580  0.32950  0.74420  Biso   1.000  H
  C190     1.0000 0.55150  0.37487  0.71900  Biso   1.000  C
  H161     1.0000 0.52260  0.37980  0.67440  Biso   1.000  H
  C191     1.0000 0.59250  0.39960  0.74290  Biso   1.000  C
  C192     1.0000 0.63590  0.38720  0.80830  Biso   1.000  C
  H162     1.0000 0.66390  0.40040  0.82400  Biso   1.000  H
  C193     1.0000 0.63770  0.35570  0.84990  Biso   1.000  C
  H163     1.0000 0.66660  0.34930  0.89390  Biso   1.000  H
  C194     1.0000 0.59100  0.43450  0.69930  Biso   1.000  C
  C195     1.0000 0.55450  0.47070  0.66840  Biso   1.000  C
  H164     1.0000 0.53330  0.46980  0.67360  Biso   1.000  H
  C196     1.0000 0.55180  0.50800  0.62960  Biso   1.000  C
  C197     1.0000 0.59020  0.50880  0.63090  Biso   1.000  C
  C198     1.0000 0.60800  0.46840  0.63970  Biso   1.000  C
  H165     1.0000 0.61890  0.46180  0.61890  Biso   1.000  H
  C199     1.0000 0.61230  0.43080  0.68230  Biso   1.000  C
  C200     1.0000 0.63250  0.61130  0.59090  Biso   1.000  C
  H166     1.0000 0.66130  0.62600  0.61210  Biso   1.000  H
  C201     1.0000 0.63210  0.57250  0.62350  Biso   1.000  C
  H167     1.0000 0.66010  0.56310  0.66690  Biso   1.000  H
  C202     1.0000 0.59110  0.54830  0.59210  Biso   1.000  C
  C203     1.0000 0.54920  0.56520  0.52960  Biso   1.000  C
  H168     1.0000 0.52030  0.55040  0.50820  Biso   1.000  H
  C204     1.0000 0.55110  0.60510  0.49910  Biso   1.000  C
  H169     1.0000 0.52320  0.61590  0.45670  Biso   1.000  H
  C205     1.0000 0.59245  0.62838  0.52970  Biso   1.000  C
  C206     1.0000 0.59321  0.67158  0.49640  Biso   1.000  C
  C207     1.0000 0.68780  0.39750  0.71170  Biso   1.000  C
  H170     1.0000 0.70770  0.42570  0.73690  Biso   1.000  H
  H171     1.0000 0.67620  0.39770  0.66660  Biso   1.000  H
  C208     1.0000 0.71330  0.35170  0.74880  Biso   1.000  C
  H172     1.0000 0.69010  0.33190  0.74290  Biso   1.000  H
  H173     1.0000 0.73680  0.36070  0.79660  Biso   1.000  H
  C209     1.0000 0.73590  0.32110  0.74130  Biso   1.000  C
  H174     1.0000 0.76820  0.33320  0.77370  Biso   1.000  H
  H175     1.0000 0.73690  0.29130  0.76130  Biso   1.000  H
  C210     1.0000 0.72980  0.30280  0.68210  Biso   1.000  C
  H176     1.0000 0.69900  0.31330  0.63960  Biso   1.000  H
  H177     1.0000 0.75370  0.31820  0.68560  Biso   1.000  H
  C211     1.0000 0.73350  0.24720  0.67860  Biso   1.000  C
  H178     1.0000 0.72920  0.23950  0.64030  Biso   1.000  H
  H179     1.0000 0.76420  0.23630  0.71980  Biso   1.000  H
  H180     1.0000 0.70930  0.23140  0.67360  Biso   1.000  H
  C212     1.0000 0.47490  0.54060  0.58810  Biso   1.000  C
  H181     1.0000 0.45910  0.50980  0.56660  Biso   1.000  H
  H182     1.0000 0.48340  0.54260  0.63100  Biso   1.000  H
  C213     1.0000 0.44370  0.58100  0.54350  Biso   1.000  C
  H183     1.0000 0.41290  0.56520  0.51140  Biso   1.000  H
  H184     1.0000 0.44290  0.59970  0.57290  Biso   1.000  H
  C214     1.0000 0.43800  0.62330  0.49640  Biso   1.000  C
  H185     1.0000 0.40690  0.62010  0.45050  Biso   1.000  H
  H186     1.0000 0.46140  0.61760  0.49410  Biso   1.000  H
  C215     1.0000 0.44320  0.67230  0.51850  Biso   1.000  C
  H187     1.0000 0.41450  0.69030  0.48240  Biso   1.000  H
  H188     1.0000 0.44720  0.67220  0.55790  Biso   1.000  H
  C216     1.0000 0.60565  0.19915  0.03750  Biso   1.000  C
  C217     1.0000 0.60595  0.16701  0.08210  Biso   1.000  C
  C218     1.0000 0.64870  0.14800  0.14270  Biso   1.000  C
  H189     1.0000 0.67740  0.15670  0.15680  Biso   1.000  H
  C219     1.0000 0.64820  0.11680  0.18110  Biso   1.000  C
  H190     1.0000 0.67720  0.10650  0.22260  Biso   1.000  H
  C220     1.0000 0.60820  0.10010  0.16240  Biso   1.000  C
  C221     1.0000 0.56690  0.11760  0.10370  Biso   1.000  C
  H191     1.0000 0.53850  0.10730  0.08920  Biso   1.000  H
  C222     1.0000 0.56600  0.15150  0.06340  Biso   1.000  C
  H192     1.0000 0.53690  0.16300  0.02320  Biso   1.000  H
  C223     1.0000 0.60770  0.06240  0.20110  Biso   1.000  C
  C224     1.0000 0.63350  0.02140  0.21990  Biso   1.000  C
  H193     1.0000 0.64990  0.01760  0.20680  Biso   1.000  H
  C225     1.0000 0.63660  0.98420  0.25840  Biso   1.000  C
  C226     1.0000 0.61100  0.99080  0.27770  Biso   1.000  C
  C227     1.0000 0.58560  0.03180  0.25750  Biso   1.000  C
  H194     1.0000 0.56840  0.03570  0.26930  Biso   1.000  H
  C228     1.0000 0.58310  0.06740  0.22170  Biso   1.000  C
  C229     1.0000 0.56496  0.89811  0.32350  Biso   1.000  C
  H195     1.0000 0.53620  0.88890  0.30900  Biso   1.000  H
  C230     1.0000 0.56630  0.93610  0.29150  Biso   1.000  C
  H196     1.0000 0.53820  0.95170  0.25500  Biso   1.000  H
  C231     1.0000 0.60800  0.95095  0.31260  Biso   1.000  C
  C232     1.0000 0.64860  0.92740  0.36540  Biso   1.000  C
  H197     1.0000 0.67720  0.93660  0.37970  Biso   1.000  H
  C233     1.0000 0.64790  0.88927  0.39870  Biso   1.000  C
  H198     1.0000 0.67620  0.87440  0.43610  Biso   1.000  H
  C234     1.0000 0.60599  0.87400  0.37660  Biso   1.000  C
  C235     1.0000 0.60429  0.82876  0.40660  Biso   1.000  C
  C236     1.0000 0.56030  0.13110  0.26080  Biso   1.000  C
  H199     1.0000 0.53020  0.14250  0.24380  Biso   1.000  H
  H200     1.0000 0.57380  0.10760  0.29680  Biso   1.000  H
  C237     1.0000 0.69100  0.93940  0.25950  Biso   1.000  C
  H201     1.0000 0.67750  0.95710  0.21860  Biso   1.000  H
  H202     1.0000 0.69500  0.90590  0.25340  Biso   1.000  H
  C238     1.0000 0.73170  0.95740  0.31040  Biso   1.000  C
  H203     1.0000 0.75050  0.96310  0.29970  Biso   1.000  H
  H204     1.0000 0.72870  0.98740  0.32580  Biso   1.000  H
  C239     1.0000 0.74830  0.24310  0.13400  Biso   1.000  C
  H205     1.0000 0.73240  0.23080  0.14540  Biso   1.000  H
  C240     1.0000 0.79840  0.24450  0.18620  Biso   1.000  C
  H206     1.0000 0.81290  0.23440  0.22960  Biso   1.000  H
  C241     1.0000 0.82388  0.25793  0.17810  Biso   1.000  C
  C242     1.0000 0.79910  0.27230  0.11570  Biso   1.000  C
  H207     1.0000 0.81450  0.28420  0.10320  Biso   1.000  H
  C243     1.0000 0.75030  0.26980  0.06840  Biso   1.000  C
  H208     1.0000 0.73450  0.27950  0.02430  Biso   1.000  H
  C244     1.0000 0.95141  0.28130  0.27220  Biso   1.000  C
  H209     1.0000 0.96830  0.29710  0.26440  Biso   1.000  H
  C245     1.0000 0.90287  0.28330  0.22260  Biso   1.000  C
  H210     1.0000 0.88740  0.30090  0.18280  Biso   1.000  H
  C246     1.0000 0.87711  0.25897  0.23240  Biso   1.000  C
  C247     1.0000 0.90178  0.23510  0.29260  Biso   1.000  C
  H211     1.0000 0.88560  0.21880  0.30130  Biso   1.000  H
  C248     1.0000 0.95050  0.23530  0.34020  Biso   1.000  C
  H212     1.0000 0.96650  0.21870  0.38090  Biso   1.000  H
  N7       1.0000 0.72494  0.25606  0.07780  Biso   1.000  N
  N8       1.0000 0.97598  0.25761  0.33160  Biso   1.000  N
  O37      1.0000 0.63874  0.29204  0.92967  Biso   1.000  O
  O38      1.0000 0.56052  0.28423  0.85016  Biso   1.000  O
  O39      1.0000 0.63356  0.68920  0.52718  Biso   1.000  O
  O40      1.0000 0.55561  0.68815  0.44592  Biso   1.000  O
  O41      1.0000 0.64670  0.39460  0.70840  Biso   1.000  O
  O42      1.0000 0.51700  0.54490  0.59930  Biso   1.000  O
  O43      1.0000 0.64444  0.21092  0.05769  Biso   1.000  O
  O44      1.0000 0.56575  0.21258  0.98310  Biso   1.000  O
  O45      1.0000 0.64268  0.80810  0.45328  Biso   1.000  O
  O46      1.0000 0.56403  0.81527  0.38081  Biso   1.000  O
  O47      1.0000 0.55410  0.10890  0.20240  Biso   1.000  O
  O48      1.0000 0.65710  0.94150  0.26870  Biso   1.000  O
  Zn7      1.0000 0.65250  0.25283  0.00501  Biso   1.000  Zn
  Zn8      1.0000 0.54813  0.24735  0.90171  Biso   1.000  Zn
  C249     1.0000 0.90130  0.19864  0.12780  Biso   1.000  C
  C250     1.0000 0.90326  0.16619  0.17370  Biso   1.000  C
  C251     1.0000 0.94651  0.15604  0.23980  Biso   1.000  C
  H213     1.0000 0.97420  0.17050  0.25580  Biso   1.000  H
  C252     1.0000 0.94850  0.12513  0.28100  Biso   1.000  C
  H214     1.0000 0.97740  0.12020  0.32560  Biso   1.000  H
  C253     1.0000 0.90750  0.10040  0.25710  Biso   1.000  C
  C254     1.0000 0.86410  0.11280  0.19170  Biso   1.000  C
  H215     1.0000 0.83610  0.09960  0.17600  Biso   1.000  H
  C255     1.0000 0.86230  0.14430  0.15010  Biso   1.000  C
  H216     1.0000 0.83340  0.15070  0.10610  Biso   1.000  H
  C256     1.0000 0.90900  0.06550  0.30070  Biso   1.000  C
  C257     1.0000 0.94550  0.02930  0.33160  Biso   1.000  C
  H217     1.0000 0.96670  0.03020  0.32640  Biso   1.000  H
  C258     1.0000 0.94820  0.99200  0.37040  Biso   1.000  C
  C259     1.0000 0.90980  0.99120  0.36910  Biso   1.000  C
  C260     1.0000 0.89200  0.03160  0.36030  Biso   1.000  C
  H218     1.0000 0.88110  0.03820  0.38110  Biso   1.000  H
  C261     1.0000 0.88770  0.06920  0.31770  Biso   1.000  C
  C262     1.0000 0.86750  0.88870  0.40910  Biso   1.000  C
  H219     1.0000 0.83870  0.87400  0.38790  Biso   1.000  H
  C263     1.0000 0.86790  0.92750  0.37650  Biso   1.000  C
  H220     1.0000 0.83990  0.93690  0.33310  Biso   1.000  H
  C264     1.0000 0.90890  0.95170  0.40790  Biso   1.000  C
  C265     1.0000 0.95080  0.93480  0.47040  Biso   1.000  C
  H221     1.0000 0.97970  0.94960  0.49180  Biso   1.000  H
  C266     1.0000 0.94890  0.89490  0.50090  Biso   1.000  C
  H222     1.0000 0.97680  0.88410  0.54330  Biso   1.000  H
  C267     1.0000 0.90755  0.87162  0.47030  Biso   1.000  C
  C268     1.0000 0.90679  0.82842  0.50360  Biso   1.000  C
  C269     1.0000 0.81220  0.10250  0.28830  Biso   1.000  C
  H223     1.0000 0.79230  0.07430  0.26310  Biso   1.000  H
  H224     1.0000 0.82380  0.10230  0.33340  Biso   1.000  H
  C270     1.0000 0.78670  0.14830  0.25120  Biso   1.000  C
  H225     1.0000 0.80990  0.16810  0.25710  Biso   1.000  H
  H226     1.0000 0.76320  0.13930  0.20340  Biso   1.000  H
  C271     1.0000 0.76410  0.17890  0.25870  Biso   1.000  C
  H227     1.0000 0.73180  0.16680  0.22630  Biso   1.000  H
  H228     1.0000 0.76310  0.20870  0.23870  Biso   1.000  H
  C272     1.0000 0.77020  0.19720  0.31790  Biso   1.000  C
  H229     1.0000 0.80100  0.18670  0.36040  Biso   1.000  H
  H230     1.0000 0.74630  0.18180  0.31440  Biso   1.000  H
  C273     1.0000 0.76650  0.25280  0.32140  Biso   1.000  C
  H231     1.0000 0.77080  0.26050  0.35970  Biso   1.000  H
  H232     1.0000 0.73580  0.26370  0.28020  Biso   1.000  H
  H233     1.0000 0.79070  0.26860  0.32640  Biso   1.000  H
  C274     1.0000 0.02510  0.95940  0.41190  Biso   1.000  C
  H234     1.0000 0.04090  0.99020  0.43340  Biso   1.000  H
  H235     1.0000 0.01660  0.95740  0.36900  Biso   1.000  H
  C275     1.0000 0.05630  0.91900  0.45650  Biso   1.000  C
  H236     1.0000 0.08710  0.93480  0.48860  Biso   1.000  H
  H237     1.0000 0.05710  0.90030  0.42710  Biso   1.000  H
  C276     1.0000 0.06200  0.87670  0.50360  Biso   1.000  C
  H238     1.0000 0.09310  0.87990  0.54950  Biso   1.000  H
  H239     1.0000 0.03860  0.88240  0.50590  Biso   1.000  H
  C277     1.0000 0.05680  0.82770  0.48150  Biso   1.000  C
  H240     1.0000 0.08550  0.80970  0.51760  Biso   1.000  H
  H241     1.0000 0.05280  0.82780  0.44210  Biso   1.000  H
  C278     1.0000 0.89435  0.30085  0.96250  Biso   1.000  C
  C279     1.0000 0.89405  0.33299  0.91790  Biso   1.000  C
  C280     1.0000 0.85130  0.35200  0.85730  Biso   1.000  C
  H242     1.0000 0.82260  0.34330  0.84320  Biso   1.000  H
  C281     1.0000 0.85180  0.38320  0.81890  Biso   1.000  C
  H243     1.0000 0.82280  0.39350  0.77740  Biso   1.000  H
  C282     1.0000 0.89180  0.39990  0.83760  Biso   1.000  C
  C283     1.0000 0.93310  0.38240  0.89630  Biso   1.000  C
  H244     1.0000 0.96150  0.39270  0.91080  Biso   1.000  H
  C284     1.0000 0.93400  0.34850  0.93660  Biso   1.000  C
  H245     1.0000 0.96310  0.33700  0.97680  Biso   1.000  H
  C285     1.0000 0.89230  0.43760  0.79890  Biso   1.000  C
  C286     1.0000 0.86650  0.47860  0.78010  Biso   1.000  C
  H246     1.0000 0.85010  0.48240  0.79320  Biso   1.000  H
  C287     1.0000 0.86340  0.51580  0.74160  Biso   1.000  C
  C288     1.0000 0.88900  0.50920  0.72230  Biso   1.000  C
  C289     1.0000 0.91440  0.46820  0.74250  Biso   1.000  C
  H247     1.0000 0.93160  0.46430  0.73070  Biso   1.000  H
  C290     1.0000 0.91690  0.43260  0.77830  Biso   1.000  C
  C291     1.0000 0.93504  0.60189  0.67650  Biso   1.000  C
  H248     1.0000 0.96380  0.61110  0.69100  Biso   1.000  H
  C292     1.0000 0.93370  0.56390  0.70850  Biso   1.000  C
  H249     1.0000 0.96180  0.54830  0.74500  Biso   1.000  H
  C293     1.0000 0.89200  0.54905  0.68740  Biso   1.000  C
  C294     1.0000 0.85140  0.57260  0.63460  Biso   1.000  C
  H250     1.0000 0.82280  0.56340  0.62030  Biso   1.000  H
  C295     1.0000 0.85210  0.61073  0.60130  Biso   1.000  C
  H251     1.0000 0.82380  0.62560  0.56390  Biso   1.000  H
  C296     1.0000 0.89401  0.62600  0.62340  Biso   1.000  C
  C297     1.0000 0.89571  0.67124  0.59340  Biso   1.000  C
  C298     1.0000 0.93970  0.36890  0.73920  Biso   1.000  C
  H252     1.0000 0.96980  0.35750  0.75620  Biso   1.000  H
  H253     1.0000 0.92620  0.39240  0.70320  Biso   1.000  H
  C299     1.0000 0.80900  0.56060  0.74050  Biso   1.000  C
  H254     1.0000 0.82250  0.54290  0.78140  Biso   1.000  H
  H255     1.0000 0.80500  0.59410  0.74660  Biso   1.000  H
  C300     1.0000 0.76830  0.54260  0.68960  Biso   1.000  C
  H256     1.0000 0.74950  0.53690  0.70030  Biso   1.000  H
  H257     1.0000 0.77130  0.51260  0.67420  Biso   1.000  H
  C301     1.0000 0.75170  0.25690  0.86600  Biso   1.000  C
  H258     1.0000 0.76760  0.26920  0.85460  Biso   1.000  H
  C302     1.0000 0.70160  0.25550  0.81380  Biso   1.000  C
  H259     1.0000 0.68710  0.26560  0.77040  Biso   1.000  H
  C303     1.0000 0.67612  0.24207  0.82190  Biso   1.000  C
  C304     1.0000 0.70090  0.22770  0.88430  Biso   1.000  C
  H260     1.0000 0.68550  0.21580  0.89680  Biso   1.000  H
  C305     1.0000 0.74970  0.23020  0.93160  Biso   1.000  C
  H261     1.0000 0.76550  0.22050  0.97570  Biso   1.000  H
  C306     1.0000 0.54859  0.21870  0.72780  Biso   1.000  C
  H262     1.0000 0.53170  0.20290  0.73560  Biso   1.000  H
  C307     1.0000 0.59713  0.21670  0.77740  Biso   1.000  C
  H263     1.0000 0.61260  0.19910  0.81720  Biso   1.000  H
  C308     1.0000 0.62289  0.24103  0.76760  Biso   1.000  C
  C309     1.0000 0.59822  0.26490  0.70740  Biso   1.000  C
  H264     1.0000 0.61440  0.28120  0.69870  Biso   1.000  H
  C310     1.0000 0.54950  0.26470  0.65980  Biso   1.000  C
  H265     1.0000 0.53350  0.28130  0.61910  Biso   1.000  H
  N9       1.0000 0.77506  0.24394  0.92220  Biso   1.000  N
  N10      1.0000 0.52402  0.24239  0.66840  Biso   1.000  N
  O49      1.0000 0.86126  0.20796  0.07033  Biso   1.000  O
  O50      1.0000 0.93948  0.21577  0.14984  Biso   1.000  O
  O51      1.0000 0.86644  0.81080  0.47282  Biso   1.000  O
  O52      1.0000 0.94439  0.81185  0.55408  Biso   1.000  O
  O53      1.0000 0.85330  0.10540  0.29160  Biso   1.000  O
  O54      1.0000 0.98300  0.95510  0.40070  Biso   1.000  O
  O55      1.0000 0.85556  0.28908  0.94231  Biso   1.000  O
  O56      1.0000 0.93425  0.28742  0.01690  Biso   1.000  O
  O57      1.0000 0.85732  0.69190  0.54672  Biso   1.000  O
  O58      1.0000 0.93597  0.68473  0.61919  Biso   1.000  O
  O59      1.0000 0.94590  0.39110  0.79760  Biso   1.000  O
  O60      1.0000 0.84290  0.55850  0.73130  Biso   1.000  O
  Zn9      1.0000 0.84750  0.24717  0.99499  Biso   1.000  Zn
  Zn10     1.0000 0.95187  0.25265  0.09829  Biso   1.000  Zn
  C311     1.0000 0.40130  0.69864  0.12780  Biso   1.000  C
  C312     1.0000 0.40326  0.66619  0.17370  Biso   1.000  C
  C313     1.0000 0.44651  0.65604  0.23980  Biso   1.000  C
  H266     1.0000 0.47420  0.67050  0.25580  Biso   1.000  H
  C314     1.0000 0.44850  0.62513  0.28100  Biso   1.000  C
  H267     1.0000 0.47740  0.62020  0.32560  Biso   1.000  H
  C315     1.0000 0.40750  0.60040  0.25710  Biso   1.000  C
  C316     1.0000 0.36410  0.61280  0.19170  Biso   1.000  C
  H268     1.0000 0.33610  0.59960  0.17600  Biso   1.000  H
  C317     1.0000 0.36230  0.64430  0.15010  Biso   1.000  C
  H269     1.0000 0.33340  0.65070  0.10610  Biso   1.000  H
  C318     1.0000 0.40900  0.56550  0.30070  Biso   1.000  C
  C319     1.0000 0.44550  0.52930  0.33160  Biso   1.000  C
  H270     1.0000 0.46670  0.53020  0.32640  Biso   1.000  H
  C320     1.0000 0.44820  0.49200  0.37040  Biso   1.000  C
  C321     1.0000 0.40980  0.49120  0.36910  Biso   1.000  C
  C322     1.0000 0.39200  0.53160  0.36030  Biso   1.000  C
  H271     1.0000 0.38110  0.53820  0.38110  Biso   1.000  H
  C323     1.0000 0.38770  0.56920  0.31770  Biso   1.000  C
  C324     1.0000 0.36750  0.38870  0.40910  Biso   1.000  C
  H272     1.0000 0.33870  0.37400  0.38790  Biso   1.000  H
  C325     1.0000 0.36790  0.42750  0.37650  Biso   1.000  C
  H273     1.0000 0.33990  0.43690  0.33310  Biso   1.000  H
  C326     1.0000 0.40890  0.45170  0.40790  Biso   1.000  C
  C327     1.0000 0.45080  0.43480  0.47040  Biso   1.000  C
  H274     1.0000 0.47970  0.44960  0.49180  Biso   1.000  H
  C328     1.0000 0.44890  0.39490  0.50090  Biso   1.000  C
  H275     1.0000 0.47680  0.38410  0.54330  Biso   1.000  H
  C329     1.0000 0.40755  0.37162  0.47030  Biso   1.000  C
  C330     1.0000 0.40679  0.32842  0.50360  Biso   1.000  C
  C331     1.0000 0.31220  0.60250  0.28830  Biso   1.000  C
  H276     1.0000 0.29230  0.57430  0.26310  Biso   1.000  H
  H277     1.0000 0.32380  0.60230  0.33340  Biso   1.000  H
  C332     1.0000 0.28670  0.64830  0.25120  Biso   1.000  C
  H278     1.0000 0.30990  0.66810  0.25710  Biso   1.000  H
  H279     1.0000 0.26320  0.63930  0.20340  Biso   1.000  H
  C333     1.0000 0.26410  0.67890  0.25870  Biso   1.000  C
  H280     1.0000 0.23180  0.66680  0.22630  Biso   1.000  H
  H281     1.0000 0.26310  0.70870  0.23870  Biso   1.000  H
  C334     1.0000 0.27020  0.69720  0.31790  Biso   1.000  C
  H282     1.0000 0.30100  0.68670  0.36040  Biso   1.000  H
  H283     1.0000 0.24630  0.68180  0.31440  Biso   1.000  H
  C335     1.0000 0.26650  0.75280  0.32140  Biso   1.000  C
  H284     1.0000 0.27080  0.76050  0.35970  Biso   1.000  H
  H285     1.0000 0.23580  0.76370  0.28020  Biso   1.000  H
  H286     1.0000 0.29070  0.76860  0.32640  Biso   1.000  H
  C336     1.0000 0.52510  0.45940  0.41190  Biso   1.000  C
  H287     1.0000 0.54090  0.49020  0.43340  Biso   1.000  H
  H288     1.0000 0.51660  0.45740  0.36900  Biso   1.000  H
  C337     1.0000 0.55630  0.41900  0.45650  Biso   1.000  C
  H289     1.0000 0.58710  0.43480  0.48860  Biso   1.000  H
  H290     1.0000 0.55710  0.40030  0.42710  Biso   1.000  H
  C338     1.0000 0.56200  0.37670  0.50360  Biso   1.000  C
  H291     1.0000 0.59310  0.37990  0.54950  Biso   1.000  H
  H292     1.0000 0.53860  0.38240  0.50590  Biso   1.000  H
  C339     1.0000 0.55680  0.32770  0.48150  Biso   1.000  C
  H293     1.0000 0.58550  0.30970  0.51760  Biso   1.000  H
  H294     1.0000 0.55280  0.32780  0.44210  Biso   1.000  H
  C340     1.0000 0.39435  0.80085  0.96250  Biso   1.000  C
  C341     1.0000 0.39405  0.83299  0.91790  Biso   1.000  C
  C342     1.0000 0.35130  0.85200  0.85730  Biso   1.000  C
  H295     1.0000 0.32260  0.84330  0.84320  Biso   1.000  H
  C343     1.0000 0.35180  0.88320  0.81890  Biso   1.000  C
  H296     1.0000 0.32280  0.89350  0.77740  Biso   1.000  H
  C344     1.0000 0.39180  0.89990  0.83760  Biso   1.000  C
  C345     1.0000 0.43310  0.88240  0.89630  Biso   1.000  C
  H297     1.0000 0.46150  0.89270  0.91080  Biso   1.000  H
  C346     1.0000 0.43400  0.84850  0.93660  Biso   1.000  C
  H298     1.0000 0.46310  0.83700  0.97680  Biso   1.000  H
  C347     1.0000 0.39230  0.93760  0.79890  Biso   1.000  C
  C348     1.0000 0.36650  0.97860  0.78010  Biso   1.000  C
  H299     1.0000 0.35010  0.98240  0.79320  Biso   1.000  H
  C349     1.0000 0.36340  0.01580  0.74160  Biso   1.000  C
  C350     1.0000 0.38900  0.00920  0.72230  Biso   1.000  C
  C351     1.0000 0.41440  0.96820  0.74250  Biso   1.000  C
  H300     1.0000 0.43160  0.96430  0.73070  Biso   1.000  H
  C352     1.0000 0.41690  0.93260  0.77830  Biso   1.000  C
  C353     1.0000 0.43504  0.10189  0.67650  Biso   1.000  C
  H301     1.0000 0.46380  0.11110  0.69100  Biso   1.000  H
  C354     1.0000 0.43370  0.06390  0.70850  Biso   1.000  C
  H302     1.0000 0.46180  0.04830  0.74500  Biso   1.000  H
  C355     1.0000 0.39200  0.04905  0.68740  Biso   1.000  C
  C356     1.0000 0.35140  0.07260  0.63460  Biso   1.000  C
  H303     1.0000 0.32280  0.06340  0.62030  Biso   1.000  H
  C357     1.0000 0.35210  0.11073  0.60130  Biso   1.000  C
  H304     1.0000 0.32380  0.12560  0.56390  Biso   1.000  H
  C358     1.0000 0.39401  0.12600  0.62340  Biso   1.000  C
  C359     1.0000 0.39571  0.17124  0.59340  Biso   1.000  C
  C360     1.0000 0.43970  0.86890  0.73920  Biso   1.000  C
  H305     1.0000 0.46980  0.85750  0.75620  Biso   1.000  H
  H306     1.0000 0.42620  0.89240  0.70320  Biso   1.000  H
  C361     1.0000 0.30900  0.06060  0.74050  Biso   1.000  C
  H307     1.0000 0.32250  0.04290  0.78140  Biso   1.000  H
  H308     1.0000 0.30500  0.09410  0.74660  Biso   1.000  H
  C362     1.0000 0.26830  0.04260  0.68960  Biso   1.000  C
  H309     1.0000 0.24950  0.03690  0.70030  Biso   1.000  H
  H310     1.0000 0.27130  0.01260  0.67420  Biso   1.000  H
  C363     1.0000 0.25170  0.75690  0.86600  Biso   1.000  C
  H311     1.0000 0.26760  0.76920  0.85460  Biso   1.000  H
  C364     1.0000 0.20160  0.75550  0.81380  Biso   1.000  C
  H312     1.0000 0.18710  0.76560  0.77040  Biso   1.000  H
  C365     1.0000 0.17612  0.74207  0.82190  Biso   1.000  C
  C366     1.0000 0.20090  0.72770  0.88430  Biso   1.000  C
  H313     1.0000 0.18550  0.71580  0.89680  Biso   1.000  H
  C367     1.0000 0.24970  0.73020  0.93160  Biso   1.000  C
  H314     1.0000 0.26550  0.72050  0.97570  Biso   1.000  H
  C368     1.0000 0.04859  0.71870  0.72780  Biso   1.000  C
  H315     1.0000 0.03170  0.70290  0.73560  Biso   1.000  H
  C369     1.0000 0.09713  0.71670  0.77740  Biso   1.000  C
  H316     1.0000 0.11260  0.69910  0.81720  Biso   1.000  H
  C370     1.0000 0.12289  0.74103  0.76760  Biso   1.000  C
  C371     1.0000 0.09822  0.76490  0.70740  Biso   1.000  C
  H317     1.0000 0.11440  0.78120  0.69870  Biso   1.000  H
  C372     1.0000 0.04950  0.76470  0.65980  Biso   1.000  C
  H318     1.0000 0.03350  0.78130  0.61910  Biso   1.000  H
  N11      1.0000 0.27506  0.74394  0.92220  Biso   1.000  N
  N12      1.0000 0.02402  0.74239  0.66840  Biso   1.000  N
  O61      1.0000 0.36126  0.70796  0.07033  Biso   1.000  O
  O62      1.0000 0.43948  0.71577  0.14984  Biso   1.000  O
  O63      1.0000 0.36644  0.31080  0.47282  Biso   1.000  O
  O64      1.0000 0.44439  0.31185  0.55408  Biso   1.000  O
  O65      1.0000 0.35330  0.60540  0.29160  Biso   1.000  O
  O66      1.0000 0.48300  0.45510  0.40070  Biso   1.000  O
  O67      1.0000 0.35556  0.78908  0.94231  Biso   1.000  O
  O68      1.0000 0.43425  0.78742  0.01690  Biso   1.000  O
  O69      1.0000 0.35732  0.19190  0.54672  Biso   1.000  O
  O70      1.0000 0.43597  0.18473  0.61919  Biso   1.000  O
  O71      1.0000 0.44590  0.89110  0.79760  Biso   1.000  O
  O72      1.0000 0.34290  0.05850  0.73130  Biso   1.000  O
  Zn11     1.0000 0.34750  0.74717  0.99499  Biso   1.000  Zn
  Zn12     1.0000 0.45187  0.75265  0.09829  Biso   1.000  Zn
  C373     1.0000 0.90130  0.80136  0.62780  Biso   1.000  C
  C374     1.0000 0.90326  0.83381  0.67370  Biso   1.000  C
  C375     1.0000 0.94651  0.84396  0.73980  Biso   1.000  C
  H319     1.0000 0.97420  0.82950  0.75580  Biso   1.000  H
  C376     1.0000 0.94850  0.87487  0.78100  Biso   1.000  C
  H320     1.0000 0.97740  0.87980  0.82560  Biso   1.000  H
  C377     1.0000 0.90750  0.89960  0.75710  Biso   1.000  C
  C378     1.0000 0.86410  0.88720  0.69170  Biso   1.000  C
  H321     1.0000 0.83610  0.90040  0.67600  Biso   1.000  H
  C379     1.0000 0.86230  0.85570  0.65010  Biso   1.000  C
  H322     1.0000 0.83340  0.84930  0.60610  Biso   1.000  H
  C380     1.0000 0.90900  0.93450  0.80070  Biso   1.000  C
  C381     1.0000 0.94550  0.97070  0.83160  Biso   1.000  C
  H323     1.0000 0.96670  0.96980  0.82640  Biso   1.000  H
  C382     1.0000 0.94820  0.00800  0.87040  Biso   1.000  C
  C383     1.0000 0.90980  0.00880  0.86910  Biso   1.000  C
  C384     1.0000 0.89200  0.96840  0.86030  Biso   1.000  C
  H324     1.0000 0.88110  0.96180  0.88110  Biso   1.000  H
  C385     1.0000 0.88770  0.93080  0.81770  Biso   1.000  C
  C386     1.0000 0.86750  0.11130  0.90910  Biso   1.000  C
  H325     1.0000 0.83870  0.12600  0.88790  Biso   1.000  H
  C387     1.0000 0.86790  0.07250  0.87650  Biso   1.000  C
  H326     1.0000 0.83990  0.06310  0.83310  Biso   1.000  H
  C388     1.0000 0.90890  0.04830  0.90790  Biso   1.000  C
  C389     1.0000 0.95080  0.06520  0.97040  Biso   1.000  C
  H327     1.0000 0.97970  0.05040  0.99180  Biso   1.000  H
  C390     1.0000 0.94890  0.10510  0.00090  Biso   1.000  C
  H328     1.0000 0.97680  0.11590  0.04330  Biso   1.000  H
  C391     1.0000 0.90755  0.12838  0.97030  Biso   1.000  C
  C392     1.0000 0.90679  0.17158  0.00360  Biso   1.000  C
  C393     1.0000 0.81220  0.89750  0.78830  Biso   1.000  C
  H329     1.0000 0.79230  0.92570  0.76310  Biso   1.000  H
  H330     1.0000 0.82380  0.89770  0.83340  Biso   1.000  H
  C394     1.0000 0.78670  0.85170  0.75120  Biso   1.000  C
  H331     1.0000 0.80990  0.83190  0.75710  Biso   1.000  H
  H332     1.0000 0.76320  0.86070  0.70340  Biso   1.000  H
  C395     1.0000 0.76410  0.82110  0.75870  Biso   1.000  C
  H333     1.0000 0.73180  0.83320  0.72630  Biso   1.000  H
  H334     1.0000 0.76310  0.79130  0.73870  Biso   1.000  H
  C396     1.0000 0.77020  0.80280  0.81790  Biso   1.000  C
  H335     1.0000 0.80100  0.81330  0.86040  Biso   1.000  H
  H336     1.0000 0.74630  0.81820  0.81440  Biso   1.000  H
  C397     1.0000 0.76650  0.74720  0.82140  Biso   1.000  C
  H337     1.0000 0.77080  0.73950  0.85970  Biso   1.000  H
  H338     1.0000 0.73580  0.73630  0.78020  Biso   1.000  H
  H339     1.0000 0.79070  0.73140  0.82640  Biso   1.000  H
  C398     1.0000 0.02510  0.04060  0.91190  Biso   1.000  C
  H340     1.0000 0.04090  0.00980  0.93340  Biso   1.000  H
  H341     1.0000 0.01660  0.04260  0.86900  Biso   1.000  H
  C399     1.0000 0.05630  0.08100  0.95650  Biso   1.000  C
  H342     1.0000 0.08710  0.06520  0.98860  Biso   1.000  H
  H343     1.0000 0.05710  0.09970  0.92710  Biso   1.000  H
  C400     1.0000 0.06200  0.12330  0.00360  Biso   1.000  C
  H344     1.0000 0.09310  0.12010  0.04950  Biso   1.000  H
  H345     1.0000 0.03860  0.11760  0.00590  Biso   1.000  H
  C401     1.0000 0.05680  0.17230  0.98150  Biso   1.000  C
  H346     1.0000 0.08550  0.19030  0.01760  Biso   1.000  H
  H347     1.0000 0.05280  0.17220  0.94210  Biso   1.000  H
  C402     1.0000 0.89435  0.69915  0.46250  Biso   1.000  C
  C403     1.0000 0.89405  0.66701  0.41790  Biso   1.000  C
  C404     1.0000 0.85130  0.64800  0.35730  Biso   1.000  C
  H348     1.0000 0.82260  0.65670  0.34320  Biso   1.000  H
  C405     1.0000 0.85180  0.61680  0.31890  Biso   1.000  C
  H349     1.0000 0.82280  0.60650  0.27740  Biso   1.000  H
  C406     1.0000 0.89180  0.60010  0.33760  Biso   1.000  C
  C407     1.0000 0.93310  0.61760  0.39630  Biso   1.000  C
  H350     1.0000 0.96150  0.60730  0.41080  Biso   1.000  H
  C408     1.0000 0.93400  0.65150  0.43660  Biso   1.000  C
  H351     1.0000 0.96310  0.66300  0.47680  Biso   1.000  H
  C409     1.0000 0.89230  0.56240  0.29890  Biso   1.000  C
  C410     1.0000 0.86650  0.52140  0.28010  Biso   1.000  C
  H352     1.0000 0.85010  0.51760  0.29320  Biso   1.000  H
  C411     1.0000 0.86340  0.48420  0.24160  Biso   1.000  C
  C412     1.0000 0.88900  0.49080  0.22230  Biso   1.000  C
  C413     1.0000 0.91440  0.53180  0.24250  Biso   1.000  C
  H353     1.0000 0.93160  0.53570  0.23070  Biso   1.000  H
  C414     1.0000 0.91690  0.56740  0.27830  Biso   1.000  C
  C415     1.0000 0.93504  0.39811  0.17650  Biso   1.000  C
  H354     1.0000 0.96380  0.38890  0.19100  Biso   1.000  H
  C416     1.0000 0.93370  0.43610  0.20850  Biso   1.000  C
  H355     1.0000 0.96180  0.45170  0.24500  Biso   1.000  H
  C417     1.0000 0.89200  0.45095  0.18740  Biso   1.000  C
  C418     1.0000 0.85140  0.42740  0.13460  Biso   1.000  C
  H356     1.0000 0.82280  0.43660  0.12030  Biso   1.000  H
  C419     1.0000 0.85210  0.38927  0.10130  Biso   1.000  C
  H357     1.0000 0.82380  0.37440  0.06390  Biso   1.000  H
  C420     1.0000 0.89401  0.37400  0.12340  Biso   1.000  C
  C421     1.0000 0.89571  0.32876  0.09340  Biso   1.000  C
  C422     1.0000 0.93970  0.63110  0.23920  Biso   1.000  C
  H358     1.0000 0.96980  0.64250  0.25620  Biso   1.000  H
  H359     1.0000 0.92620  0.60760  0.20320  Biso   1.000  H
  C423     1.0000 0.80900  0.43940  0.24050  Biso   1.000  C
  H360     1.0000 0.82250  0.45710  0.28140  Biso   1.000  H
  H361     1.0000 0.80500  0.40590  0.24660  Biso   1.000  H
  C424     1.0000 0.76830  0.45740  0.18960  Biso   1.000  C
  H362     1.0000 0.74950  0.46310  0.20030  Biso   1.000  H
  H363     1.0000 0.77130  0.48740  0.17420  Biso   1.000  H
  C425     1.0000 0.75170  0.74310  0.36600  Biso   1.000  C
  H364     1.0000 0.76760  0.73080  0.35460  Biso   1.000  H
  C426     1.0000 0.70160  0.74450  0.31380  Biso   1.000  C
  H365     1.0000 0.68710  0.73440  0.27040  Biso   1.000  H
  C427     1.0000 0.67612  0.75793  0.32190  Biso   1.000  C
  C428     1.0000 0.70090  0.77230  0.38430  Biso   1.000  C
  H366     1.0000 0.68550  0.78420  0.39680  Biso   1.000  H
  C429     1.0000 0.74970  0.76980  0.43160  Biso   1.000  C
  H367     1.0000 0.76550  0.77950  0.47570  Biso   1.000  H
  C430     1.0000 0.54859  0.78130  0.22780  Biso   1.000  C
  H368     1.0000 0.53170  0.79710  0.23560  Biso   1.000  H
  C431     1.0000 0.59713  0.78330  0.27740  Biso   1.000  C
  H369     1.0000 0.61260  0.80090  0.31720  Biso   1.000  H
  C432     1.0000 0.62289  0.75897  0.26760  Biso   1.000  C
  C433     1.0000 0.59822  0.73510  0.20740  Biso   1.000  C
  H370     1.0000 0.61440  0.71880  0.19870  Biso   1.000  H
  C434     1.0000 0.54950  0.73530  0.15980  Biso   1.000  C
  H371     1.0000 0.53350  0.71870  0.11910  Biso   1.000  H
  N13      1.0000 0.77506  0.75606  0.42220  Biso   1.000  N
  N14      1.0000 0.52402  0.75761  0.16840  Biso   1.000  N
  O73      1.0000 0.86126  0.79204  0.57033  Biso   1.000  O
  O74      1.0000 0.93948  0.78423  0.64984  Biso   1.000  O
  O75      1.0000 0.86644  0.18920  0.97282  Biso   1.000  O
  O76      1.0000 0.94439  0.18815  0.05408  Biso   1.000  O
  O77      1.0000 0.85330  0.89460  0.79160  Biso   1.000  O
  O78      1.0000 0.98300  0.04490  0.90070  Biso   1.000  O
  O79      1.0000 0.85556  0.71092  0.44231  Biso   1.000  O
  O80      1.0000 0.93425  0.71258  0.51690  Biso   1.000  O
  O81      1.0000 0.85732  0.30810  0.04672  Biso   1.000  O
  O82      1.0000 0.93597  0.31527  0.11919  Biso   1.000  O
  O83      1.0000 0.94590  0.60890  0.29760  Biso   1.000  O
  O84      1.0000 0.84290  0.44150  0.23130  Biso   1.000  O
  Zn13     1.0000 0.84750  0.75283  0.49499  Biso   1.000  Zn
  Zn14     1.0000 0.95187  0.74735  0.59829  Biso   1.000  Zn
  C435     1.0000 0.40130  0.30136  0.62780  Biso   1.000  C
  C436     1.0000 0.40326  0.33381  0.67370  Biso   1.000  C
  C437     1.0000 0.44651  0.34396  0.73980  Biso   1.000  C
  H372     1.0000 0.47420  0.32950  0.75580  Biso   1.000  H
  C438     1.0000 0.44850  0.37487  0.78100  Biso   1.000  C
  H373     1.0000 0.47740  0.37980  0.82560  Biso   1.000  H
  C439     1.0000 0.40750  0.39960  0.75710  Biso   1.000  C
  C440     1.0000 0.36410  0.38720  0.69170  Biso   1.000  C
  H374     1.0000 0.33610  0.40040  0.67600  Biso   1.000  H
  C441     1.0000 0.36230  0.35570  0.65010  Biso   1.000  C
  H375     1.0000 0.33340  0.34930  0.60610  Biso   1.000  H
  C442     1.0000 0.40900  0.43450  0.80070  Biso   1.000  C
  C443     1.0000 0.44550  0.47070  0.83160  Biso   1.000  C
  H376     1.0000 0.46670  0.46980  0.82640  Biso   1.000  H
  C444     1.0000 0.44820  0.50800  0.87040  Biso   1.000  C
  C445     1.0000 0.40980  0.50880  0.86910  Biso   1.000  C
  C446     1.0000 0.39200  0.46840  0.86030  Biso   1.000  C
  H377     1.0000 0.38110  0.46180  0.88110  Biso   1.000  H
  C447     1.0000 0.38770  0.43080  0.81770  Biso   1.000  C
  C448     1.0000 0.36750  0.61130  0.90910  Biso   1.000  C
  H378     1.0000 0.33870  0.62600  0.88790  Biso   1.000  H
  C449     1.0000 0.36790  0.57250  0.87650  Biso   1.000  C
  H379     1.0000 0.33990  0.56310  0.83310  Biso   1.000  H
  C450     1.0000 0.40890  0.54830  0.90790  Biso   1.000  C
  C451     1.0000 0.45080  0.56520  0.97040  Biso   1.000  C
  H380     1.0000 0.47970  0.55040  0.99180  Biso   1.000  H
  C452     1.0000 0.44890  0.60510  0.00090  Biso   1.000  C
  H381     1.0000 0.47680  0.61590  0.04330  Biso   1.000  H
  C453     1.0000 0.40755  0.62838  0.97030  Biso   1.000  C
  C454     1.0000 0.40679  0.67158  0.00360  Biso   1.000  C
  C455     1.0000 0.31220  0.39750  0.78830  Biso   1.000  C
  H382     1.0000 0.29230  0.42570  0.76310  Biso   1.000  H
  H383     1.0000 0.32380  0.39770  0.83340  Biso   1.000  H
  C456     1.0000 0.28670  0.35170  0.75120  Biso   1.000  C
  H384     1.0000 0.30990  0.33190  0.75710  Biso   1.000  H
  H385     1.0000 0.26320  0.36070  0.70340  Biso   1.000  H
  C457     1.0000 0.26410  0.32110  0.75870  Biso   1.000  C
  H386     1.0000 0.23180  0.33320  0.72630  Biso   1.000  H
  H387     1.0000 0.26310  0.29130  0.73870  Biso   1.000  H
  C458     1.0000 0.27020  0.30280  0.81790  Biso   1.000  C
  H388     1.0000 0.30100  0.31330  0.86040  Biso   1.000  H
  H389     1.0000 0.24630  0.31820  0.81440  Biso   1.000  H
  C459     1.0000 0.26650  0.24720  0.82140  Biso   1.000  C
  H390     1.0000 0.27080  0.23950  0.85970  Biso   1.000  H
  H391     1.0000 0.23580  0.23630  0.78020  Biso   1.000  H
  H392     1.0000 0.29070  0.23140  0.82640  Biso   1.000  H
  C460     1.0000 0.52510  0.54060  0.91190  Biso   1.000  C
  H393     1.0000 0.54090  0.50980  0.93340  Biso   1.000  H
  H394     1.0000 0.51660  0.54260  0.86900  Biso   1.000  H
  C461     1.0000 0.55630  0.58100  0.95650  Biso   1.000  C
  H395     1.0000 0.58710  0.56520  0.98860  Biso   1.000  H
  H396     1.0000 0.55710  0.59970  0.92710  Biso   1.000  H
  C462     1.0000 0.56200  0.62330  0.00360  Biso   1.000  C
  H397     1.0000 0.59310  0.62010  0.04950  Biso   1.000  H
  H398     1.0000 0.53860  0.61760  0.00590  Biso   1.000  H
  C463     1.0000 0.55680  0.67230  0.98150  Biso   1.000  C
  H399     1.0000 0.58550  0.69030  0.01760  Biso   1.000  H
  H400     1.0000 0.55280  0.67220  0.94210  Biso   1.000  H
  C464     1.0000 0.39435  0.19915  0.46250  Biso   1.000  C
  C465     1.0000 0.39405  0.16701  0.41790  Biso   1.000  C
  C466     1.0000 0.35130  0.14800  0.35730  Biso   1.000  C
  H401     1.0000 0.32260  0.15670  0.34320  Biso   1.000  H
  C467     1.0000 0.35180  0.11680  0.31890  Biso   1.000  C
  H402     1.0000 0.32280  0.10650  0.27740  Biso   1.000  H
  C468     1.0000 0.39180  0.10010  0.33760  Biso   1.000  C
  C469     1.0000 0.43310  0.11760  0.39630  Biso   1.000  C
  H403     1.0000 0.46150  0.10730  0.41080  Biso   1.000  H
  C470     1.0000 0.43400  0.15150  0.43660  Biso   1.000  C
  H404     1.0000 0.46310  0.16300  0.47680  Biso   1.000  H
  C471     1.0000 0.39230  0.06240  0.29890  Biso   1.000  C
  C472     1.0000 0.36650  0.02140  0.28010  Biso   1.000  C
  H405     1.0000 0.35010  0.01760  0.29320  Biso   1.000  H
  C473     1.0000 0.36340  0.98420  0.24160  Biso   1.000  C
  C474     1.0000 0.38900  0.99080  0.22230  Biso   1.000  C
  C475     1.0000 0.41440  0.03180  0.24250  Biso   1.000  C
  H406     1.0000 0.43160  0.03570  0.23070  Biso   1.000  H
  C476     1.0000 0.41690  0.06740  0.27830  Biso   1.000  C
  C477     1.0000 0.43504  0.89811  0.17650  Biso   1.000  C
  H407     1.0000 0.46380  0.88890  0.19100  Biso   1.000  H
  C478     1.0000 0.43370  0.93610  0.20850  Biso   1.000  C
  H408     1.0000 0.46180  0.95170  0.24500  Biso   1.000  H
  C479     1.0000 0.39200  0.95095  0.18740  Biso   1.000  C
  C480     1.0000 0.35140  0.92740  0.13460  Biso   1.000  C
  H409     1.0000 0.32280  0.93660  0.12030  Biso   1.000  H
  C481     1.0000 0.35210  0.88927  0.10130  Biso   1.000  C
  H410     1.0000 0.32380  0.87440  0.06390  Biso   1.000  H
  C482     1.0000 0.39401  0.87400  0.12340  Biso   1.000  C
  C483     1.0000 0.39571  0.82876  0.09340  Biso   1.000  C
  C484     1.0000 0.43970  0.13110  0.23920  Biso   1.000  C
  H411     1.0000 0.46980  0.14250  0.25620  Biso   1.000  H
  H412     1.0000 0.42620  0.10760  0.20320  Biso   1.000  H
  C485     1.0000 0.30900  0.93940  0.24050  Biso   1.000  C
  H413     1.0000 0.32250  0.95710  0.28140  Biso   1.000  H
  H414     1.0000 0.30500  0.90590  0.24660  Biso   1.000  H
  C486     1.0000 0.26830  0.95740  0.18960  Biso   1.000  C
  H415     1.0000 0.24950  0.96310  0.20030  Biso   1.000  H
  H416     1.0000 0.27130  0.98740  0.17420  Biso   1.000  H
  C487     1.0000 0.25170  0.24310  0.36600  Biso   1.000  C
  H417     1.0000 0.26760  0.23080  0.35460  Biso   1.000  H
  C488     1.0000 0.20160  0.24450  0.31380  Biso   1.000  C
  H418     1.0000 0.18710  0.23440  0.27040  Biso   1.000  H
  C489     1.0000 0.17612  0.25793  0.32190  Biso   1.000  C
  C490     1.0000 0.20090  0.27230  0.38430  Biso   1.000  C
  H419     1.0000 0.18550  0.28420  0.39680  Biso   1.000  H
  C491     1.0000 0.24970  0.26980  0.43160  Biso   1.000  C
  H420     1.0000 0.26550  0.27950  0.47570  Biso   1.000  H
  C492     1.0000 0.04859  0.28130  0.22780  Biso   1.000  C
  H421     1.0000 0.03170  0.29710  0.23560  Biso   1.000  H
  C493     1.0000 0.09713  0.28330  0.27740  Biso   1.000  C
  H422     1.0000 0.11260  0.30090  0.31720  Biso   1.000  H
  C494     1.0000 0.12289  0.25897  0.26760  Biso   1.000  C
  C495     1.0000 0.09822  0.23510  0.20740  Biso   1.000  C
  H423     1.0000 0.11440  0.21880  0.19870  Biso   1.000  H
  C496     1.0000 0.04950  0.23530  0.15980  Biso   1.000  C
  H424     1.0000 0.03350  0.21870  0.11910  Biso   1.000  H
  N15      1.0000 0.27506  0.25606  0.42220  Biso   1.000  N
  N16      1.0000 0.02402  0.25761  0.16840  Biso   1.000  N
  O85      1.0000 0.36126  0.29204  0.57033  Biso   1.000  O
  O86      1.0000 0.43948  0.28423  0.64984  Biso   1.000  O
  O87      1.0000 0.36644  0.68920  0.97282  Biso   1.000  O
  O88      1.0000 0.44439  0.68815  0.05408  Biso   1.000  O
  O89      1.0000 0.35330  0.39460  0.79160  Biso   1.000  O
  O90      1.0000 0.48300  0.54490  0.90070  Biso   1.000  O
  O91      1.0000 0.35556  0.21092  0.44231  Biso   1.000  O
  O92      1.0000 0.43425  0.21258  0.51690  Biso   1.000  O
  O93      1.0000 0.35732  0.80810  0.04672  Biso   1.000  O
  O94      1.0000 0.43597  0.81527  0.11919  Biso   1.000  O
  O95      1.0000 0.44590  0.10890  0.29760  Biso   1.000  O
  O96      1.0000 0.34290  0.94150  0.23130  Biso   1.000  O
  Zn15     1.0000 0.34750  0.25283  0.49499  Biso   1.000  Zn
  Zn16     1.0000 0.45187  0.24735  0.59829  Biso   1.000  Zn
