data_image0
_cell_length_a       28.0682
_cell_length_b       27.1147
_cell_length_c       28.0603
_cell_angle_alpha    90
_cell_angle_beta     98.558
_cell_angle_gamma    90

_symmetry_space_group_name_H-M    "P 1"
_symmetry_int_tables_number       1

loop_
  _symmetry_equiv_pos_as_xyz
  'x, y, z'

loop_
  _atom_site_label
  _atom_site_occupancy
  _atom_site_fract_x
  _atom_site_fract_y
  _atom_site_fract_z
  _atom_site_thermal_displace_type
  _atom_site_B_iso_or_equiv
  _atom_site_type_symbol
  C1       1.0000 0.04650  0.42039  0.13640  Biso   1.000  C
  C2       1.0000 0.00790  0.38063  0.13873  Biso   1.000  C
  C3       1.0000 0.98330  0.36180  0.09686  Biso   1.000  C
  H1       1.0000 0.99120  0.37180  0.06730  Biso   1.000  H
  C4       1.0000 0.94720  0.32830  0.09890  Biso   1.000  C
  H2       1.0000 0.92920  0.31720  0.07040  Biso   1.000  H
  C5       1.0000 0.93690  0.31050  0.14310  Biso   1.000  C
  C6       1.0000 0.96210  0.32890  0.18500  Biso   1.000  C
  H3       1.0000 0.95460  0.31820  0.21450  Biso   1.000  H
  C7       1.0000 0.99830  0.36280  0.18385  Biso   1.000  C
  H4       1.0000 0.01620  0.37390  0.21230  Biso   1.000  H
  C8       1.0000 0.89850  0.27440  0.14410  Biso   1.000  C
  C9       1.0000 0.89340  0.23520  0.11350  Biso   1.000  C
  H5       1.0000 0.91460  0.23220  0.09120  Biso   1.000  H
  C10      1.0000 0.85880  0.20050  0.11380  Biso   1.000  C
  C11      1.0000 0.82420  0.20240  0.14290  Biso   1.000  C
  C12      1.0000 0.82750  0.24320  0.17350  Biso   1.000  C
  H6       1.0000 0.80420  0.24730  0.19360  Biso   1.000  H
  C13      1.0000 0.86360  0.27760  0.17540  Biso   1.000  C
  C14      1.0000 0.72110  0.11440  0.10240  Biso   1.000  C
  H7       1.0000 0.70230  0.10470  0.07380  Biso   1.000  H
  C15      1.0000 0.75750  0.14790  0.10170  Biso   1.000  C
  H8       1.0000 0.76390  0.15980  0.07230  Biso   1.000  H
  C16      1.0000 0.78490  0.16430  0.14330  Biso   1.000  C
  C17      1.0000 0.77560  0.14380  0.18610  Biso   1.000  C
  H9       1.0000 0.79390  0.15380  0.21480  Biso   1.000  H
  C18      1.0000 0.74150  0.11070  0.18740  Biso   1.000  C
  H10      1.0000 0.73660  0.09730  0.21690  Biso   1.000  H
  C19      1.0000 0.71270  0.09540  0.14530  Biso   1.000  C
  C20      1.0000 0.67380  0.05794  0.14775  Biso   1.000  C
  C21      1.0000 0.88980  0.15790  0.04220  Biso   1.000  C
  H11      1.0000 0.88430  0.12770  0.02420  Biso   1.000  H
  H12      1.0000 0.92290  0.15950  0.05670  Biso   1.000  H
  H13      1.0000 0.88240  0.18540  0.02090  Biso   1.000  H
  C22      1.0000 0.83170  0.32090  0.23680  Biso   1.000  C
  H14      1.0000 0.83620  0.34980  0.25660  Biso   1.000  H
  H15      1.0000 0.83500  0.29200  0.25690  Biso   1.000  H
  H16      1.0000 0.80010  0.32140  0.21820  Biso   1.000  H
  C23      1.0000 0.04250  0.55533  0.13480  Biso   1.000  C
  C24      1.0000 0.00470  0.59210  0.13570  Biso   1.000  C
  C25      1.0000 0.99630  0.61230  0.17899  Biso   1.000  C
  H17      1.0000 0.01540  0.60230  0.20730  Biso   1.000  H
  C26      1.0000 0.96000  0.64730  0.18200  Biso   1.000  C
  H18      1.0000 0.95370  0.65810  0.21180  Biso   1.000  H
  C27      1.0000 0.93330  0.66610  0.13930  Biso   1.000  C
  C28      1.0000 0.94310  0.64580  0.09540  Biso   1.000  C
  H19      1.0000 0.92510  0.65620  0.06660  Biso   1.000  H
  C29      1.0000 0.97860  0.61130  0.09420  Biso   1.000  C
  H20      1.0000 0.98540  0.60040  0.06450  Biso   1.000  H
  C30      1.0000 0.89790  0.70620  0.14070  Biso   1.000  C
  C31      1.0000 0.89210  0.74100  0.11240  Biso   1.000  C
  H21      1.0000 0.91330  0.74370  0.09000  Biso   1.000  H
  C32      1.0000 0.85630  0.77670  0.11140  Biso   1.000  C
  C33      1.0000 0.82780  0.78220  0.14190  Biso   1.000  C
  C34      1.0000 0.83140  0.74600  0.17220  Biso   1.000  C
  H22      1.0000 0.81070  0.74650  0.19520  Biso   1.000  H
  C35      1.0000 0.86420  0.70490  0.17410  Biso   1.000  C
  C36      1.0000 0.74440  0.87250  0.18570  Biso   1.000  C
  H23      1.0000 0.73800  0.88480  0.21500  Biso   1.000  H
  C37      1.0000 0.78020  0.83880  0.18470  Biso   1.000  C
  H24      1.0000 0.79840  0.82930  0.21370  Biso   1.000  H
  C38      1.0000 0.79050  0.81790  0.14240  Biso   1.000  C
  C39      1.0000 0.76590  0.83570  0.10120  Biso   1.000  C
  H25      1.0000 0.77400  0.82520  0.07180  Biso   1.000  H
  C40      1.0000 0.72910  0.86910  0.10140  Biso   1.000  C
  H26      1.0000 0.71130  0.87890  0.07230  Biso   1.000  H
  C41      1.0000 0.71800  0.88820  0.14360  Biso   1.000  C
  C42      1.0000 0.67740  0.92470  0.14370  Biso   1.000  C
  C43      1.0000 0.83060  0.66790  0.24240  Biso   1.000  C
  H27      1.0000 0.83300  0.63950  0.26300  Biso   1.000  H
  H28      1.0000 0.79840  0.67050  0.22540  Biso   1.000  H
  H29      1.0000 0.83820  0.69700  0.26150  Biso   1.000  H
  C44      1.0000 0.13340  0.53090  0.49532  Biso   1.000  C
  H30      1.0000 0.15580  0.55000  0.51490  Biso   1.000  H
  C45      1.0000 0.13640  0.52860  0.44780  Biso   1.000  C
  H31      1.0000 0.16090  0.54600  0.43630  Biso   1.000  H
  C46      1.0000 0.10570  0.50229  0.41630  Biso   1.000  C
  C47      1.0000 0.07120  0.48190  0.43720  Biso   1.000  C
  H32      1.0000 0.04720  0.46420  0.41800  Biso   1.000  H
  C48      1.0000 0.06880  0.48570  0.48681  Biso   1.000  C
  H33      1.0000 0.04300  0.47160  0.49910  Biso   1.000  H
  C49      1.0000 0.10070  0.45580  0.29100  Biso   1.000  C
  H34      1.0000 0.09270  0.42610  0.27520  Biso   1.000  H
  C50      1.0000 0.09800  0.45930  0.34012  Biso   1.000  C
  H35      1.0000 0.08920  0.43150  0.35620  Biso   1.000  H
  C51      1.0000 0.10715  0.49853  0.36341  Biso   1.000  C
  C52      1.0000 0.12220  0.53640  0.33905  Biso   1.000  C
  H36      1.0000 0.13300  0.56590  0.35390  Biso   1.000  H
  C53      1.0000 0.12050  0.52880  0.29150  Biso   1.000  C
  H37      1.0000 0.12550  0.55730  0.27460  Biso   1.000  H
  N1       1.0000 0.10110  0.50798  0.51491  Biso   1.000  N
  N2       1.0000 0.11400  0.49306  0.26639  Biso   1.000  N
  O1       1.0000 0.05305  0.43641  0.09746  Biso   1.000  O
  O2       1.0000 0.06792  0.43481  0.17780  Biso   1.000  O
  O3       1.0000 0.65308  0.04315  0.10785  Biso   1.000  O
  O4       1.0000 0.66634  0.04469  0.18807  Biso   1.000  O
  O5       1.0000 0.85670  0.15930  0.08250  Biso   1.000  O
  O6       1.0000 0.86700  0.31980  0.20530  Biso   1.000  O
  O7       1.0000 0.06386  0.53973  0.17411  Biso   1.000  O
  O8       1.0000 0.05055  0.54085  0.09394  Biso   1.000  O
  O9       1.0000 0.66995  0.94010  0.18502  Biso   1.000  O
  O10      1.0000 0.65593  0.93912  0.10451  Biso   1.000  O
  O11      1.0000 0.86840  0.82490  0.07990  Biso   1.000  O
  O12      1.0000 0.86320  0.66320  0.20910  Biso   1.000  O
  Zn1      1.0000 0.10206  0.48991  0.08817  Biso   1.000  Zn
  Zn2      1.0000 0.11733  0.48979  0.19445  Biso   1.000  Zn
  C54      1.0000 0.54650  0.92039  0.13640  Biso   1.000  C
  C55      1.0000 0.50790  0.88063  0.13873  Biso   1.000  C
  C56      1.0000 0.48330  0.86180  0.09686  Biso   1.000  C
  H38      1.0000 0.49120  0.87180  0.06730  Biso   1.000  H
  C57      1.0000 0.44720  0.82830  0.09890  Biso   1.000  C
  H39      1.0000 0.42920  0.81720  0.07040  Biso   1.000  H
  C58      1.0000 0.43690  0.81050  0.14310  Biso   1.000  C
  C59      1.0000 0.46210  0.82890  0.18500  Biso   1.000  C
  H40      1.0000 0.45460  0.81820  0.21450  Biso   1.000  H
  C60      1.0000 0.49830  0.86280  0.18385  Biso   1.000  C
  H41      1.0000 0.51620  0.87390  0.21230  Biso   1.000  H
  C61      1.0000 0.39850  0.77440  0.14410  Biso   1.000  C
  C62      1.0000 0.39340  0.73520  0.11350  Biso   1.000  C
  H42      1.0000 0.41460  0.73220  0.09120  Biso   1.000  H
  C63      1.0000 0.35880  0.70050  0.11380  Biso   1.000  C
  C64      1.0000 0.32420  0.70240  0.14290  Biso   1.000  C
  C65      1.0000 0.32750  0.74320  0.17350  Biso   1.000  C
  H43      1.0000 0.30420  0.74730  0.19360  Biso   1.000  H
  C66      1.0000 0.36360  0.77760  0.17540  Biso   1.000  C
  C67      1.0000 0.22110  0.61440  0.10240  Biso   1.000  C
  H44      1.0000 0.20230  0.60470  0.07380  Biso   1.000  H
  C68      1.0000 0.25750  0.64790  0.10170  Biso   1.000  C
  H45      1.0000 0.26390  0.65980  0.07230  Biso   1.000  H
  C69      1.0000 0.28490  0.66430  0.14330  Biso   1.000  C
  C70      1.0000 0.27560  0.64380  0.18610  Biso   1.000  C
  H46      1.0000 0.29390  0.65380  0.21480  Biso   1.000  H
  C71      1.0000 0.24150  0.61070  0.18740  Biso   1.000  C
  H47      1.0000 0.23660  0.59730  0.21690  Biso   1.000  H
  C72      1.0000 0.21270  0.59540  0.14530  Biso   1.000  C
  C73      1.0000 0.17380  0.55794  0.14775  Biso   1.000  C
  C74      1.0000 0.38980  0.65790  0.04220  Biso   1.000  C
  H48      1.0000 0.38430  0.62770  0.02420  Biso   1.000  H
  H49      1.0000 0.42290  0.65950  0.05670  Biso   1.000  H
  H50      1.0000 0.38240  0.68540  0.02090  Biso   1.000  H
  C75      1.0000 0.33170  0.82090  0.23680  Biso   1.000  C
  H51      1.0000 0.33620  0.84980  0.25660  Biso   1.000  H
  H52      1.0000 0.33500  0.79200  0.25690  Biso   1.000  H
  H53      1.0000 0.30010  0.82140  0.21820  Biso   1.000  H
  C76      1.0000 0.54250  0.05533  0.13480  Biso   1.000  C
  C77      1.0000 0.50470  0.09210  0.13570  Biso   1.000  C
  C78      1.0000 0.49630  0.11230  0.17899  Biso   1.000  C
  H54      1.0000 0.51540  0.10230  0.20730  Biso   1.000  H
  C79      1.0000 0.46000  0.14730  0.18200  Biso   1.000  C
  H55      1.0000 0.45370  0.15810  0.21180  Biso   1.000  H
  C80      1.0000 0.43330  0.16610  0.13930  Biso   1.000  C
  C81      1.0000 0.44310  0.14580  0.09540  Biso   1.000  C
  H56      1.0000 0.42510  0.15620  0.06660  Biso   1.000  H
  C82      1.0000 0.47860  0.11130  0.09420  Biso   1.000  C
  H57      1.0000 0.48540  0.10040  0.06450  Biso   1.000  H
  C83      1.0000 0.39790  0.20620  0.14070  Biso   1.000  C
  C84      1.0000 0.39210  0.24100  0.11240  Biso   1.000  C
  H58      1.0000 0.41330  0.24370  0.09000  Biso   1.000  H
  C85      1.0000 0.35630  0.27670  0.11140  Biso   1.000  C
  C86      1.0000 0.32780  0.28220  0.14190  Biso   1.000  C
  C87      1.0000 0.33140  0.24600  0.17220  Biso   1.000  C
  H59      1.0000 0.31070  0.24650  0.19520  Biso   1.000  H
  C88      1.0000 0.36420  0.20490  0.17410  Biso   1.000  C
  C89      1.0000 0.24440  0.37250  0.18570  Biso   1.000  C
  H60      1.0000 0.23800  0.38480  0.21500  Biso   1.000  H
  C90      1.0000 0.28020  0.33880  0.18470  Biso   1.000  C
  H61      1.0000 0.29840  0.32930  0.21370  Biso   1.000  H
  C91      1.0000 0.29050  0.31790  0.14240  Biso   1.000  C
  C92      1.0000 0.26590  0.33570  0.10120  Biso   1.000  C
  H62      1.0000 0.27400  0.32520  0.07180  Biso   1.000  H
  C93      1.0000 0.22910  0.36910  0.10140  Biso   1.000  C
  H63      1.0000 0.21130  0.37890  0.07230  Biso   1.000  H
  C94      1.0000 0.21800  0.38820  0.14360  Biso   1.000  C
  C95      1.0000 0.17740  0.42470  0.14370  Biso   1.000  C
  C96      1.0000 0.33060  0.16790  0.24240  Biso   1.000  C
  H64      1.0000 0.33300  0.13950  0.26300  Biso   1.000  H
  H65      1.0000 0.29840  0.17050  0.22540  Biso   1.000  H
  H66      1.0000 0.33820  0.19700  0.26150  Biso   1.000  H
  C97      1.0000 0.63340  0.03090  0.49532  Biso   1.000  C
  H67      1.0000 0.65580  0.05000  0.51490  Biso   1.000  H
  C98      1.0000 0.63640  0.02860  0.44780  Biso   1.000  C
  H68      1.0000 0.66090  0.04600  0.43630  Biso   1.000  H
  C99      1.0000 0.60570  0.00229  0.41630  Biso   1.000  C
  C100     1.0000 0.57120  0.98190  0.43720  Biso   1.000  C
  H69      1.0000 0.54720  0.96420  0.41800  Biso   1.000  H
  C101     1.0000 0.56880  0.98570  0.48681  Biso   1.000  C
  H70      1.0000 0.54300  0.97160  0.49910  Biso   1.000  H
  C102     1.0000 0.60070  0.95580  0.29100  Biso   1.000  C
  H71      1.0000 0.59270  0.92610  0.27520  Biso   1.000  H
  C103     1.0000 0.59800  0.95930  0.34012  Biso   1.000  C
  H72      1.0000 0.58920  0.93150  0.35620  Biso   1.000  H
  C104     1.0000 0.60715  0.99853  0.36341  Biso   1.000  C
  C105     1.0000 0.62220  0.03640  0.33905  Biso   1.000  C
  H73      1.0000 0.63300  0.06590  0.35390  Biso   1.000  H
  C106     1.0000 0.62050  0.02880  0.29150  Biso   1.000  C
  H74      1.0000 0.62550  0.05730  0.27460  Biso   1.000  H
  N3       1.0000 0.60110  0.00798  0.51491  Biso   1.000  N
  N4       1.0000 0.61400  0.99306  0.26639  Biso   1.000  N
  O13      1.0000 0.55305  0.93641  0.09746  Biso   1.000  O
  O14      1.0000 0.56792  0.93481  0.17780  Biso   1.000  O
  O15      1.0000 0.15308  0.54315  0.10785  Biso   1.000  O
  O16      1.0000 0.16634  0.54469  0.18807  Biso   1.000  O
  O17      1.0000 0.35670  0.65930  0.08250  Biso   1.000  O
  O18      1.0000 0.36700  0.81980  0.20530  Biso   1.000  O
  O19      1.0000 0.56386  0.03973  0.17411  Biso   1.000  O
  O20      1.0000 0.55055  0.04085  0.09394  Biso   1.000  O
  O21      1.0000 0.16995  0.44010  0.18502  Biso   1.000  O
  O22      1.0000 0.15593  0.43912  0.10451  Biso   1.000  O
  O23      1.0000 0.36840  0.32490  0.07990  Biso   1.000  O
  O24      1.0000 0.36320  0.16320  0.20910  Biso   1.000  O
  Zn3      1.0000 0.60206  0.98991  0.08817  Biso   1.000  Zn
  Zn4      1.0000 0.61733  0.98979  0.19445  Biso   1.000  Zn
  C107     1.0000 0.04650  0.57961  0.63640  Biso   1.000  C
  C108     1.0000 0.00790  0.61937  0.63873  Biso   1.000  C
  C109     1.0000 0.98330  0.63820  0.59686  Biso   1.000  C
  H75      1.0000 0.99120  0.62820  0.56730  Biso   1.000  H
  C110     1.0000 0.94720  0.67170  0.59890  Biso   1.000  C
  H76      1.0000 0.92920  0.68280  0.57040  Biso   1.000  H
  C111     1.0000 0.93690  0.68950  0.64310  Biso   1.000  C
  C112     1.0000 0.96210  0.67110  0.68500  Biso   1.000  C
  H77      1.0000 0.95460  0.68180  0.71450  Biso   1.000  H
  C113     1.0000 0.99830  0.63720  0.68385  Biso   1.000  C
  H78      1.0000 0.01620  0.62610  0.71230  Biso   1.000  H
  C114     1.0000 0.89850  0.72560  0.64410  Biso   1.000  C
  C115     1.0000 0.89340  0.76480  0.61350  Biso   1.000  C
  H79      1.0000 0.91460  0.76780  0.59120  Biso   1.000  H
  C116     1.0000 0.85880  0.79950  0.61380  Biso   1.000  C
  C117     1.0000 0.82420  0.79760  0.64290  Biso   1.000  C
  C118     1.0000 0.82750  0.75680  0.67350  Biso   1.000  C
  H80      1.0000 0.80420  0.75270  0.69360  Biso   1.000  H
  C119     1.0000 0.86360  0.72240  0.67540  Biso   1.000  C
  C120     1.0000 0.72110  0.88560  0.60240  Biso   1.000  C
  H81      1.0000 0.70230  0.89530  0.57380  Biso   1.000  H
  C121     1.0000 0.75750  0.85210  0.60170  Biso   1.000  C
  H82      1.0000 0.76390  0.84020  0.57230  Biso   1.000  H
  C122     1.0000 0.78490  0.83570  0.64330  Biso   1.000  C
  C123     1.0000 0.77560  0.85620  0.68610  Biso   1.000  C
  H83      1.0000 0.79390  0.84620  0.71480  Biso   1.000  H
  C124     1.0000 0.74150  0.88930  0.68740  Biso   1.000  C
  H84      1.0000 0.73660  0.90270  0.71690  Biso   1.000  H
  C125     1.0000 0.71270  0.90460  0.64530  Biso   1.000  C
  C126     1.0000 0.67380  0.94206  0.64775  Biso   1.000  C
  C127     1.0000 0.88980  0.84210  0.54220  Biso   1.000  C
  H85      1.0000 0.88430  0.87230  0.52420  Biso   1.000  H
  H86      1.0000 0.92290  0.84050  0.55670  Biso   1.000  H
  H87      1.0000 0.88240  0.81460  0.52090  Biso   1.000  H
  C128     1.0000 0.83170  0.67910  0.73680  Biso   1.000  C
  H88      1.0000 0.83620  0.65020  0.75660  Biso   1.000  H
  H89      1.0000 0.83500  0.70800  0.75690  Biso   1.000  H
  H90      1.0000 0.80010  0.67860  0.71820  Biso   1.000  H
  C129     1.0000 0.04250  0.44467  0.63480  Biso   1.000  C
  C130     1.0000 0.00470  0.40790  0.63570  Biso   1.000  C
  C131     1.0000 0.99630  0.38770  0.67899  Biso   1.000  C
  H91      1.0000 0.01540  0.39770  0.70730  Biso   1.000  H
  C132     1.0000 0.96000  0.35270  0.68200  Biso   1.000  C
  H92      1.0000 0.95370  0.34190  0.71180  Biso   1.000  H
  C133     1.0000 0.93330  0.33390  0.63930  Biso   1.000  C
  C134     1.0000 0.94310  0.35420  0.59540  Biso   1.000  C
  H93      1.0000 0.92510  0.34380  0.56660  Biso   1.000  H
  C135     1.0000 0.97860  0.38870  0.59420  Biso   1.000  C
  H94      1.0000 0.98540  0.39960  0.56450  Biso   1.000  H
  C136     1.0000 0.89790  0.29380  0.64070  Biso   1.000  C
  C137     1.0000 0.89210  0.25900  0.61240  Biso   1.000  C
  H95      1.0000 0.91330  0.25630  0.59000  Biso   1.000  H
  C138     1.0000 0.85630  0.22330  0.61140  Biso   1.000  C
  C139     1.0000 0.82780  0.21780  0.64190  Biso   1.000  C
  C140     1.0000 0.83140  0.25400  0.67220  Biso   1.000  C
  H96      1.0000 0.81070  0.25350  0.69520  Biso   1.000  H
  C141     1.0000 0.86420  0.29510  0.67410  Biso   1.000  C
  C142     1.0000 0.74440  0.12750  0.68570  Biso   1.000  C
  H97      1.0000 0.73800  0.11520  0.71500  Biso   1.000  H
  C143     1.0000 0.78020  0.16120  0.68470  Biso   1.000  C
  H98      1.0000 0.79840  0.17070  0.71370  Biso   1.000  H
  C144     1.0000 0.79050  0.18210  0.64240  Biso   1.000  C
  C145     1.0000 0.76590  0.16430  0.60120  Biso   1.000  C
  H99      1.0000 0.77400  0.17480  0.57180  Biso   1.000  H
  C146     1.0000 0.72910  0.13090  0.60140  Biso   1.000  C
  H100     1.0000 0.71130  0.12110  0.57230  Biso   1.000  H
  C147     1.0000 0.71800  0.11180  0.64360  Biso   1.000  C
  C148     1.0000 0.67740  0.07530  0.64370  Biso   1.000  C
  C149     1.0000 0.83060  0.33210  0.74240  Biso   1.000  C
  H101     1.0000 0.83300  0.36050  0.76300  Biso   1.000  H
  H102     1.0000 0.79840  0.32950  0.72540  Biso   1.000  H
  H103     1.0000 0.83820  0.30300  0.76150  Biso   1.000  H
  C150     1.0000 0.13340  0.46910  0.99532  Biso   1.000  C
  H104     1.0000 0.15580  0.45000  0.01490  Biso   1.000  H
  C151     1.0000 0.13640  0.47140  0.94780  Biso   1.000  C
  H105     1.0000 0.16090  0.45400  0.93630  Biso   1.000  H
  C152     1.0000 0.10570  0.49771  0.91630  Biso   1.000  C
  C153     1.0000 0.07120  0.51810  0.93720  Biso   1.000  C
  H106     1.0000 0.04720  0.53580  0.91800  Biso   1.000  H
  C154     1.0000 0.06880  0.51430  0.98681  Biso   1.000  C
  H107     1.0000 0.04300  0.52840  0.99910  Biso   1.000  H
  C155     1.0000 0.10070  0.54420  0.79100  Biso   1.000  C
  H108     1.0000 0.09270  0.57390  0.77520  Biso   1.000  H
  C156     1.0000 0.09800  0.54070  0.84012  Biso   1.000  C
  H109     1.0000 0.08920  0.56850  0.85620  Biso   1.000  H
  C157     1.0000 0.10715  0.50147  0.86341  Biso   1.000  C
  C158     1.0000 0.12220  0.46360  0.83905  Biso   1.000  C
  H110     1.0000 0.13300  0.43410  0.85390  Biso   1.000  H
  C159     1.0000 0.12050  0.47120  0.79150  Biso   1.000  C
  H111     1.0000 0.12550  0.44270  0.77460  Biso   1.000  H
  N5       1.0000 0.10110  0.49202  0.01491  Biso   1.000  N
  N6       1.0000 0.11400  0.50694  0.76639  Biso   1.000  N
  O25      1.0000 0.05305  0.56359  0.59746  Biso   1.000  O
  O26      1.0000 0.06792  0.56519  0.67780  Biso   1.000  O
  O27      1.0000 0.65308  0.95685  0.60785  Biso   1.000  O
  O28      1.0000 0.66634  0.95531  0.68807  Biso   1.000  O
  O29      1.0000 0.85670  0.84070  0.58250  Biso   1.000  O
  O30      1.0000 0.86700  0.68020  0.70530  Biso   1.000  O
  O31      1.0000 0.06386  0.46027  0.67411  Biso   1.000  O
  O32      1.0000 0.05055  0.45915  0.59394  Biso   1.000  O
  O33      1.0000 0.66995  0.05990  0.68502  Biso   1.000  O
  O34      1.0000 0.65593  0.06088  0.60451  Biso   1.000  O
  O35      1.0000 0.86840  0.17510  0.57990  Biso   1.000  O
  O36      1.0000 0.86320  0.33680  0.70910  Biso   1.000  O
  Zn5      1.0000 0.10206  0.51009  0.58817  Biso   1.000  Zn
  Zn6      1.0000 0.11733  0.51021  0.69445  Biso   1.000  Zn
  C160     1.0000 0.54650  0.07961  0.63640  Biso   1.000  C
  C161     1.0000 0.50790  0.11937  0.63873  Biso   1.000  C
  C162     1.0000 0.48330  0.13820  0.59686  Biso   1.000  C
  H112     1.0000 0.49120  0.12820  0.56730  Biso   1.000  H
  C163     1.0000 0.44720  0.17170  0.59890  Biso   1.000  C
  H113     1.0000 0.42920  0.18280  0.57040  Biso   1.000  H
  C164     1.0000 0.43690  0.18950  0.64310  Biso   1.000  C
  C165     1.0000 0.46210  0.17110  0.68500  Biso   1.000  C
  H114     1.0000 0.45460  0.18180  0.71450  Biso   1.000  H
  C166     1.0000 0.49830  0.13720  0.68385  Biso   1.000  C
  H115     1.0000 0.51620  0.12610  0.71230  Biso   1.000  H
  C167     1.0000 0.39850  0.22560  0.64410  Biso   1.000  C
  C168     1.0000 0.39340  0.26480  0.61350  Biso   1.000  C
  H116     1.0000 0.41460  0.26780  0.59120  Biso   1.000  H
  C169     1.0000 0.35880  0.29950  0.61380  Biso   1.000  C
  C170     1.0000 0.32420  0.29760  0.64290  Biso   1.000  C
  C171     1.0000 0.32750  0.25680  0.67350  Biso   1.000  C
  H117     1.0000 0.30420  0.25270  0.69360  Biso   1.000  H
  C172     1.0000 0.36360  0.22240  0.67540  Biso   1.000  C
  C173     1.0000 0.22110  0.38560  0.60240  Biso   1.000  C
  H118     1.0000 0.20230  0.39530  0.57380  Biso   1.000  H
  C174     1.0000 0.25750  0.35210  0.60170  Biso   1.000  C
  H119     1.0000 0.26390  0.34020  0.57230  Biso   1.000  H
  C175     1.0000 0.28490  0.33570  0.64330  Biso   1.000  C
  C176     1.0000 0.27560  0.35620  0.68610  Biso   1.000  C
  H120     1.0000 0.29390  0.34620  0.71480  Biso   1.000  H
  C177     1.0000 0.24150  0.38930  0.68740  Biso   1.000  C
  H121     1.0000 0.23660  0.40270  0.71690  Biso   1.000  H
  C178     1.0000 0.21270  0.40460  0.64530  Biso   1.000  C
  C179     1.0000 0.17380  0.44206  0.64775  Biso   1.000  C
  C180     1.0000 0.38980  0.34210  0.54220  Biso   1.000  C
  H122     1.0000 0.38430  0.37230  0.52420  Biso   1.000  H
  H123     1.0000 0.42290  0.34050  0.55670  Biso   1.000  H
  H124     1.0000 0.38240  0.31460  0.52090  Biso   1.000  H
  C181     1.0000 0.33170  0.17910  0.73680  Biso   1.000  C
  H125     1.0000 0.33620  0.15020  0.75660  Biso   1.000  H
  H126     1.0000 0.33500  0.20800  0.75690  Biso   1.000  H
  H127     1.0000 0.30010  0.17860  0.71820  Biso   1.000  H
  C182     1.0000 0.54250  0.94467  0.63480  Biso   1.000  C
  C183     1.0000 0.50470  0.90790  0.63570  Biso   1.000  C
  C184     1.0000 0.49630  0.88770  0.67899  Biso   1.000  C
  H128     1.0000 0.51540  0.89770  0.70730  Biso   1.000  H
  C185     1.0000 0.46000  0.85270  0.68200  Biso   1.000  C
  H129     1.0000 0.45370  0.84190  0.71180  Biso   1.000  H
  C186     1.0000 0.43330  0.83390  0.63930  Biso   1.000  C
  C187     1.0000 0.44310  0.85420  0.59540  Biso   1.000  C
  H130     1.0000 0.42510  0.84380  0.56660  Biso   1.000  H
  C188     1.0000 0.47860  0.88870  0.59420  Biso   1.000  C
  H131     1.0000 0.48540  0.89960  0.56450  Biso   1.000  H
  C189     1.0000 0.39790  0.79380  0.64070  Biso   1.000  C
  C190     1.0000 0.39210  0.75900  0.61240  Biso   1.000  C
  H132     1.0000 0.41330  0.75630  0.59000  Biso   1.000  H
  C191     1.0000 0.35630  0.72330  0.61140  Biso   1.000  C
  C192     1.0000 0.32780  0.71780  0.64190  Biso   1.000  C
  C193     1.0000 0.33140  0.75400  0.67220  Biso   1.000  C
  H133     1.0000 0.31070  0.75350  0.69520  Biso   1.000  H
  C194     1.0000 0.36420  0.79510  0.67410  Biso   1.000  C
  C195     1.0000 0.24440  0.62750  0.68570  Biso   1.000  C
  H134     1.0000 0.23800  0.61520  0.71500  Biso   1.000  H
  C196     1.0000 0.28020  0.66120  0.68470  Biso   1.000  C
  H135     1.0000 0.29840  0.67070  0.71370  Biso   1.000  H
  C197     1.0000 0.29050  0.68210  0.64240  Biso   1.000  C
  C198     1.0000 0.26590  0.66430  0.60120  Biso   1.000  C
  H136     1.0000 0.27400  0.67480  0.57180  Biso   1.000  H
  C199     1.0000 0.22910  0.63090  0.60140  Biso   1.000  C
  H137     1.0000 0.21130  0.62110  0.57230  Biso   1.000  H
  C200     1.0000 0.21800  0.61180  0.64360  Biso   1.000  C
  C201     1.0000 0.17740  0.57530  0.64370  Biso   1.000  C
  C202     1.0000 0.33060  0.83210  0.74240  Biso   1.000  C
  H138     1.0000 0.33300  0.86050  0.76300  Biso   1.000  H
  H139     1.0000 0.29840  0.82950  0.72540  Biso   1.000  H
  H140     1.0000 0.33820  0.80300  0.76150  Biso   1.000  H
  C203     1.0000 0.63340  0.96910  0.99532  Biso   1.000  C
  H141     1.0000 0.65580  0.95000  0.01490  Biso   1.000  H
  C204     1.0000 0.63640  0.97140  0.94780  Biso   1.000  C
  H142     1.0000 0.66090  0.95400  0.93630  Biso   1.000  H
  C205     1.0000 0.60570  0.99771  0.91630  Biso   1.000  C
  C206     1.0000 0.57120  0.01810  0.93720  Biso   1.000  C
  H143     1.0000 0.54720  0.03580  0.91800  Biso   1.000  H
  C207     1.0000 0.56880  0.01430  0.98681  Biso   1.000  C
  H144     1.0000 0.54300  0.02840  0.99910  Biso   1.000  H
  C208     1.0000 0.60070  0.04420  0.79100  Biso   1.000  C
  H145     1.0000 0.59270  0.07390  0.77520  Biso   1.000  H
  C209     1.0000 0.59800  0.04070  0.84012  Biso   1.000  C
  H146     1.0000 0.58920  0.06850  0.85620  Biso   1.000  H
  C210     1.0000 0.60715  0.00147  0.86341  Biso   1.000  C
  C211     1.0000 0.62220  0.96360  0.83905  Biso   1.000  C
  H147     1.0000 0.63300  0.93410  0.85390  Biso   1.000  H
  C212     1.0000 0.62050  0.97120  0.79150  Biso   1.000  C
  H148     1.0000 0.62550  0.94270  0.77460  Biso   1.000  H
  N7       1.0000 0.60110  0.99202  0.01491  Biso   1.000  N
  N8       1.0000 0.61400  0.00694  0.76639  Biso   1.000  N
  O37      1.0000 0.55305  0.06359  0.59746  Biso   1.000  O
  O38      1.0000 0.56792  0.06519  0.67780  Biso   1.000  O
  O39      1.0000 0.15308  0.45685  0.60785  Biso   1.000  O
  O40      1.0000 0.16634  0.45531  0.68807  Biso   1.000  O
  O41      1.0000 0.35670  0.34070  0.58250  Biso   1.000  O
  O42      1.0000 0.36700  0.18020  0.70530  Biso   1.000  O
  O43      1.0000 0.56386  0.96027  0.67411  Biso   1.000  O
  O44      1.0000 0.55055  0.95915  0.59394  Biso   1.000  O
  O45      1.0000 0.16995  0.55990  0.68502  Biso   1.000  O
  O46      1.0000 0.15593  0.56088  0.60451  Biso   1.000  O
  O47      1.0000 0.36840  0.67510  0.57990  Biso   1.000  O
  O48      1.0000 0.36320  0.83680  0.70910  Biso   1.000  O
  Zn7      1.0000 0.60206  0.01009  0.58817  Biso   1.000  Zn
  Zn8      1.0000 0.61733  0.01021  0.69445  Biso   1.000  Zn
  C213     1.0000 0.95350  0.42039  0.36360  Biso   1.000  C
  C214     1.0000 0.99210  0.38063  0.36127  Biso   1.000  C
  C215     1.0000 0.01670  0.36180  0.40314  Biso   1.000  C
  H149     1.0000 0.00880  0.37180  0.43270  Biso   1.000  H
  C216     1.0000 0.05280  0.32830  0.40110  Biso   1.000  C
  H150     1.0000 0.07080  0.31720  0.42960  Biso   1.000  H
  C217     1.0000 0.06310  0.31050  0.35690  Biso   1.000  C
  C218     1.0000 0.03790  0.32890  0.31500  Biso   1.000  C
  H151     1.0000 0.04540  0.31820  0.28550  Biso   1.000  H
  C219     1.0000 0.00170  0.36280  0.31615  Biso   1.000  C
  H152     1.0000 0.98380  0.37390  0.28770  Biso   1.000  H
  C220     1.0000 0.10150  0.27440  0.35590  Biso   1.000  C
  C221     1.0000 0.10660  0.23520  0.38650  Biso   1.000  C
  H153     1.0000 0.08540  0.23220  0.40880  Biso   1.000  H
  C222     1.0000 0.14120  0.20050  0.38620  Biso   1.000  C
  C223     1.0000 0.17580  0.20240  0.35710  Biso   1.000  C
  C224     1.0000 0.17250  0.24320  0.32650  Biso   1.000  C
  H154     1.0000 0.19580  0.24730  0.30640  Biso   1.000  H
  C225     1.0000 0.13640  0.27760  0.32460  Biso   1.000  C
  C226     1.0000 0.27890  0.11440  0.39760  Biso   1.000  C
  H155     1.0000 0.29770  0.10470  0.42620  Biso   1.000  H
  C227     1.0000 0.24250  0.14790  0.39830  Biso   1.000  C
  H156     1.0000 0.23610  0.15980  0.42770  Biso   1.000  H
  C228     1.0000 0.21510  0.16430  0.35670  Biso   1.000  C
  C229     1.0000 0.22440  0.14380  0.31390  Biso   1.000  C
  H157     1.0000 0.20610  0.15380  0.28520  Biso   1.000  H
  C230     1.0000 0.25850  0.11070  0.31260  Biso   1.000  C
  H158     1.0000 0.26340  0.09730  0.28310  Biso   1.000  H
  C231     1.0000 0.28730  0.09540  0.35470  Biso   1.000  C
  C232     1.0000 0.32620  0.05794  0.35225  Biso   1.000  C
  C233     1.0000 0.11020  0.15790  0.45780  Biso   1.000  C
  H159     1.0000 0.11570  0.12770  0.47580  Biso   1.000  H
  H160     1.0000 0.07710  0.15950  0.44330  Biso   1.000  H
  H161     1.0000 0.11760  0.18540  0.47910  Biso   1.000  H
  C234     1.0000 0.16830  0.32090  0.26320  Biso   1.000  C
  H162     1.0000 0.16380  0.34980  0.24340  Biso   1.000  H
  H163     1.0000 0.16500  0.29200  0.24310  Biso   1.000  H
  H164     1.0000 0.19990  0.32140  0.28180  Biso   1.000  H
  C235     1.0000 0.95750  0.55533  0.36520  Biso   1.000  C
  C236     1.0000 0.99530  0.59210  0.36430  Biso   1.000  C
  C237     1.0000 0.00370  0.61230  0.32101  Biso   1.000  C
  H165     1.0000 0.98460  0.60230  0.29270  Biso   1.000  H
  C238     1.0000 0.04000  0.64730  0.31800  Biso   1.000  C
  H166     1.0000 0.04630  0.65810  0.28820  Biso   1.000  H
  C239     1.0000 0.06670  0.66610  0.36070  Biso   1.000  C
  C240     1.0000 0.05690  0.64580  0.40460  Biso   1.000  C
  H167     1.0000 0.07490  0.65620  0.43340  Biso   1.000  H
  C241     1.0000 0.02140  0.61130  0.40580  Biso   1.000  C
  H168     1.0000 0.01460  0.60040  0.43550  Biso   1.000  H
  C242     1.0000 0.10210  0.70620  0.35930  Biso   1.000  C
  C243     1.0000 0.10790  0.74100  0.38760  Biso   1.000  C
  H169     1.0000 0.08670  0.74370  0.41000  Biso   1.000  H
  C244     1.0000 0.14370  0.77670  0.38860  Biso   1.000  C
  C245     1.0000 0.17220  0.78220  0.35810  Biso   1.000  C
  C246     1.0000 0.16860  0.74600  0.32780  Biso   1.000  C
  H170     1.0000 0.18930  0.74650  0.30480  Biso   1.000  H
  C247     1.0000 0.13580  0.70490  0.32590  Biso   1.000  C
  C248     1.0000 0.25560  0.87250  0.31430  Biso   1.000  C
  H171     1.0000 0.26200  0.88480  0.28500  Biso   1.000  H
  C249     1.0000 0.21980  0.83880  0.31530  Biso   1.000  C
  H172     1.0000 0.20160  0.82930  0.28630  Biso   1.000  H
  C250     1.0000 0.20950  0.81790  0.35760  Biso   1.000  C
  C251     1.0000 0.23410  0.83570  0.39880  Biso   1.000  C
  H173     1.0000 0.22600  0.82520  0.42820  Biso   1.000  H
  C252     1.0000 0.27090  0.86910  0.39860  Biso   1.000  C
  H174     1.0000 0.28870  0.87890  0.42770  Biso   1.000  H
  C253     1.0000 0.28200  0.88820  0.35640  Biso   1.000  C
  C254     1.0000 0.32260  0.92470  0.35630  Biso   1.000  C
  C255     1.0000 0.16940  0.66790  0.25760  Biso   1.000  C
  H175     1.0000 0.16700  0.63950  0.23700  Biso   1.000  H
  H176     1.0000 0.20160  0.67050  0.27460  Biso   1.000  H
  H177     1.0000 0.16180  0.69700  0.23850  Biso   1.000  H
  C256     1.0000 0.86660  0.53090  0.00468  Biso   1.000  C
  H178     1.0000 0.84420  0.55000  0.98510  Biso   1.000  H
  C257     1.0000 0.86360  0.52860  0.05220  Biso   1.000  C
  H179     1.0000 0.83910  0.54600  0.06370  Biso   1.000  H
  C258     1.0000 0.89430  0.50229  0.08370  Biso   1.000  C
  C259     1.0000 0.92880  0.48190  0.06280  Biso   1.000  C
  H180     1.0000 0.95280  0.46420  0.08200  Biso   1.000  H
  C260     1.0000 0.93120  0.48570  0.01319  Biso   1.000  C
  H181     1.0000 0.95700  0.47160  0.00090  Biso   1.000  H
  C261     1.0000 0.89930  0.45580  0.20900  Biso   1.000  C
  H182     1.0000 0.90730  0.42610  0.22480  Biso   1.000  H
  C262     1.0000 0.90200  0.45930  0.15988  Biso   1.000  C
  H183     1.0000 0.91080  0.43150  0.14380  Biso   1.000  H
  C263     1.0000 0.89285  0.49853  0.13659  Biso   1.000  C
  C264     1.0000 0.87780  0.53640  0.16095  Biso   1.000  C
  H184     1.0000 0.86700  0.56590  0.14610  Biso   1.000  H
  C265     1.0000 0.87950  0.52880  0.20850  Biso   1.000  C
  H185     1.0000 0.87450  0.55730  0.22540  Biso   1.000  H
  N9       1.0000 0.89890  0.50798  0.98509  Biso   1.000  N
  N10      1.0000 0.88600  0.49306  0.23361  Biso   1.000  N
  O49      1.0000 0.94695  0.43641  0.40254  Biso   1.000  O
  O50      1.0000 0.93208  0.43481  0.32220  Biso   1.000  O
  O51      1.0000 0.34692  0.04315  0.39215  Biso   1.000  O
  O52      1.0000 0.33366  0.04469  0.31193  Biso   1.000  O
  O53      1.0000 0.14330  0.15930  0.41750  Biso   1.000  O
  O54      1.0000 0.13300  0.31980  0.29470  Biso   1.000  O
  O55      1.0000 0.93614  0.53973  0.32589  Biso   1.000  O
  O56      1.0000 0.94945  0.54085  0.40606  Biso   1.000  O
  O57      1.0000 0.33005  0.94010  0.31498  Biso   1.000  O
  O58      1.0000 0.34407  0.93912  0.39549  Biso   1.000  O
  O59      1.0000 0.13160  0.82490  0.42010  Biso   1.000  O
  O60      1.0000 0.13680  0.66320  0.29090  Biso   1.000  O
  Zn9      1.0000 0.89794  0.48991  0.41183  Biso   1.000  Zn
  Zn10     1.0000 0.88267  0.48979  0.30555  Biso   1.000  Zn
  C266     1.0000 0.45350  0.92039  0.36360  Biso   1.000  C
  C267     1.0000 0.49210  0.88063  0.36127  Biso   1.000  C
  C268     1.0000 0.51670  0.86180  0.40314  Biso   1.000  C
  H186     1.0000 0.50880  0.87180  0.43270  Biso   1.000  H
  C269     1.0000 0.55280  0.82830  0.40110  Biso   1.000  C
  H187     1.0000 0.57080  0.81720  0.42960  Biso   1.000  H
  C270     1.0000 0.56310  0.81050  0.35690  Biso   1.000  C
  C271     1.0000 0.53790  0.82890  0.31500  Biso   1.000  C
  H188     1.0000 0.54540  0.81820  0.28550  Biso   1.000  H
  C272     1.0000 0.50170  0.86280  0.31615  Biso   1.000  C
  H189     1.0000 0.48380  0.87390  0.28770  Biso   1.000  H
  C273     1.0000 0.60150  0.77440  0.35590  Biso   1.000  C
  C274     1.0000 0.60660  0.73520  0.38650  Biso   1.000  C
  H190     1.0000 0.58540  0.73220  0.40880  Biso   1.000  H
  C275     1.0000 0.64120  0.70050  0.38620  Biso   1.000  C
  C276     1.0000 0.67580  0.70240  0.35710  Biso   1.000  C
  C277     1.0000 0.67250  0.74320  0.32650  Biso   1.000  C
  H191     1.0000 0.69580  0.74730  0.30640  Biso   1.000  H
  C278     1.0000 0.63640  0.77760  0.32460  Biso   1.000  C
  C279     1.0000 0.77890  0.61440  0.39760  Biso   1.000  C
  H192     1.0000 0.79770  0.60470  0.42620  Biso   1.000  H
  C280     1.0000 0.74250  0.64790  0.39830  Biso   1.000  C
  H193     1.0000 0.73610  0.65980  0.42770  Biso   1.000  H
  C281     1.0000 0.71510  0.66430  0.35670  Biso   1.000  C
  C282     1.0000 0.72440  0.64380  0.31390  Biso   1.000  C
  H194     1.0000 0.70610  0.65380  0.28520  Biso   1.000  H
  C283     1.0000 0.75850  0.61070  0.31260  Biso   1.000  C
  H195     1.0000 0.76340  0.59730  0.28310  Biso   1.000  H
  C284     1.0000 0.78730  0.59540  0.35470  Biso   1.000  C
  C285     1.0000 0.82620  0.55794  0.35225  Biso   1.000  C
  C286     1.0000 0.61020  0.65790  0.45780  Biso   1.000  C
  H196     1.0000 0.61570  0.62770  0.47580  Biso   1.000  H
  H197     1.0000 0.57710  0.65950  0.44330  Biso   1.000  H
  H198     1.0000 0.61760  0.68540  0.47910  Biso   1.000  H
  C287     1.0000 0.66830  0.82090  0.26320  Biso   1.000  C
  H199     1.0000 0.66380  0.84980  0.24340  Biso   1.000  H
  H200     1.0000 0.66500  0.79200  0.24310  Biso   1.000  H
  H201     1.0000 0.69990  0.82140  0.28180  Biso   1.000  H
  C288     1.0000 0.45750  0.05533  0.36520  Biso   1.000  C
  C289     1.0000 0.49530  0.09210  0.36430  Biso   1.000  C
  C290     1.0000 0.50370  0.11230  0.32101  Biso   1.000  C
  H202     1.0000 0.48460  0.10230  0.29270  Biso   1.000  H
  C291     1.0000 0.54000  0.14730  0.31800  Biso   1.000  C
  H203     1.0000 0.54630  0.15810  0.28820  Biso   1.000  H
  C292     1.0000 0.56670  0.16610  0.36070  Biso   1.000  C
  C293     1.0000 0.55690  0.14580  0.40460  Biso   1.000  C
  H204     1.0000 0.57490  0.15620  0.43340  Biso   1.000  H
  C294     1.0000 0.52140  0.11130  0.40580  Biso   1.000  C
  H205     1.0000 0.51460  0.10040  0.43550  Biso   1.000  H
  C295     1.0000 0.60210  0.20620  0.35930  Biso   1.000  C
  C296     1.0000 0.60790  0.24100  0.38760  Biso   1.000  C
  H206     1.0000 0.58670  0.24370  0.41000  Biso   1.000  H
  C297     1.0000 0.64370  0.27670  0.38860  Biso   1.000  C
  C298     1.0000 0.67220  0.28220  0.35810  Biso   1.000  C
  C299     1.0000 0.66860  0.24600  0.32780  Biso   1.000  C
  H207     1.0000 0.68930  0.24650  0.30480  Biso   1.000  H
  C300     1.0000 0.63580  0.20490  0.32590  Biso   1.000  C
  C301     1.0000 0.75560  0.37250  0.31430  Biso   1.000  C
  H208     1.0000 0.76200  0.38480  0.28500  Biso   1.000  H
  C302     1.0000 0.71980  0.33880  0.31530  Biso   1.000  C
  H209     1.0000 0.70160  0.32930  0.28630  Biso   1.000  H
  C303     1.0000 0.70950  0.31790  0.35760  Biso   1.000  C
  C304     1.0000 0.73410  0.33570  0.39880  Biso   1.000  C
  H210     1.0000 0.72600  0.32520  0.42820  Biso   1.000  H
  C305     1.0000 0.77090  0.36910  0.39860  Biso   1.000  C
  H211     1.0000 0.78870  0.37890  0.42770  Biso   1.000  H
  C306     1.0000 0.78200  0.38820  0.35640  Biso   1.000  C
  C307     1.0000 0.82260  0.42470  0.35630  Biso   1.000  C
  C308     1.0000 0.66940  0.16790  0.25760  Biso   1.000  C
  H212     1.0000 0.66700  0.13950  0.23700  Biso   1.000  H
  H213     1.0000 0.70160  0.17050  0.27460  Biso   1.000  H
  H214     1.0000 0.66180  0.19700  0.23850  Biso   1.000  H
  C309     1.0000 0.36660  0.03090  0.00468  Biso   1.000  C
  H215     1.0000 0.34420  0.05000  0.98510  Biso   1.000  H
  C310     1.0000 0.36360  0.02860  0.05220  Biso   1.000  C
  H216     1.0000 0.33910  0.04600  0.06370  Biso   1.000  H
  C311     1.0000 0.39430  0.00229  0.08370  Biso   1.000  C
  C312     1.0000 0.42880  0.98190  0.06280  Biso   1.000  C
  H217     1.0000 0.45280  0.96420  0.08200  Biso   1.000  H
  C313     1.0000 0.43120  0.98570  0.01319  Biso   1.000  C
  H218     1.0000 0.45700  0.97160  0.00090  Biso   1.000  H
  C314     1.0000 0.39930  0.95580  0.20900  Biso   1.000  C
  H219     1.0000 0.40730  0.92610  0.22480  Biso   1.000  H
  C315     1.0000 0.40200  0.95930  0.15988  Biso   1.000  C
  H220     1.0000 0.41080  0.93150  0.14380  Biso   1.000  H
  C316     1.0000 0.39285  0.99853  0.13659  Biso   1.000  C
  C317     1.0000 0.37780  0.03640  0.16095  Biso   1.000  C
  H221     1.0000 0.36700  0.06590  0.14610  Biso   1.000  H
  C318     1.0000 0.37950  0.02880  0.20850  Biso   1.000  C
  H222     1.0000 0.37450  0.05730  0.22540  Biso   1.000  H
  N11      1.0000 0.39890  0.00798  0.98509  Biso   1.000  N
  N12      1.0000 0.38600  0.99306  0.23361  Biso   1.000  N
  O61      1.0000 0.44695  0.93641  0.40254  Biso   1.000  O
  O62      1.0000 0.43208  0.93481  0.32220  Biso   1.000  O
  O63      1.0000 0.84692  0.54315  0.39215  Biso   1.000  O
  O64      1.0000 0.83366  0.54469  0.31193  Biso   1.000  O
  O65      1.0000 0.64330  0.65930  0.41750  Biso   1.000  O
  O66      1.0000 0.63300  0.81980  0.29470  Biso   1.000  O
  O67      1.0000 0.43614  0.03973  0.32589  Biso   1.000  O
  O68      1.0000 0.44945  0.04085  0.40606  Biso   1.000  O
  O69      1.0000 0.83005  0.44010  0.31498  Biso   1.000  O
  O70      1.0000 0.84407  0.43912  0.39549  Biso   1.000  O
  O71      1.0000 0.63160  0.32490  0.42010  Biso   1.000  O
  O72      1.0000 0.63680  0.16320  0.29090  Biso   1.000  O
  Zn11     1.0000 0.39794  0.98991  0.41183  Biso   1.000  Zn
  Zn12     1.0000 0.38267  0.98979  0.30555  Biso   1.000  Zn
  C319     1.0000 0.95350  0.57961  0.86360  Biso   1.000  C
  C320     1.0000 0.99210  0.61937  0.86127  Biso   1.000  C
  C321     1.0000 0.01670  0.63820  0.90314  Biso   1.000  C
  H223     1.0000 0.00880  0.62820  0.93270  Biso   1.000  H
  C322     1.0000 0.05280  0.67170  0.90110  Biso   1.000  C
  H224     1.0000 0.07080  0.68280  0.92960  Biso   1.000  H
  C323     1.0000 0.06310  0.68950  0.85690  Biso   1.000  C
  C324     1.0000 0.03790  0.67110  0.81500  Biso   1.000  C
  H225     1.0000 0.04540  0.68180  0.78550  Biso   1.000  H
  C325     1.0000 0.00170  0.63720  0.81615  Biso   1.000  C
  H226     1.0000 0.98380  0.62610  0.78770  Biso   1.000  H
  C326     1.0000 0.10150  0.72560  0.85590  Biso   1.000  C
  C327     1.0000 0.10660  0.76480  0.88650  Biso   1.000  C
  H227     1.0000 0.08540  0.76780  0.90880  Biso   1.000  H
  C328     1.0000 0.14120  0.79950  0.88620  Biso   1.000  C
  C329     1.0000 0.17580  0.79760  0.85710  Biso   1.000  C
  C330     1.0000 0.17250  0.75680  0.82650  Biso   1.000  C
  H228     1.0000 0.19580  0.75270  0.80640  Biso   1.000  H
  C331     1.0000 0.13640  0.72240  0.82460  Biso   1.000  C
  C332     1.0000 0.27890  0.88560  0.89760  Biso   1.000  C
  H229     1.0000 0.29770  0.89530  0.92620  Biso   1.000  H
  C333     1.0000 0.24250  0.85210  0.89830  Biso   1.000  C
  H230     1.0000 0.23610  0.84020  0.92770  Biso   1.000  H
  C334     1.0000 0.21510  0.83570  0.85670  Biso   1.000  C
  C335     1.0000 0.22440  0.85620  0.81390  Biso   1.000  C
  H231     1.0000 0.20610  0.84620  0.78520  Biso   1.000  H
  C336     1.0000 0.25850  0.88930  0.81260  Biso   1.000  C
  H232     1.0000 0.26340  0.90270  0.78310  Biso   1.000  H
  C337     1.0000 0.28730  0.90460  0.85470  Biso   1.000  C
  C338     1.0000 0.32620  0.94206  0.85225  Biso   1.000  C
  C339     1.0000 0.11020  0.84210  0.95780  Biso   1.000  C
  H233     1.0000 0.11570  0.87230  0.97580  Biso   1.000  H
  H234     1.0000 0.07710  0.84050  0.94330  Biso   1.000  H
  H235     1.0000 0.11760  0.81460  0.97910  Biso   1.000  H
  C340     1.0000 0.16830  0.67910  0.76320  Biso   1.000  C
  H236     1.0000 0.16380  0.65020  0.74340  Biso   1.000  H
  H237     1.0000 0.16500  0.70800  0.74310  Biso   1.000  H
  H238     1.0000 0.19990  0.67860  0.78180  Biso   1.000  H
  C341     1.0000 0.95750  0.44467  0.86520  Biso   1.000  C
  C342     1.0000 0.99530  0.40790  0.86430  Biso   1.000  C
  C343     1.0000 0.00370  0.38770  0.82101  Biso   1.000  C
  H239     1.0000 0.98460  0.39770  0.79270  Biso   1.000  H
  C344     1.0000 0.04000  0.35270  0.81800  Biso   1.000  C
  H240     1.0000 0.04630  0.34190  0.78820  Biso   1.000  H
  C345     1.0000 0.06670  0.33390  0.86070  Biso   1.000  C
  C346     1.0000 0.05690  0.35420  0.90460  Biso   1.000  C
  H241     1.0000 0.07490  0.34380  0.93340  Biso   1.000  H
  C347     1.0000 0.02140  0.38870  0.90580  Biso   1.000  C
  H242     1.0000 0.01460  0.39960  0.93550  Biso   1.000  H
  C348     1.0000 0.10210  0.29380  0.85930  Biso   1.000  C
  C349     1.0000 0.10790  0.25900  0.88760  Biso   1.000  C
  H243     1.0000 0.08670  0.25630  0.91000  Biso   1.000  H
  C350     1.0000 0.14370  0.22330  0.88860  Biso   1.000  C
  C351     1.0000 0.17220  0.21780  0.85810  Biso   1.000  C
  C352     1.0000 0.16860  0.25400  0.82780  Biso   1.000  C
  H244     1.0000 0.18930  0.25350  0.80480  Biso   1.000  H
  C353     1.0000 0.13580  0.29510  0.82590  Biso   1.000  C
  C354     1.0000 0.25560  0.12750  0.81430  Biso   1.000  C
  H245     1.0000 0.26200  0.11520  0.78500  Biso   1.000  H
  C355     1.0000 0.21980  0.16120  0.81530  Biso   1.000  C
  H246     1.0000 0.20160  0.17070  0.78630  Biso   1.000  H
  C356     1.0000 0.20950  0.18210  0.85760  Biso   1.000  C
  C357     1.0000 0.23410  0.16430  0.89880  Biso   1.000  C
  H247     1.0000 0.22600  0.17480  0.92820  Biso   1.000  H
  C358     1.0000 0.27090  0.13090  0.89860  Biso   1.000  C
  H248     1.0000 0.28870  0.12110  0.92770  Biso   1.000  H
  C359     1.0000 0.28200  0.11180  0.85640  Biso   1.000  C
  C360     1.0000 0.32260  0.07530  0.85630  Biso   1.000  C
  C361     1.0000 0.16940  0.33210  0.75760  Biso   1.000  C
  H249     1.0000 0.16700  0.36050  0.73700  Biso   1.000  H
  H250     1.0000 0.20160  0.32950  0.77460  Biso   1.000  H
  H251     1.0000 0.16180  0.30300  0.73850  Biso   1.000  H
  C362     1.0000 0.86660  0.46910  0.50468  Biso   1.000  C
  H252     1.0000 0.84420  0.45000  0.48510  Biso   1.000  H
  C363     1.0000 0.86360  0.47140  0.55220  Biso   1.000  C
  H253     1.0000 0.83910  0.45400  0.56370  Biso   1.000  H
  C364     1.0000 0.89430  0.49771  0.58370  Biso   1.000  C
  C365     1.0000 0.92880  0.51810  0.56280  Biso   1.000  C
  H254     1.0000 0.95280  0.53580  0.58200  Biso   1.000  H
  C366     1.0000 0.93120  0.51430  0.51319  Biso   1.000  C
  H255     1.0000 0.95700  0.52840  0.50090  Biso   1.000  H
  C367     1.0000 0.89930  0.54420  0.70900  Biso   1.000  C
  H256     1.0000 0.90730  0.57390  0.72480  Biso   1.000  H
  C368     1.0000 0.90200  0.54070  0.65988  Biso   1.000  C
  H257     1.0000 0.91080  0.56850  0.64380  Biso   1.000  H
  C369     1.0000 0.89285  0.50147  0.63659  Biso   1.000  C
  C370     1.0000 0.87780  0.46360  0.66095  Biso   1.000  C
  H258     1.0000 0.86700  0.43410  0.64610  Biso   1.000  H
  C371     1.0000 0.87950  0.47120  0.70850  Biso   1.000  C
  H259     1.0000 0.87450  0.44270  0.72540  Biso   1.000  H
  N13      1.0000 0.89890  0.49202  0.48509  Biso   1.000  N
  N14      1.0000 0.88600  0.50694  0.73361  Biso   1.000  N
  O73      1.0000 0.94695  0.56359  0.90254  Biso   1.000  O
  O74      1.0000 0.93208  0.56519  0.82220  Biso   1.000  O
  O75      1.0000 0.34692  0.95685  0.89215  Biso   1.000  O
  O76      1.0000 0.33366  0.95531  0.81193  Biso   1.000  O
  O77      1.0000 0.14330  0.84070  0.91750  Biso   1.000  O
  O78      1.0000 0.13300  0.68020  0.79470  Biso   1.000  O
  O79      1.0000 0.93614  0.46027  0.82589  Biso   1.000  O
  O80      1.0000 0.94945  0.45915  0.90606  Biso   1.000  O
  O81      1.0000 0.33005  0.05990  0.81498  Biso   1.000  O
  O82      1.0000 0.34407  0.06088  0.89549  Biso   1.000  O
  O83      1.0000 0.13160  0.17510  0.92010  Biso   1.000  O
  O84      1.0000 0.13680  0.33680  0.79090  Biso   1.000  O
  Zn13     1.0000 0.89794  0.51009  0.91183  Biso   1.000  Zn
  Zn14     1.0000 0.88267  0.51021  0.80554  Biso   1.000  Zn
  C372     1.0000 0.45350  0.07961  0.86360  Biso   1.000  C
  C373     1.0000 0.49210  0.11937  0.86127  Biso   1.000  C
  C374     1.0000 0.51670  0.13820  0.90314  Biso   1.000  C
  H260     1.0000 0.50880  0.12820  0.93270  Biso   1.000  H
  C375     1.0000 0.55280  0.17170  0.90110  Biso   1.000  C
  H261     1.0000 0.57080  0.18280  0.92960  Biso   1.000  H
  C376     1.0000 0.56310  0.18950  0.85690  Biso   1.000  C
  C377     1.0000 0.53790  0.17110  0.81500  Biso   1.000  C
  H262     1.0000 0.54540  0.18180  0.78550  Biso   1.000  H
  C378     1.0000 0.50170  0.13720  0.81615  Biso   1.000  C
  H263     1.0000 0.48380  0.12610  0.78770  Biso   1.000  H
  C379     1.0000 0.60150  0.22560  0.85590  Biso   1.000  C
  C380     1.0000 0.60660  0.26480  0.88650  Biso   1.000  C
  H264     1.0000 0.58540  0.26780  0.90880  Biso   1.000  H
  C381     1.0000 0.64120  0.29950  0.88620  Biso   1.000  C
  C382     1.0000 0.67580  0.29760  0.85710  Biso   1.000  C
  C383     1.0000 0.67250  0.25680  0.82650  Biso   1.000  C
  H265     1.0000 0.69580  0.25270  0.80640  Biso   1.000  H
  C384     1.0000 0.63640  0.22240  0.82460  Biso   1.000  C
  C385     1.0000 0.77890  0.38560  0.89760  Biso   1.000  C
  H266     1.0000 0.79770  0.39530  0.92620  Biso   1.000  H
  C386     1.0000 0.74250  0.35210  0.89830  Biso   1.000  C
  H267     1.0000 0.73610  0.34020  0.92770  Biso   1.000  H
  C387     1.0000 0.71510  0.33570  0.85670  Biso   1.000  C
  C388     1.0000 0.72440  0.35620  0.81390  Biso   1.000  C
  H268     1.0000 0.70610  0.34620  0.78520  Biso   1.000  H
  C389     1.0000 0.75850  0.38930  0.81260  Biso   1.000  C
  H269     1.0000 0.76340  0.40270  0.78310  Biso   1.000  H
  C390     1.0000 0.78730  0.40460  0.85470  Biso   1.000  C
  C391     1.0000 0.82620  0.44206  0.85225  Biso   1.000  C
  C392     1.0000 0.61020  0.34210  0.95780  Biso   1.000  C
  H270     1.0000 0.61570  0.37230  0.97580  Biso   1.000  H
  H271     1.0000 0.57710  0.34050  0.94330  Biso   1.000  H
  H272     1.0000 0.61760  0.31460  0.97910  Biso   1.000  H
  C393     1.0000 0.66830  0.17910  0.76320  Biso   1.000  C
  H273     1.0000 0.66380  0.15020  0.74340  Biso   1.000  H
  H274     1.0000 0.66500  0.20800  0.74310  Biso   1.000  H
  H275     1.0000 0.69990  0.17860  0.78180  Biso   1.000  H
  C394     1.0000 0.45750  0.94467  0.86520  Biso   1.000  C
  C395     1.0000 0.49530  0.90790  0.86430  Biso   1.000  C
  C396     1.0000 0.50370  0.88770  0.82101  Biso   1.000  C
  H276     1.0000 0.48460  0.89770  0.79270  Biso   1.000  H
  C397     1.0000 0.54000  0.85270  0.81800  Biso   1.000  C
  H277     1.0000 0.54630  0.84190  0.78820  Biso   1.000  H
  C398     1.0000 0.56670  0.83390  0.86070  Biso   1.000  C
  C399     1.0000 0.55690  0.85420  0.90460  Biso   1.000  C
  H278     1.0000 0.57490  0.84380  0.93340  Biso   1.000  H
  C400     1.0000 0.52140  0.88870  0.90580  Biso   1.000  C
  H279     1.0000 0.51460  0.89960  0.93550  Biso   1.000  H
  C401     1.0000 0.60210  0.79380  0.85930  Biso   1.000  C
  C402     1.0000 0.60790  0.75900  0.88760  Biso   1.000  C
  H280     1.0000 0.58670  0.75630  0.91000  Biso   1.000  H
  C403     1.0000 0.64370  0.72330  0.88860  Biso   1.000  C
  C404     1.0000 0.67220  0.71780  0.85810  Biso   1.000  C
  C405     1.0000 0.66860  0.75400  0.82780  Biso   1.000  C
  H281     1.0000 0.68930  0.75350  0.80480  Biso   1.000  H
  C406     1.0000 0.63580  0.79510  0.82590  Biso   1.000  C
  C407     1.0000 0.75560  0.62750  0.81430  Biso   1.000  C
  H282     1.0000 0.76200  0.61520  0.78500  Biso   1.000  H
  C408     1.0000 0.71980  0.66120  0.81530  Biso   1.000  C
  H283     1.0000 0.70160  0.67070  0.78630  Biso   1.000  H
  C409     1.0000 0.70950  0.68210  0.85760  Biso   1.000  C
  C410     1.0000 0.73410  0.66430  0.89880  Biso   1.000  C
  H284     1.0000 0.72600  0.67480  0.92820  Biso   1.000  H
  C411     1.0000 0.77090  0.63090  0.89860  Biso   1.000  C
  H285     1.0000 0.78870  0.62110  0.92770  Biso   1.000  H
  C412     1.0000 0.78200  0.61180  0.85640  Biso   1.000  C
  C413     1.0000 0.82260  0.57530  0.85630  Biso   1.000  C
  C414     1.0000 0.66940  0.83210  0.75760  Biso   1.000  C
  H286     1.0000 0.66700  0.86050  0.73700  Biso   1.000  H
  H287     1.0000 0.70160  0.82950  0.77460  Biso   1.000  H
  H288     1.0000 0.66180  0.80300  0.73850  Biso   1.000  H
  C415     1.0000 0.36660  0.96910  0.50468  Biso   1.000  C
  H289     1.0000 0.34420  0.95000  0.48510  Biso   1.000  H
  C416     1.0000 0.36360  0.97140  0.55220  Biso   1.000  C
  H290     1.0000 0.33910  0.95400  0.56370  Biso   1.000  H
  C417     1.0000 0.39430  0.99771  0.58370  Biso   1.000  C
  C418     1.0000 0.42880  0.01810  0.56280  Biso   1.000  C
  H291     1.0000 0.45280  0.03580  0.58200  Biso   1.000  H
  C419     1.0000 0.43120  0.01430  0.51319  Biso   1.000  C
  H292     1.0000 0.45700  0.02840  0.50090  Biso   1.000  H
  C420     1.0000 0.39930  0.04420  0.70900  Biso   1.000  C
  H293     1.0000 0.40730  0.07390  0.72480  Biso   1.000  H
  C421     1.0000 0.40200  0.04070  0.65988  Biso   1.000  C
  H294     1.0000 0.41080  0.06850  0.64380  Biso   1.000  H
  C422     1.0000 0.39285  0.00147  0.63659  Biso   1.000  C
  C423     1.0000 0.37780  0.96360  0.66095  Biso   1.000  C
  H295     1.0000 0.36700  0.93410  0.64610  Biso   1.000  H
  C424     1.0000 0.37950  0.97120  0.70850  Biso   1.000  C
  H296     1.0000 0.37450  0.94270  0.72540  Biso   1.000  H
  N15      1.0000 0.39890  0.99202  0.48509  Biso   1.000  N
  N16      1.0000 0.38600  0.00694  0.73361  Biso   1.000  N
  O85      1.0000 0.44695  0.06359  0.90254  Biso   1.000  O
  O86      1.0000 0.43208  0.06519  0.82220  Biso   1.000  O
  O87      1.0000 0.84692  0.45685  0.89215  Biso   1.000  O
  O88      1.0000 0.83366  0.45531  0.81193  Biso   1.000  O
  O89      1.0000 0.64330  0.34070  0.91750  Biso   1.000  O
  O90      1.0000 0.63300  0.18020  0.79470  Biso   1.000  O
  O91      1.0000 0.43614  0.96027  0.82589  Biso   1.000  O
  O92      1.0000 0.44945  0.95915  0.90606  Biso   1.000  O
  O93      1.0000 0.83005  0.55990  0.81498  Biso   1.000  O
  O94      1.0000 0.84407  0.56088  0.89549  Biso   1.000  O
  O95      1.0000 0.63160  0.67510  0.92010  Biso   1.000  O
  O96      1.0000 0.63680  0.83680  0.79090  Biso   1.000  O
  Zn15     1.0000 0.39794  0.01009  0.91183  Biso   1.000  Zn
  Zn16     1.0000 0.38267  0.01021  0.80554  Biso   1.000  Zn
