data_image0
_cell_length_a       39.1332
_cell_length_b       27.4503
_cell_length_c       27.3497
_cell_angle_alpha    90
_cell_angle_beta     134.022
_cell_angle_gamma    90

_symmetry_space_group_name_H-M    "P 1"
_symmetry_int_tables_number       1

loop_
  _symmetry_equiv_pos_as_xyz
  'x, y, z'

loop_
  _atom_site_label
  _atom_site_occupancy
  _atom_site_fract_x
  _atom_site_fract_y
  _atom_site_fract_z
  _atom_site_thermal_displace_type
  _atom_site_B_iso_or_equiv
  _atom_site_type_symbol
  C1       1.0000 0.10420  0.82981  0.90560  Biso   1.000  C
  C2       1.0000 0.10493  0.87344  0.87470  Biso   1.000  C
  C3       1.0000 0.06535  0.89770  0.82280  Biso   1.000  C
  H1       1.0000 0.03680  0.88830  0.80880  Biso   1.000  H
  C4       1.0000 0.06460  0.93650  0.78850  Biso   1.000  C
  H2       1.0000 0.03630  0.95220  0.75270  Biso   1.000  H
  C5       1.0000 0.10760  0.95094  0.80980  Biso   1.000  C
  C6       1.0000 0.14840  0.92750  0.86360  Biso   1.000  C
  H3       1.0000 0.17690  0.93730  0.87790  Biso   1.000  H
  C7       1.0000 0.14918  0.88963  0.89790  Biso   1.000  C
  H4       1.0000 0.17770  0.87500  0.93520  Biso   1.000  H
  C8       1.0000 0.10930  0.99100  0.77460  Biso   1.000  C
  C9       1.0000 0.08040  0.03100  0.75250  Biso   1.000  C
  H5       1.0000 0.05980  0.03340  0.75850  Biso   1.000  H
  C10      1.0000 0.08370  0.06790  0.72050  Biso   1.000  C
  C11      1.0000 0.11030  0.06260  0.70250  Biso   1.000  C
  C12      1.0000 0.13370  0.01990  0.71840  Biso   1.000  C
  H6       1.0000 0.15170  0.01530  0.70820  Biso   1.000  H
  C13      1.0000 0.13050  0.98190  0.75110  Biso   1.000  C
  C14      1.0000 0.10710  0.09890  0.65940  Biso   1.000  C
  C15      1.0000 0.06500  0.11850  0.60060  Biso   1.000  C
  H7       1.0000 0.03650  0.10970  0.58700  Biso   1.000  H
  C16      1.0000 0.06470  0.15160  0.56110  Biso   1.000  C
  H8       1.0000 0.03600  0.16410  0.52150  Biso   1.000  H
  C17      1.0000 0.10534  0.16540  0.57950  Biso   1.000  C
  C18      1.0000 0.14870  0.14900  0.64240  Biso   1.000  C
  H9       1.0000 0.17710  0.16150  0.65870  Biso   1.000  H
  C19      1.0000 0.14980  0.11500  0.68000  Biso   1.000  C
  H10      1.0000 0.17870  0.10240  0.71930  Biso   1.000  H
  C20      1.0000 0.10553  0.19911  0.53650  Biso   1.000  C
  C21      1.0000 0.18470  0.93290  0.74980  Biso   1.000  C
  H11      1.0000 0.16450  0.93710  0.70130  Biso   1.000  H
  H12      1.0000 0.21120  0.95540  0.77380  Biso   1.000  H
  C22      1.0000 0.20180  0.88280  0.76980  Biso   1.000  C
  H13      1.0000 0.17600  0.86130  0.75330  Biso   1.000  H
  H14      1.0000 0.22650  0.88030  0.81900  Biso   1.000  H
  C23      1.0000 0.22190  0.86770  0.73890  Biso   1.000  C
  H15      1.0000 0.19580  0.86440  0.69000  Biso   1.000  H
  H16      1.0000 0.24270  0.89330  0.74760  Biso   1.000  H
  C24      1.0000 0.24950  0.81990  0.76830  Biso   1.000  C
  H17      1.0000 0.23620  0.80020  0.78120  Biso   1.000  H
  H18      1.0000 0.28210  0.82720  0.80950  Biso   1.000  H
  C25      1.0000 0.25000  0.78880  0.72130  Biso   1.000  C
  H19      1.0000 0.25790  0.80980  0.70190  Biso   1.000  H
  H20      1.0000 0.27490  0.76450  0.74880  Biso   1.000  H
  C26      1.0000 0.21500  0.76960  0.67820  Biso   1.000  C
  H21      1.0000 0.21810  0.75120  0.65160  Biso   1.000  H
  H22      1.0000 0.19030  0.79340  0.64990  Biso   1.000  H
  H23      1.0000 0.20720  0.74800  0.69690  Biso   1.000  H
  C27      1.0000 0.02010  0.11940  0.70890  Biso   1.000  C
  H24      1.0000 0.03220  0.10890  0.75240  Biso   1.000  H
  H25      1.0000 0.00850  0.15260  0.69890  Biso   1.000  H
  C28      1.0000 0.99210  0.09110  0.66290  Biso   1.000  C
  H26      1.0000 0.97300  0.07620  0.66930  Biso   1.000  H
  H27      1.0000 0.00920  0.06550  0.66290  Biso   1.000  H
  C29      1.0000 0.95760  0.12020  0.59000  Biso   1.000  C
  H28      1.0000 0.95020  0.15040  0.59950  Biso   1.000  H
  H29      1.0000 0.97900  0.12940  0.58500  Biso   1.000  H
  C30      1.0000 0.91930  0.10980  0.53000  Biso   1.000  C
  H30      1.0000 0.89350  0.13030  0.51590  Biso   1.000  H
  H31      1.0000 0.91080  0.07600  0.52710  Biso   1.000  H
  C31      1.0000 0.09906  0.69774  0.87220  Biso   1.000  C
  C32      1.0000 0.09793  0.66507  0.82790  Biso   1.000  C
  C33      1.0000 0.05464  0.65506  0.76200  Biso   1.000  C
  H32      1.0000 0.02700  0.67030  0.74520  Biso   1.000  H
  C34      1.0000 0.05280  0.62210  0.72110  Biso   1.000  C
  H33      1.0000 0.02370  0.61560  0.67740  Biso   1.000  H
  C35      1.0000 0.09240  0.59960  0.74390  Biso   1.000  C
  C36      1.0000 0.13750  0.61220  0.81040  Biso   1.000  C
  H34      1.0000 0.16550  0.59920  0.82580  Biso   1.000  H
  C37      1.0000 0.13860  0.64430  0.85180  Biso   1.000  C
  H35      1.0000 0.16730  0.65130  0.89570  Biso   1.000  H
  C38      1.0000 0.09190  0.56340  0.70360  Biso   1.000  C
  C39      1.0000 0.08180  0.57210  0.64730  Biso   1.000  C
  H36      1.0000 0.07410  0.60400  0.63140  Biso   1.000  H
  C40      1.0000 0.08160  0.53740  0.60850  Biso   1.000  C
  C41      1.0000 0.09370  0.49210  0.63190  Biso   1.000  C
  C42      1.0000 0.12460  0.48040  0.70800  Biso   1.000  C
  H37      1.0000 0.14160  0.45170  0.72930  Biso   1.000  H
  C43      1.0000 0.12340  0.52060  0.74210  Biso   1.000  C
  C44      1.0000 0.05290  0.39610  0.49940  Biso   1.000  C
  H38      1.0000 0.02460  0.38560  0.45730  Biso   1.000  H
  C45      1.0000 0.05290  0.43650  0.53110  Biso   1.000  C
  H39      1.0000 0.02450  0.45290  0.50860  Biso   1.000  H
  C46      1.0000 0.09210  0.45210  0.59190  Biso   1.000  C
  C47      1.0000 0.13480  0.42720  0.62420  Biso   1.000  C
  H40      1.0000 0.16280  0.43770  0.66660  Biso   1.000  H
  C48      1.0000 0.13610  0.38710  0.59400  Biso   1.000  C
  H41      1.0000 0.16450  0.37080  0.61610  Biso   1.000  H
  C49      1.0000 0.09416  0.37244  0.53040  Biso   1.000  C
  C50      1.0000 0.09436  0.32851  0.49780  Biso   1.000  C
  C51      1.0000 0.95055  0.73380  0.83860  Biso   1.000  C
  H42      1.0000 0.96670  0.71650  0.87870  Biso   1.000  H
  C52      1.0000 0.90215  0.73360  0.79220  Biso   1.000  C
  H43      1.0000 0.88620  0.71700  0.80100  Biso   1.000  H
  C53      1.0000 0.87757  0.75808  0.73250  Biso   1.000  C
  C54      1.0000 0.90345  0.78210  0.72300  Biso   1.000  C
  H44      1.0000 0.88780  0.79950  0.68300  Biso   1.000  H
  C55      1.0000 0.95220  0.78070  0.77190  Biso   1.000  C
  H45      1.0000 0.96910  0.79660  0.76420  Biso   1.000  H
  C56      1.0000 0.74910  0.74240  0.63740  Biso   1.000  C
  H46      1.0000 0.73310  0.73000  0.64840  Biso   1.000  H
  C57      1.0000 0.79880  0.74510  0.68860  Biso   1.000  C
  H47      1.0000 0.81380  0.73790  0.73300  Biso   1.000  H
  C58      1.0000 0.82423  0.75660  0.67820  Biso   1.000  C
  C59      1.0000 0.79890  0.77620  0.61690  Biso   1.000  C
  H48      1.0000 0.81450  0.79020  0.60600  Biso   1.000  H
  C60      1.0000 0.74990  0.77610  0.56920  Biso   1.000  C
  N1       1.0000 0.97614  0.75673  0.83120  Biso   1.000  N
  N2       1.0000 0.72511  0.75578  0.57700  Biso   1.000  N
  O1       1.0000 0.14242  0.80817  0.95135  Biso   1.000  O
  O2       1.0000 0.06369  0.81551  0.88030  Biso   1.000  O
  O3       1.0000 0.14412  0.20932  0.55569  Biso   1.000  O
  O4       1.0000 0.06580  0.21261  0.48213  Biso   1.000  O
  O5       1.0000 0.15680  0.94160  0.76860  Biso   1.000  O
  O6       1.0000 0.05520  0.11020  0.70080  Biso   1.000  O
  O7       1.0000 0.06082  0.71564  0.84999  Biso   1.000  O
  O8       1.0000 0.13942  0.70647  0.93061  Biso   1.000  O
  O9       1.0000 0.05563  0.31213  0.44580  Biso   1.000  O
  O10      1.0000 0.13479  0.31047  0.52865  Biso   1.000  O
  O11      1.0000 0.07750  0.54780  0.55960  Biso   1.000  O
  O12      1.0000 0.13810  0.50540  0.80170  Biso   1.000  O
  Zn1      1.0000 0.04852  0.75230  0.90135  Biso   1.000  Zn
  Zn2      1.0000 0.15276  0.74752  0.00449  Biso   1.000  Zn
  C61      1.0000 0.60420  0.32981  0.90560  Biso   1.000  C
  C62      1.0000 0.60493  0.37344  0.87470  Biso   1.000  C
  C63      1.0000 0.56535  0.39770  0.82280  Biso   1.000  C
  H49      1.0000 0.53680  0.38830  0.80880  Biso   1.000  H
  C64      1.0000 0.56460  0.43650  0.78850  Biso   1.000  C
  H50      1.0000 0.53630  0.45220  0.75270  Biso   1.000  H
  C65      1.0000 0.60760  0.45094  0.80980  Biso   1.000  C
  C66      1.0000 0.64840  0.42750  0.86360  Biso   1.000  C
  H51      1.0000 0.67690  0.43730  0.87790  Biso   1.000  H
  C67      1.0000 0.64918  0.38963  0.89790  Biso   1.000  C
  H52      1.0000 0.67770  0.37500  0.93520  Biso   1.000  H
  C68      1.0000 0.60930  0.49100  0.77460  Biso   1.000  C
  C69      1.0000 0.58040  0.53100  0.75250  Biso   1.000  C
  H53      1.0000 0.55980  0.53340  0.75850  Biso   1.000  H
  C70      1.0000 0.58370  0.56790  0.72050  Biso   1.000  C
  C71      1.0000 0.61030  0.56260  0.70250  Biso   1.000  C
  C72      1.0000 0.63370  0.51990  0.71840  Biso   1.000  C
  H54      1.0000 0.65170  0.51530  0.70820  Biso   1.000  H
  C73      1.0000 0.63050  0.48190  0.75110  Biso   1.000  C
  C74      1.0000 0.60710  0.59890  0.65940  Biso   1.000  C
  C75      1.0000 0.56500  0.61850  0.60060  Biso   1.000  C
  H55      1.0000 0.53650  0.60970  0.58700  Biso   1.000  H
  C76      1.0000 0.56470  0.65160  0.56110  Biso   1.000  C
  H56      1.0000 0.53600  0.66410  0.52150  Biso   1.000  H
  C77      1.0000 0.60534  0.66540  0.57950  Biso   1.000  C
  C78      1.0000 0.64870  0.64900  0.64240  Biso   1.000  C
  H57      1.0000 0.67710  0.66150  0.65870  Biso   1.000  H
  C79      1.0000 0.64980  0.61500  0.68000  Biso   1.000  C
  H58      1.0000 0.67870  0.60240  0.71930  Biso   1.000  H
  C80      1.0000 0.60553  0.69911  0.53650  Biso   1.000  C
  C81      1.0000 0.68470  0.43290  0.74980  Biso   1.000  C
  H59      1.0000 0.66450  0.43710  0.70130  Biso   1.000  H
  H60      1.0000 0.71120  0.45540  0.77380  Biso   1.000  H
  C82      1.0000 0.70180  0.38280  0.76980  Biso   1.000  C
  H61      1.0000 0.67600  0.36130  0.75330  Biso   1.000  H
  H62      1.0000 0.72650  0.38030  0.81900  Biso   1.000  H
  C83      1.0000 0.72190  0.36770  0.73890  Biso   1.000  C
  H63      1.0000 0.69580  0.36440  0.69000  Biso   1.000  H
  H64      1.0000 0.74270  0.39330  0.74760  Biso   1.000  H
  C84      1.0000 0.74950  0.31990  0.76830  Biso   1.000  C
  H65      1.0000 0.73620  0.30020  0.78120  Biso   1.000  H
  H66      1.0000 0.78210  0.32720  0.80950  Biso   1.000  H
  C85      1.0000 0.75000  0.28880  0.72130  Biso   1.000  C
  H67      1.0000 0.75790  0.30980  0.70190  Biso   1.000  H
  H68      1.0000 0.77490  0.26450  0.74880  Biso   1.000  H
  C86      1.0000 0.71500  0.26960  0.67820  Biso   1.000  C
  H69      1.0000 0.71810  0.25120  0.65160  Biso   1.000  H
  H70      1.0000 0.69030  0.29340  0.64990  Biso   1.000  H
  H71      1.0000 0.70720  0.24800  0.69690  Biso   1.000  H
  C87      1.0000 0.52010  0.61940  0.70890  Biso   1.000  C
  H72      1.0000 0.53220  0.60890  0.75240  Biso   1.000  H
  H73      1.0000 0.50850  0.65260  0.69890  Biso   1.000  H
  C88      1.0000 0.49210  0.59110  0.66290  Biso   1.000  C
  H74      1.0000 0.47300  0.57620  0.66930  Biso   1.000  H
  H75      1.0000 0.50920  0.56550  0.66290  Biso   1.000  H
  C89      1.0000 0.45760  0.62020  0.59000  Biso   1.000  C
  H76      1.0000 0.45020  0.65040  0.59950  Biso   1.000  H
  H77      1.0000 0.47900  0.62940  0.58500  Biso   1.000  H
  C90      1.0000 0.41930  0.60980  0.53000  Biso   1.000  C
  H78      1.0000 0.39350  0.63030  0.51590  Biso   1.000  H
  H79      1.0000 0.41080  0.57600  0.52710  Biso   1.000  H
  C91      1.0000 0.59906  0.19774  0.87220  Biso   1.000  C
  C92      1.0000 0.59793  0.16507  0.82790  Biso   1.000  C
  C93      1.0000 0.55464  0.15506  0.76200  Biso   1.000  C
  H80      1.0000 0.52700  0.17030  0.74520  Biso   1.000  H
  C94      1.0000 0.55280  0.12210  0.72110  Biso   1.000  C
  H81      1.0000 0.52370  0.11560  0.67740  Biso   1.000  H
  C95      1.0000 0.59240  0.09960  0.74390  Biso   1.000  C
  C96      1.0000 0.63750  0.11220  0.81040  Biso   1.000  C
  H82      1.0000 0.66550  0.09920  0.82580  Biso   1.000  H
  C97      1.0000 0.63860  0.14430  0.85180  Biso   1.000  C
  H83      1.0000 0.66730  0.15130  0.89570  Biso   1.000  H
  C98      1.0000 0.59190  0.06340  0.70360  Biso   1.000  C
  C99      1.0000 0.58180  0.07210  0.64730  Biso   1.000  C
  H84      1.0000 0.57410  0.10400  0.63140  Biso   1.000  H
  C100     1.0000 0.58160  0.03740  0.60850  Biso   1.000  C
  C101     1.0000 0.59370  0.99210  0.63190  Biso   1.000  C
  C102     1.0000 0.62460  0.98040  0.70800  Biso   1.000  C
  H85      1.0000 0.64160  0.95170  0.72930  Biso   1.000  H
  C103     1.0000 0.62340  0.02060  0.74210  Biso   1.000  C
  C104     1.0000 0.55290  0.89610  0.49940  Biso   1.000  C
  H86      1.0000 0.52460  0.88560  0.45730  Biso   1.000  H
  C105     1.0000 0.55290  0.93650  0.53110  Biso   1.000  C
  H87      1.0000 0.52450  0.95290  0.50860  Biso   1.000  H
  C106     1.0000 0.59210  0.95210  0.59190  Biso   1.000  C
  C107     1.0000 0.63480  0.92720  0.62420  Biso   1.000  C
  H88      1.0000 0.66280  0.93770  0.66660  Biso   1.000  H
  C108     1.0000 0.63610  0.88710  0.59400  Biso   1.000  C
  H89      1.0000 0.66450  0.87080  0.61610  Biso   1.000  H
  C109     1.0000 0.59416  0.87244  0.53040  Biso   1.000  C
  C110     1.0000 0.59436  0.82851  0.49780  Biso   1.000  C
  C111     1.0000 0.45055  0.23380  0.83860  Biso   1.000  C
  H90      1.0000 0.46670  0.21650  0.87870  Biso   1.000  H
  C112     1.0000 0.40215  0.23360  0.79220  Biso   1.000  C
  H91      1.0000 0.38620  0.21700  0.80100  Biso   1.000  H
  C113     1.0000 0.37757  0.25808  0.73250  Biso   1.000  C
  C114     1.0000 0.40345  0.28210  0.72300  Biso   1.000  C
  H92      1.0000 0.38780  0.29950  0.68300  Biso   1.000  H
  C115     1.0000 0.45220  0.28070  0.77190  Biso   1.000  C
  H93      1.0000 0.46910  0.29660  0.76420  Biso   1.000  H
  C116     1.0000 0.24910  0.24240  0.63740  Biso   1.000  C
  H94      1.0000 0.23310  0.23000  0.64840  Biso   1.000  H
  C117     1.0000 0.29880  0.24510  0.68860  Biso   1.000  C
  H95      1.0000 0.31380  0.23790  0.73300  Biso   1.000  H
  C118     1.0000 0.32423  0.25660  0.67820  Biso   1.000  C
  C119     1.0000 0.29890  0.27620  0.61690  Biso   1.000  C
  H96      1.0000 0.31450  0.29020  0.60600  Biso   1.000  H
  C120     1.0000 0.24990  0.27610  0.56920  Biso   1.000  C
  N3       1.0000 0.47614  0.25673  0.83120  Biso   1.000  N
  N4       1.0000 0.22511  0.25578  0.57700  Biso   1.000  N
  O13      1.0000 0.64242  0.30817  0.95135  Biso   1.000  O
  O14      1.0000 0.56369  0.31551  0.88030  Biso   1.000  O
  O15      1.0000 0.64412  0.70932  0.55569  Biso   1.000  O
  O16      1.0000 0.56580  0.71261  0.48213  Biso   1.000  O
  O17      1.0000 0.65680  0.44160  0.76860  Biso   1.000  O
  O18      1.0000 0.55520  0.61020  0.70080  Biso   1.000  O
  O19      1.0000 0.56082  0.21564  0.84999  Biso   1.000  O
  O20      1.0000 0.63942  0.20647  0.93061  Biso   1.000  O
  O21      1.0000 0.55563  0.81213  0.44580  Biso   1.000  O
  O22      1.0000 0.63479  0.81047  0.52865  Biso   1.000  O
  O23      1.0000 0.57750  0.04780  0.55960  Biso   1.000  O
  O24      1.0000 0.63810  0.00540  0.80170  Biso   1.000  O
  Zn3      1.0000 0.54852  0.25230  0.90135  Biso   1.000  Zn
  Zn4      1.0000 0.65276  0.24752  0.00449  Biso   1.000  Zn
  C121     1.0000 0.10420  0.17019  0.40560  Biso   1.000  C
  C122     1.0000 0.10493  0.12656  0.37470  Biso   1.000  C
  C123     1.0000 0.06535  0.10230  0.32280  Biso   1.000  C
  H97      1.0000 0.03680  0.11170  0.30880  Biso   1.000  H
  C124     1.0000 0.06460  0.06350  0.28850  Biso   1.000  C
  H98      1.0000 0.03630  0.04780  0.25270  Biso   1.000  H
  C125     1.0000 0.10760  0.04906  0.30980  Biso   1.000  C
  C126     1.0000 0.14840  0.07250  0.36360  Biso   1.000  C
  H99      1.0000 0.17690  0.06270  0.37790  Biso   1.000  H
  C127     1.0000 0.14918  0.11037  0.39790  Biso   1.000  C
  H100     1.0000 0.17770  0.12500  0.43520  Biso   1.000  H
  C128     1.0000 0.10930  0.00900  0.27460  Biso   1.000  C
  C129     1.0000 0.08040  0.96900  0.25250  Biso   1.000  C
  H101     1.0000 0.05980  0.96660  0.25850  Biso   1.000  H
  C130     1.0000 0.08370  0.93210  0.22050  Biso   1.000  C
  C131     1.0000 0.11030  0.93740  0.20250  Biso   1.000  C
  C132     1.0000 0.13370  0.98010  0.21840  Biso   1.000  C
  H102     1.0000 0.15170  0.98470  0.20820  Biso   1.000  H
  C133     1.0000 0.13050  0.01810  0.25110  Biso   1.000  C
  C134     1.0000 0.10710  0.90110  0.15940  Biso   1.000  C
  C135     1.0000 0.06500  0.88150  0.10060  Biso   1.000  C
  H103     1.0000 0.03650  0.89030  0.08700  Biso   1.000  H
  C136     1.0000 0.06470  0.84840  0.06110  Biso   1.000  C
  H104     1.0000 0.03600  0.83590  0.02150  Biso   1.000  H
  C137     1.0000 0.10534  0.83460  0.07950  Biso   1.000  C
  C138     1.0000 0.14870  0.85100  0.14240  Biso   1.000  C
  H105     1.0000 0.17710  0.83850  0.15870  Biso   1.000  H
  C139     1.0000 0.14980  0.88500  0.18000  Biso   1.000  C
  H106     1.0000 0.17870  0.89760  0.21930  Biso   1.000  H
  C140     1.0000 0.10553  0.80089  0.03650  Biso   1.000  C
  C141     1.0000 0.18470  0.06710  0.24980  Biso   1.000  C
  H107     1.0000 0.16450  0.06290  0.20130  Biso   1.000  H
  H108     1.0000 0.21120  0.04460  0.27380  Biso   1.000  H
  C142     1.0000 0.20180  0.11720  0.26980  Biso   1.000  C
  H109     1.0000 0.17600  0.13870  0.25330  Biso   1.000  H
  H110     1.0000 0.22650  0.11970  0.31900  Biso   1.000  H
  C143     1.0000 0.22190  0.13230  0.23890  Biso   1.000  C
  H111     1.0000 0.19580  0.13560  0.19000  Biso   1.000  H
  H112     1.0000 0.24270  0.10670  0.24760  Biso   1.000  H
  C144     1.0000 0.24950  0.18010  0.26830  Biso   1.000  C
  H113     1.0000 0.23620  0.19980  0.28120  Biso   1.000  H
  H114     1.0000 0.28210  0.17280  0.30950  Biso   1.000  H
  C145     1.0000 0.25000  0.21120  0.22130  Biso   1.000  C
  H115     1.0000 0.25790  0.19020  0.20190  Biso   1.000  H
  H116     1.0000 0.27490  0.23550  0.24880  Biso   1.000  H
  C146     1.0000 0.21500  0.23040  0.17820  Biso   1.000  C
  H117     1.0000 0.21810  0.24880  0.15160  Biso   1.000  H
  H118     1.0000 0.19030  0.20660  0.14990  Biso   1.000  H
  H119     1.0000 0.20720  0.25200  0.19690  Biso   1.000  H
  C147     1.0000 0.02010  0.88060  0.20890  Biso   1.000  C
  H120     1.0000 0.03220  0.89110  0.25240  Biso   1.000  H
  H121     1.0000 0.00850  0.84740  0.19890  Biso   1.000  H
  C148     1.0000 0.99210  0.90890  0.16290  Biso   1.000  C
  H122     1.0000 0.97300  0.92380  0.16930  Biso   1.000  H
  H123     1.0000 0.00920  0.93450  0.16290  Biso   1.000  H
  C149     1.0000 0.95760  0.87980  0.09000  Biso   1.000  C
  H124     1.0000 0.95020  0.84960  0.09950  Biso   1.000  H
  H125     1.0000 0.97900  0.87060  0.08500  Biso   1.000  H
  C150     1.0000 0.91930  0.89020  0.03000  Biso   1.000  C
  H126     1.0000 0.89350  0.86970  0.01590  Biso   1.000  H
  H127     1.0000 0.91080  0.92400  0.02710  Biso   1.000  H
  C151     1.0000 0.09906  0.30226  0.37220  Biso   1.000  C
  C152     1.0000 0.09793  0.33493  0.32790  Biso   1.000  C
  C153     1.0000 0.05464  0.34494  0.26200  Biso   1.000  C
  H128     1.0000 0.02700  0.32970  0.24520  Biso   1.000  H
  C154     1.0000 0.05280  0.37790  0.22110  Biso   1.000  C
  H129     1.0000 0.02370  0.38440  0.17740  Biso   1.000  H
  C155     1.0000 0.09240  0.40040  0.24390  Biso   1.000  C
  C156     1.0000 0.13750  0.38780  0.31040  Biso   1.000  C
  H130     1.0000 0.16550  0.40080  0.32580  Biso   1.000  H
  C157     1.0000 0.13860  0.35570  0.35180  Biso   1.000  C
  H131     1.0000 0.16730  0.34870  0.39570  Biso   1.000  H
  C158     1.0000 0.09190  0.43660  0.20360  Biso   1.000  C
  C159     1.0000 0.08180  0.42790  0.14730  Biso   1.000  C
  H132     1.0000 0.07410  0.39600  0.13140  Biso   1.000  H
  C160     1.0000 0.08160  0.46260  0.10850  Biso   1.000  C
  C161     1.0000 0.09370  0.50790  0.13190  Biso   1.000  C
  C162     1.0000 0.12460  0.51960  0.20800  Biso   1.000  C
  H133     1.0000 0.14160  0.54830  0.22930  Biso   1.000  H
  C163     1.0000 0.12340  0.47940  0.24210  Biso   1.000  C
  C164     1.0000 0.05290  0.60390  0.99940  Biso   1.000  C
  H134     1.0000 0.02460  0.61440  0.95730  Biso   1.000  H
  C165     1.0000 0.05290  0.56350  0.03110  Biso   1.000  C
  H135     1.0000 0.02450  0.54710  0.00860  Biso   1.000  H
  C166     1.0000 0.09210  0.54790  0.09190  Biso   1.000  C
  C167     1.0000 0.13480  0.57280  0.12420  Biso   1.000  C
  H136     1.0000 0.16280  0.56230  0.16660  Biso   1.000  H
  C168     1.0000 0.13610  0.61290  0.09400  Biso   1.000  C
  H137     1.0000 0.16450  0.62920  0.11610  Biso   1.000  H
  C169     1.0000 0.09416  0.62756  0.03040  Biso   1.000  C
  C170     1.0000 0.09436  0.67149  0.99780  Biso   1.000  C
  C171     1.0000 0.95055  0.26620  0.33860  Biso   1.000  C
  H138     1.0000 0.96670  0.28350  0.37870  Biso   1.000  H
  C172     1.0000 0.90215  0.26640  0.29220  Biso   1.000  C
  H139     1.0000 0.88620  0.28300  0.30100  Biso   1.000  H
  C173     1.0000 0.87757  0.24192  0.23250  Biso   1.000  C
  C174     1.0000 0.90345  0.21790  0.22300  Biso   1.000  C
  H140     1.0000 0.88780  0.20050  0.18300  Biso   1.000  H
  C175     1.0000 0.95220  0.21930  0.27190  Biso   1.000  C
  H141     1.0000 0.96910  0.20340  0.26420  Biso   1.000  H
  C176     1.0000 0.74910  0.25760  0.13740  Biso   1.000  C
  H142     1.0000 0.73310  0.27000  0.14840  Biso   1.000  H
  C177     1.0000 0.79880  0.25490  0.18860  Biso   1.000  C
  H143     1.0000 0.81380  0.26210  0.23300  Biso   1.000  H
  C178     1.0000 0.82423  0.24340  0.17820  Biso   1.000  C
  C179     1.0000 0.79890  0.22380  0.11690  Biso   1.000  C
  H144     1.0000 0.81450  0.20980  0.10600  Biso   1.000  H
  C180     1.0000 0.74990  0.22390  0.06920  Biso   1.000  C
  N5       1.0000 0.97614  0.24327  0.33120  Biso   1.000  N
  N6       1.0000 0.72511  0.24422  0.07700  Biso   1.000  N
  O25      1.0000 0.14242  0.19183  0.45135  Biso   1.000  O
  O26      1.0000 0.06369  0.18449  0.38030  Biso   1.000  O
  O27      1.0000 0.14412  0.79068  0.05569  Biso   1.000  O
  O28      1.0000 0.06580  0.78739  0.98213  Biso   1.000  O
  O29      1.0000 0.15680  0.05840  0.26860  Biso   1.000  O
  O30      1.0000 0.05520  0.88980  0.20080  Biso   1.000  O
  O31      1.0000 0.06082  0.28436  0.34999  Biso   1.000  O
  O32      1.0000 0.13942  0.29353  0.43061  Biso   1.000  O
  O33      1.0000 0.05563  0.68787  0.94580  Biso   1.000  O
  O34      1.0000 0.13479  0.68953  0.02865  Biso   1.000  O
  O35      1.0000 0.07750  0.45220  0.05960  Biso   1.000  O
  O36      1.0000 0.13810  0.49460  0.30170  Biso   1.000  O
  Zn5      1.0000 0.04852  0.24770  0.40135  Biso   1.000  Zn
  Zn6      1.0000 0.15276  0.25248  0.50449  Biso   1.000  Zn
  C181     1.0000 0.60420  0.67019  0.40560  Biso   1.000  C
  C182     1.0000 0.60493  0.62656  0.37470  Biso   1.000  C
  C183     1.0000 0.56535  0.60230  0.32280  Biso   1.000  C
  H145     1.0000 0.53680  0.61170  0.30880  Biso   1.000  H
  C184     1.0000 0.56460  0.56350  0.28850  Biso   1.000  C
  H146     1.0000 0.53630  0.54780  0.25270  Biso   1.000  H
  C185     1.0000 0.60760  0.54906  0.30980  Biso   1.000  C
  C186     1.0000 0.64840  0.57250  0.36360  Biso   1.000  C
  H147     1.0000 0.67690  0.56270  0.37790  Biso   1.000  H
  C187     1.0000 0.64918  0.61037  0.39790  Biso   1.000  C
  H148     1.0000 0.67770  0.62500  0.43520  Biso   1.000  H
  C188     1.0000 0.60930  0.50900  0.27460  Biso   1.000  C
  C189     1.0000 0.58040  0.46900  0.25250  Biso   1.000  C
  H149     1.0000 0.55980  0.46660  0.25850  Biso   1.000  H
  C190     1.0000 0.58370  0.43210  0.22050  Biso   1.000  C
  C191     1.0000 0.61030  0.43740  0.20250  Biso   1.000  C
  C192     1.0000 0.63370  0.48010  0.21840  Biso   1.000  C
  H150     1.0000 0.65170  0.48470  0.20820  Biso   1.000  H
  C193     1.0000 0.63050  0.51810  0.25110  Biso   1.000  C
  C194     1.0000 0.60710  0.40110  0.15940  Biso   1.000  C
  C195     1.0000 0.56500  0.38150  0.10060  Biso   1.000  C
  H151     1.0000 0.53650  0.39030  0.08700  Biso   1.000  H
  C196     1.0000 0.56470  0.34840  0.06110  Biso   1.000  C
  H152     1.0000 0.53600  0.33590  0.02150  Biso   1.000  H
  C197     1.0000 0.60534  0.33460  0.07950  Biso   1.000  C
  C198     1.0000 0.64870  0.35100  0.14240  Biso   1.000  C
  H153     1.0000 0.67710  0.33850  0.15870  Biso   1.000  H
  C199     1.0000 0.64980  0.38500  0.18000  Biso   1.000  C
  H154     1.0000 0.67870  0.39760  0.21930  Biso   1.000  H
  C200     1.0000 0.60553  0.30089  0.03650  Biso   1.000  C
  C201     1.0000 0.68470  0.56710  0.24980  Biso   1.000  C
  H155     1.0000 0.66450  0.56290  0.20130  Biso   1.000  H
  H156     1.0000 0.71120  0.54460  0.27380  Biso   1.000  H
  C202     1.0000 0.70180  0.61720  0.26980  Biso   1.000  C
  H157     1.0000 0.67600  0.63870  0.25330  Biso   1.000  H
  H158     1.0000 0.72650  0.61970  0.31900  Biso   1.000  H
  C203     1.0000 0.72190  0.63230  0.23890  Biso   1.000  C
  H159     1.0000 0.69580  0.63560  0.19000  Biso   1.000  H
  H160     1.0000 0.74270  0.60670  0.24760  Biso   1.000  H
  C204     1.0000 0.74950  0.68010  0.26830  Biso   1.000  C
  H161     1.0000 0.73620  0.69980  0.28120  Biso   1.000  H
  H162     1.0000 0.78210  0.67280  0.30950  Biso   1.000  H
  C205     1.0000 0.75000  0.71120  0.22130  Biso   1.000  C
  H163     1.0000 0.75790  0.69020  0.20190  Biso   1.000  H
  H164     1.0000 0.77490  0.73550  0.24880  Biso   1.000  H
  C206     1.0000 0.71500  0.73040  0.17820  Biso   1.000  C
  H165     1.0000 0.71810  0.74880  0.15160  Biso   1.000  H
  H166     1.0000 0.69030  0.70660  0.14990  Biso   1.000  H
  H167     1.0000 0.70720  0.75200  0.19690  Biso   1.000  H
  C207     1.0000 0.52010  0.38060  0.20890  Biso   1.000  C
  H168     1.0000 0.53220  0.39110  0.25240  Biso   1.000  H
  H169     1.0000 0.50850  0.34740  0.19890  Biso   1.000  H
  C208     1.0000 0.49210  0.40890  0.16290  Biso   1.000  C
  H170     1.0000 0.47300  0.42380  0.16930  Biso   1.000  H
  H171     1.0000 0.50920  0.43450  0.16290  Biso   1.000  H
  C209     1.0000 0.45760  0.37980  0.09000  Biso   1.000  C
  H172     1.0000 0.45020  0.34960  0.09950  Biso   1.000  H
  H173     1.0000 0.47900  0.37060  0.08500  Biso   1.000  H
  C210     1.0000 0.41930  0.39020  0.03000  Biso   1.000  C
  H174     1.0000 0.39350  0.36970  0.01590  Biso   1.000  H
  H175     1.0000 0.41080  0.42400  0.02710  Biso   1.000  H
  C211     1.0000 0.59906  0.80226  0.37220  Biso   1.000  C
  C212     1.0000 0.59793  0.83493  0.32790  Biso   1.000  C
  C213     1.0000 0.55464  0.84494  0.26200  Biso   1.000  C
  H176     1.0000 0.52700  0.82970  0.24520  Biso   1.000  H
  C214     1.0000 0.55280  0.87790  0.22110  Biso   1.000  C
  H177     1.0000 0.52370  0.88440  0.17740  Biso   1.000  H
  C215     1.0000 0.59240  0.90040  0.24390  Biso   1.000  C
  C216     1.0000 0.63750  0.88780  0.31040  Biso   1.000  C
  H178     1.0000 0.66550  0.90080  0.32580  Biso   1.000  H
  C217     1.0000 0.63860  0.85570  0.35180  Biso   1.000  C
  H179     1.0000 0.66730  0.84870  0.39570  Biso   1.000  H
  C218     1.0000 0.59190  0.93660  0.20360  Biso   1.000  C
  C219     1.0000 0.58180  0.92790  0.14730  Biso   1.000  C
  H180     1.0000 0.57410  0.89600  0.13140  Biso   1.000  H
  C220     1.0000 0.58160  0.96260  0.10850  Biso   1.000  C
  C221     1.0000 0.59370  0.00790  0.13190  Biso   1.000  C
  C222     1.0000 0.62460  0.01960  0.20800  Biso   1.000  C
  H181     1.0000 0.64160  0.04830  0.22930  Biso   1.000  H
  C223     1.0000 0.62340  0.97940  0.24210  Biso   1.000  C
  C224     1.0000 0.55290  0.10390  0.99940  Biso   1.000  C
  H182     1.0000 0.52460  0.11440  0.95730  Biso   1.000  H
  C225     1.0000 0.55290  0.06350  0.03110  Biso   1.000  C
  H183     1.0000 0.52450  0.04710  0.00860  Biso   1.000  H
  C226     1.0000 0.59210  0.04790  0.09190  Biso   1.000  C
  C227     1.0000 0.63480  0.07280  0.12420  Biso   1.000  C
  H184     1.0000 0.66280  0.06230  0.16660  Biso   1.000  H
  C228     1.0000 0.63610  0.11290  0.09400  Biso   1.000  C
  H185     1.0000 0.66450  0.12920  0.11610  Biso   1.000  H
  C229     1.0000 0.59416  0.12756  0.03040  Biso   1.000  C
  C230     1.0000 0.59436  0.17149  0.99780  Biso   1.000  C
  C231     1.0000 0.45055  0.76620  0.33860  Biso   1.000  C
  H186     1.0000 0.46670  0.78350  0.37870  Biso   1.000  H
  C232     1.0000 0.40215  0.76640  0.29220  Biso   1.000  C
  H187     1.0000 0.38620  0.78300  0.30100  Biso   1.000  H
  C233     1.0000 0.37757  0.74192  0.23250  Biso   1.000  C
  C234     1.0000 0.40345  0.71790  0.22300  Biso   1.000  C
  H188     1.0000 0.38780  0.70050  0.18300  Biso   1.000  H
  C235     1.0000 0.45220  0.71930  0.27190  Biso   1.000  C
  H189     1.0000 0.46910  0.70340  0.26420  Biso   1.000  H
  C236     1.0000 0.24910  0.75760  0.13740  Biso   1.000  C
  H190     1.0000 0.23310  0.77000  0.14840  Biso   1.000  H
  C237     1.0000 0.29880  0.75490  0.18860  Biso   1.000  C
  H191     1.0000 0.31380  0.76210  0.23300  Biso   1.000  H
  C238     1.0000 0.32423  0.74340  0.17820  Biso   1.000  C
  C239     1.0000 0.29890  0.72380  0.11690  Biso   1.000  C
  H192     1.0000 0.31450  0.70980  0.10600  Biso   1.000  H
  C240     1.0000 0.24990  0.72390  0.06920  Biso   1.000  C
  N7       1.0000 0.47614  0.74327  0.33120  Biso   1.000  N
  N8       1.0000 0.22511  0.74422  0.07700  Biso   1.000  N
  O37      1.0000 0.64242  0.69183  0.45135  Biso   1.000  O
  O38      1.0000 0.56369  0.68449  0.38030  Biso   1.000  O
  O39      1.0000 0.64412  0.29068  0.05569  Biso   1.000  O
  O40      1.0000 0.56580  0.28739  0.98213  Biso   1.000  O
  O41      1.0000 0.65680  0.55840  0.26860  Biso   1.000  O
  O42      1.0000 0.55520  0.38980  0.20080  Biso   1.000  O
  O43      1.0000 0.56082  0.78436  0.34999  Biso   1.000  O
  O44      1.0000 0.63942  0.79353  0.43061  Biso   1.000  O
  O45      1.0000 0.55563  0.18787  0.94580  Biso   1.000  O
  O46      1.0000 0.63479  0.18953  0.02865  Biso   1.000  O
  O47      1.0000 0.57750  0.95220  0.05960  Biso   1.000  O
  O48      1.0000 0.63810  0.99460  0.30170  Biso   1.000  O
  Zn7      1.0000 0.54852  0.74770  0.40135  Biso   1.000  Zn
  Zn8      1.0000 0.65276  0.75248  0.50449  Biso   1.000  Zn
  C241     1.0000 0.89580  0.82981  0.59440  Biso   1.000  C
  C242     1.0000 0.89507  0.87344  0.62530  Biso   1.000  C
  C243     1.0000 0.93465  0.89770  0.67720  Biso   1.000  C
  H193     1.0000 0.96320  0.88830  0.69120  Biso   1.000  H
  C244     1.0000 0.93540  0.93650  0.71150  Biso   1.000  C
  H194     1.0000 0.96370  0.95220  0.74730  Biso   1.000  H
  C245     1.0000 0.89240  0.95094  0.69020  Biso   1.000  C
  C246     1.0000 0.85160  0.92750  0.63640  Biso   1.000  C
  H195     1.0000 0.82310  0.93730  0.62210  Biso   1.000  H
  C247     1.0000 0.85082  0.88963  0.60210  Biso   1.000  C
  H196     1.0000 0.82230  0.87500  0.56480  Biso   1.000  H
  C248     1.0000 0.89070  0.99100  0.72540  Biso   1.000  C
  C249     1.0000 0.91960  0.03100  0.74750  Biso   1.000  C
  H197     1.0000 0.94020  0.03340  0.74150  Biso   1.000  H
  C250     1.0000 0.91630  0.06790  0.77950  Biso   1.000  C
  C251     1.0000 0.88970  0.06260  0.79750  Biso   1.000  C
  C252     1.0000 0.86630  0.01990  0.78160  Biso   1.000  C
  H198     1.0000 0.84830  0.01530  0.79180  Biso   1.000  H
  C253     1.0000 0.86950  0.98190  0.74890  Biso   1.000  C
  C254     1.0000 0.89290  0.09890  0.84060  Biso   1.000  C
  C255     1.0000 0.93500  0.11850  0.89940  Biso   1.000  C
  H199     1.0000 0.96350  0.10970  0.91300  Biso   1.000  H
  C256     1.0000 0.93530  0.15160  0.93890  Biso   1.000  C
  H200     1.0000 0.96400  0.16410  0.97850  Biso   1.000  H
  C257     1.0000 0.89466  0.16540  0.92050  Biso   1.000  C
  C258     1.0000 0.85130  0.14900  0.85760  Biso   1.000  C
  H201     1.0000 0.82290  0.16150  0.84130  Biso   1.000  H
  C259     1.0000 0.85020  0.11500  0.82000  Biso   1.000  C
  H202     1.0000 0.82130  0.10240  0.78070  Biso   1.000  H
  C260     1.0000 0.89447  0.19911  0.96350  Biso   1.000  C
  C261     1.0000 0.81530  0.93290  0.75020  Biso   1.000  C
  H203     1.0000 0.83550  0.93710  0.79870  Biso   1.000  H
  H204     1.0000 0.78880  0.95540  0.72620  Biso   1.000  H
  C262     1.0000 0.79820  0.88280  0.73020  Biso   1.000  C
  H205     1.0000 0.82400  0.86130  0.74670  Biso   1.000  H
  H206     1.0000 0.77350  0.88030  0.68100  Biso   1.000  H
  C263     1.0000 0.77810  0.86770  0.76110  Biso   1.000  C
  H207     1.0000 0.80420  0.86440  0.81000  Biso   1.000  H
  H208     1.0000 0.75730  0.89330  0.75240  Biso   1.000  H
  C264     1.0000 0.75050  0.81990  0.73170  Biso   1.000  C
  H209     1.0000 0.76380  0.80020  0.71880  Biso   1.000  H
  H210     1.0000 0.71790  0.82720  0.69050  Biso   1.000  H
  C265     1.0000 0.75000  0.78880  0.77870  Biso   1.000  C
  H211     1.0000 0.74210  0.80980  0.79810  Biso   1.000  H
  H212     1.0000 0.72510  0.76450  0.75120  Biso   1.000  H
  C266     1.0000 0.78500  0.76960  0.82180  Biso   1.000  C
  H213     1.0000 0.78190  0.75120  0.84840  Biso   1.000  H
  H214     1.0000 0.80970  0.79340  0.85010  Biso   1.000  H
  H215     1.0000 0.79280  0.74800  0.80310  Biso   1.000  H
  C267     1.0000 0.97990  0.11940  0.79110  Biso   1.000  C
  H216     1.0000 0.96780  0.10890  0.74760  Biso   1.000  H
  H217     1.0000 0.99150  0.15260  0.80110  Biso   1.000  H
  C268     1.0000 0.00790  0.09110  0.83710  Biso   1.000  C
  H218     1.0000 0.02700  0.07620  0.83070  Biso   1.000  H
  H219     1.0000 0.99080  0.06550  0.83710  Biso   1.000  H
  C269     1.0000 0.04240  0.12020  0.91000  Biso   1.000  C
  H220     1.0000 0.04980  0.15040  0.90050  Biso   1.000  H
  H221     1.0000 0.02100  0.12940  0.91500  Biso   1.000  H
  C270     1.0000 0.08070  0.10980  0.97000  Biso   1.000  C
  H222     1.0000 0.10650  0.13030  0.98410  Biso   1.000  H
  H223     1.0000 0.08920  0.07600  0.97290  Biso   1.000  H
  C271     1.0000 0.90094  0.69774  0.62780  Biso   1.000  C
  C272     1.0000 0.90207  0.66507  0.67210  Biso   1.000  C
  C273     1.0000 0.94536  0.65506  0.73800  Biso   1.000  C
  H224     1.0000 0.97300  0.67030  0.75480  Biso   1.000  H
  C274     1.0000 0.94720  0.62210  0.77890  Biso   1.000  C
  H225     1.0000 0.97630  0.61560  0.82260  Biso   1.000  H
  C275     1.0000 0.90760  0.59960  0.75610  Biso   1.000  C
  C276     1.0000 0.86250  0.61220  0.68960  Biso   1.000  C
  H226     1.0000 0.83450  0.59920  0.67420  Biso   1.000  H
  C277     1.0000 0.86140  0.64430  0.64820  Biso   1.000  C
  H227     1.0000 0.83270  0.65130  0.60430  Biso   1.000  H
  C278     1.0000 0.90810  0.56340  0.79640  Biso   1.000  C
  C279     1.0000 0.91820  0.57210  0.85270  Biso   1.000  C
  H228     1.0000 0.92590  0.60400  0.86860  Biso   1.000  H
  C280     1.0000 0.91840  0.53740  0.89150  Biso   1.000  C
  C281     1.0000 0.90630  0.49210  0.86810  Biso   1.000  C
  C282     1.0000 0.87540  0.48040  0.79200  Biso   1.000  C
  H229     1.0000 0.85840  0.45170  0.77070  Biso   1.000  H
  C283     1.0000 0.87660  0.52060  0.75790  Biso   1.000  C
  C284     1.0000 0.94710  0.39610  0.00060  Biso   1.000  C
  H230     1.0000 0.97540  0.38560  0.04270  Biso   1.000  H
  C285     1.0000 0.94710  0.43650  0.96890  Biso   1.000  C
  H231     1.0000 0.97550  0.45290  0.99140  Biso   1.000  H
  C286     1.0000 0.90790  0.45210  0.90810  Biso   1.000  C
  C287     1.0000 0.86520  0.42720  0.87580  Biso   1.000  C
  H232     1.0000 0.83720  0.43770  0.83340  Biso   1.000  H
  C288     1.0000 0.86390  0.38710  0.90600  Biso   1.000  C
  H233     1.0000 0.83550  0.37080  0.88390  Biso   1.000  H
  C289     1.0000 0.90584  0.37244  0.96960  Biso   1.000  C
  C290     1.0000 0.90564  0.32851  0.00220  Biso   1.000  C
  C291     1.0000 0.04945  0.73380  0.66140  Biso   1.000  C
  H234     1.0000 0.03330  0.71650  0.62130  Biso   1.000  H
  C292     1.0000 0.09785  0.73360  0.70780  Biso   1.000  C
  H235     1.0000 0.11380  0.71700  0.69900  Biso   1.000  H
  C293     1.0000 0.12243  0.75808  0.76750  Biso   1.000  C
  C294     1.0000 0.09655  0.78210  0.77700  Biso   1.000  C
  H236     1.0000 0.11220  0.79950  0.81700  Biso   1.000  H
  C295     1.0000 0.04780  0.78070  0.72810  Biso   1.000  C
  H237     1.0000 0.03090  0.79660  0.73580  Biso   1.000  H
  C296     1.0000 0.25090  0.74240  0.86260  Biso   1.000  C
  H238     1.0000 0.26690  0.73000  0.85160  Biso   1.000  H
  C297     1.0000 0.20120  0.74510  0.81140  Biso   1.000  C
  H239     1.0000 0.18620  0.73790  0.76700  Biso   1.000  H
  C298     1.0000 0.17577  0.75660  0.82180  Biso   1.000  C
  C299     1.0000 0.20110  0.77620  0.88310  Biso   1.000  C
  H240     1.0000 0.18550  0.79020  0.89400  Biso   1.000  H
  C300     1.0000 0.25010  0.77610  0.93080  Biso   1.000  C
  N9       1.0000 0.02386  0.75673  0.66880  Biso   1.000  N
  N10      1.0000 0.27489  0.75578  0.92300  Biso   1.000  N
  O49      1.0000 0.85758  0.80817  0.54865  Biso   1.000  O
  O50      1.0000 0.93631  0.81551  0.61970  Biso   1.000  O
  O51      1.0000 0.85588  0.20932  0.94431  Biso   1.000  O
  O52      1.0000 0.93420  0.21261  0.01787  Biso   1.000  O
  O53      1.0000 0.84320  0.94160  0.73140  Biso   1.000  O
  O54      1.0000 0.94480  0.11020  0.79920  Biso   1.000  O
  O55      1.0000 0.93918  0.71564  0.65001  Biso   1.000  O
  O56      1.0000 0.86058  0.70647  0.56939  Biso   1.000  O
  O57      1.0000 0.94437  0.31213  0.05420  Biso   1.000  O
  O58      1.0000 0.86521  0.31047  0.97135  Biso   1.000  O
  O59      1.0000 0.92250  0.54780  0.94040  Biso   1.000  O
  O60      1.0000 0.86190  0.50540  0.69830  Biso   1.000  O
  Zn9      1.0000 0.95148  0.75230  0.59865  Biso   1.000  Zn
  Zn10     1.0000 0.84724  0.74752  0.49551  Biso   1.000  Zn
  C301     1.0000 0.39580  0.32981  0.59440  Biso   1.000  C
  C302     1.0000 0.39507  0.37344  0.62530  Biso   1.000  C
  C303     1.0000 0.43465  0.39770  0.67720  Biso   1.000  C
  H241     1.0000 0.46320  0.38830  0.69120  Biso   1.000  H
  C304     1.0000 0.43540  0.43650  0.71150  Biso   1.000  C
  H242     1.0000 0.46370  0.45220  0.74730  Biso   1.000  H
  C305     1.0000 0.39240  0.45094  0.69020  Biso   1.000  C
  C306     1.0000 0.35160  0.42750  0.63640  Biso   1.000  C
  H243     1.0000 0.32310  0.43730  0.62210  Biso   1.000  H
  C307     1.0000 0.35082  0.38963  0.60210  Biso   1.000  C
  H244     1.0000 0.32230  0.37500  0.56480  Biso   1.000  H
  C308     1.0000 0.39070  0.49100  0.72540  Biso   1.000  C
  C309     1.0000 0.41960  0.53100  0.74750  Biso   1.000  C
  H245     1.0000 0.44020  0.53340  0.74150  Biso   1.000  H
  C310     1.0000 0.41630  0.56790  0.77950  Biso   1.000  C
  C311     1.0000 0.38970  0.56260  0.79750  Biso   1.000  C
  C312     1.0000 0.36630  0.51990  0.78160  Biso   1.000  C
  H246     1.0000 0.34830  0.51530  0.79180  Biso   1.000  H
  C313     1.0000 0.36950  0.48190  0.74890  Biso   1.000  C
  C314     1.0000 0.39290  0.59890  0.84060  Biso   1.000  C
  C315     1.0000 0.43500  0.61850  0.89940  Biso   1.000  C
  H247     1.0000 0.46350  0.60970  0.91300  Biso   1.000  H
  C316     1.0000 0.43530  0.65160  0.93890  Biso   1.000  C
  H248     1.0000 0.46400  0.66410  0.97850  Biso   1.000  H
  C317     1.0000 0.39466  0.66540  0.92050  Biso   1.000  C
  C318     1.0000 0.35130  0.64900  0.85760  Biso   1.000  C
  H249     1.0000 0.32290  0.66150  0.84130  Biso   1.000  H
  C319     1.0000 0.35020  0.61500  0.82000  Biso   1.000  C
  H250     1.0000 0.32130  0.60240  0.78070  Biso   1.000  H
  C320     1.0000 0.39447  0.69911  0.96350  Biso   1.000  C
  C321     1.0000 0.31530  0.43290  0.75020  Biso   1.000  C
  H251     1.0000 0.33550  0.43710  0.79870  Biso   1.000  H
  H252     1.0000 0.28880  0.45540  0.72620  Biso   1.000  H
  C322     1.0000 0.29820  0.38280  0.73020  Biso   1.000  C
  H253     1.0000 0.32400  0.36130  0.74670  Biso   1.000  H
  H254     1.0000 0.27350  0.38030  0.68100  Biso   1.000  H
  C323     1.0000 0.27810  0.36770  0.76110  Biso   1.000  C
  H255     1.0000 0.30420  0.36440  0.81000  Biso   1.000  H
  H256     1.0000 0.25730  0.39330  0.75240  Biso   1.000  H
  C324     1.0000 0.25050  0.31990  0.73170  Biso   1.000  C
  H257     1.0000 0.26380  0.30020  0.71880  Biso   1.000  H
  H258     1.0000 0.21790  0.32720  0.69050  Biso   1.000  H
  C325     1.0000 0.25000  0.28880  0.77870  Biso   1.000  C
  H259     1.0000 0.24210  0.30980  0.79810  Biso   1.000  H
  H260     1.0000 0.22510  0.26450  0.75120  Biso   1.000  H
  C326     1.0000 0.28500  0.26960  0.82180  Biso   1.000  C
  H261     1.0000 0.28190  0.25120  0.84840  Biso   1.000  H
  H262     1.0000 0.30970  0.29340  0.85010  Biso   1.000  H
  H263     1.0000 0.29280  0.24800  0.80310  Biso   1.000  H
  C327     1.0000 0.47990  0.61940  0.79110  Biso   1.000  C
  H264     1.0000 0.46780  0.60890  0.74760  Biso   1.000  H
  H265     1.0000 0.49150  0.65260  0.80110  Biso   1.000  H
  C328     1.0000 0.50790  0.59110  0.83710  Biso   1.000  C
  H266     1.0000 0.52700  0.57620  0.83070  Biso   1.000  H
  H267     1.0000 0.49080  0.56550  0.83710  Biso   1.000  H
  C329     1.0000 0.54240  0.62020  0.91000  Biso   1.000  C
  H268     1.0000 0.54980  0.65040  0.90050  Biso   1.000  H
  H269     1.0000 0.52100  0.62940  0.91500  Biso   1.000  H
  C330     1.0000 0.58070  0.60980  0.97000  Biso   1.000  C
  H270     1.0000 0.60650  0.63030  0.98410  Biso   1.000  H
  H271     1.0000 0.58920  0.57600  0.97290  Biso   1.000  H
  C331     1.0000 0.40094  0.19774  0.62780  Biso   1.000  C
  C332     1.0000 0.40207  0.16507  0.67210  Biso   1.000  C
  C333     1.0000 0.44536  0.15506  0.73800  Biso   1.000  C
  H272     1.0000 0.47300  0.17030  0.75480  Biso   1.000  H
  C334     1.0000 0.44720  0.12210  0.77890  Biso   1.000  C
  H273     1.0000 0.47630  0.11560  0.82260  Biso   1.000  H
  C335     1.0000 0.40760  0.09960  0.75610  Biso   1.000  C
  C336     1.0000 0.36250  0.11220  0.68960  Biso   1.000  C
  H274     1.0000 0.33450  0.09920  0.67420  Biso   1.000  H
  C337     1.0000 0.36140  0.14430  0.64820  Biso   1.000  C
  H275     1.0000 0.33270  0.15130  0.60430  Biso   1.000  H
  C338     1.0000 0.40810  0.06340  0.79640  Biso   1.000  C
  C339     1.0000 0.41820  0.07210  0.85270  Biso   1.000  C
  H276     1.0000 0.42590  0.10400  0.86860  Biso   1.000  H
  C340     1.0000 0.41840  0.03740  0.89150  Biso   1.000  C
  C341     1.0000 0.40630  0.99210  0.86810  Biso   1.000  C
  C342     1.0000 0.37540  0.98040  0.79200  Biso   1.000  C
  H277     1.0000 0.35840  0.95170  0.77070  Biso   1.000  H
  C343     1.0000 0.37660  0.02060  0.75790  Biso   1.000  C
  C344     1.0000 0.44710  0.89610  0.00060  Biso   1.000  C
  H278     1.0000 0.47540  0.88560  0.04270  Biso   1.000  H
  C345     1.0000 0.44710  0.93650  0.96890  Biso   1.000  C
  H279     1.0000 0.47550  0.95290  0.99140  Biso   1.000  H
  C346     1.0000 0.40790  0.95210  0.90810  Biso   1.000  C
  C347     1.0000 0.36520  0.92720  0.87580  Biso   1.000  C
  H280     1.0000 0.33720  0.93770  0.83340  Biso   1.000  H
  C348     1.0000 0.36390  0.88710  0.90600  Biso   1.000  C
  H281     1.0000 0.33550  0.87080  0.88390  Biso   1.000  H
  C349     1.0000 0.40584  0.87244  0.96960  Biso   1.000  C
  C350     1.0000 0.40564  0.82851  0.00220  Biso   1.000  C
  C351     1.0000 0.54945  0.23380  0.66140  Biso   1.000  C
  H282     1.0000 0.53330  0.21650  0.62130  Biso   1.000  H
  C352     1.0000 0.59785  0.23360  0.70780  Biso   1.000  C
  H283     1.0000 0.61380  0.21700  0.69900  Biso   1.000  H
  C353     1.0000 0.62243  0.25808  0.76750  Biso   1.000  C
  C354     1.0000 0.59655  0.28210  0.77700  Biso   1.000  C
  H284     1.0000 0.61220  0.29950  0.81700  Biso   1.000  H
  C355     1.0000 0.54780  0.28070  0.72810  Biso   1.000  C
  H285     1.0000 0.53090  0.29660  0.73580  Biso   1.000  H
  C356     1.0000 0.75090  0.24240  0.86260  Biso   1.000  C
  H286     1.0000 0.76690  0.23000  0.85160  Biso   1.000  H
  C357     1.0000 0.70120  0.24510  0.81140  Biso   1.000  C
  H287     1.0000 0.68620  0.23790  0.76700  Biso   1.000  H
  C358     1.0000 0.67577  0.25660  0.82180  Biso   1.000  C
  C359     1.0000 0.70110  0.27620  0.88310  Biso   1.000  C
  H288     1.0000 0.68550  0.29020  0.89400  Biso   1.000  H
  C360     1.0000 0.75010  0.27610  0.93080  Biso   1.000  C
  N11      1.0000 0.52386  0.25673  0.66880  Biso   1.000  N
  N12      1.0000 0.77489  0.25578  0.92300  Biso   1.000  N
  O61      1.0000 0.35758  0.30817  0.54865  Biso   1.000  O
  O62      1.0000 0.43631  0.31551  0.61970  Biso   1.000  O
  O63      1.0000 0.35588  0.70932  0.94431  Biso   1.000  O
  O64      1.0000 0.43420  0.71261  0.01787  Biso   1.000  O
  O65      1.0000 0.34320  0.44160  0.73140  Biso   1.000  O
  O66      1.0000 0.44480  0.61020  0.79920  Biso   1.000  O
  O67      1.0000 0.43918  0.21564  0.65001  Biso   1.000  O
  O68      1.0000 0.36058  0.20647  0.56939  Biso   1.000  O
  O69      1.0000 0.44437  0.81213  0.05420  Biso   1.000  O
  O70      1.0000 0.36521  0.81047  0.97135  Biso   1.000  O
  O71      1.0000 0.42250  0.04780  0.94040  Biso   1.000  O
  O72      1.0000 0.36190  0.00540  0.69830  Biso   1.000  O
  Zn11     1.0000 0.45148  0.25230  0.59865  Biso   1.000  Zn
  Zn12     1.0000 0.34724  0.24752  0.49551  Biso   1.000  Zn
  C361     1.0000 0.89580  0.17019  0.09440  Biso   1.000  C
  C362     1.0000 0.89507  0.12656  0.12530  Biso   1.000  C
  C363     1.0000 0.93465  0.10230  0.17720  Biso   1.000  C
  H289     1.0000 0.96320  0.11170  0.19120  Biso   1.000  H
  C364     1.0000 0.93540  0.06350  0.21150  Biso   1.000  C
  H290     1.0000 0.96370  0.04780  0.24730  Biso   1.000  H
  C365     1.0000 0.89240  0.04906  0.19020  Biso   1.000  C
  C366     1.0000 0.85160  0.07250  0.13640  Biso   1.000  C
  H291     1.0000 0.82310  0.06270  0.12210  Biso   1.000  H
  C367     1.0000 0.85082  0.11037  0.10210  Biso   1.000  C
  H292     1.0000 0.82230  0.12500  0.06480  Biso   1.000  H
  C368     1.0000 0.89070  0.00900  0.22540  Biso   1.000  C
  C369     1.0000 0.91960  0.96900  0.24750  Biso   1.000  C
  H293     1.0000 0.94020  0.96660  0.24150  Biso   1.000  H
  C370     1.0000 0.91630  0.93210  0.27950  Biso   1.000  C
  C371     1.0000 0.88970  0.93740  0.29750  Biso   1.000  C
  C372     1.0000 0.86630  0.98010  0.28160  Biso   1.000  C
  H294     1.0000 0.84830  0.98470  0.29180  Biso   1.000  H
  C373     1.0000 0.86950  0.01810  0.24890  Biso   1.000  C
  C374     1.0000 0.89290  0.90110  0.34060  Biso   1.000  C
  C375     1.0000 0.93500  0.88150  0.39940  Biso   1.000  C
  H295     1.0000 0.96350  0.89030  0.41300  Biso   1.000  H
  C376     1.0000 0.93530  0.84840  0.43890  Biso   1.000  C
  H296     1.0000 0.96400  0.83590  0.47850  Biso   1.000  H
  C377     1.0000 0.89466  0.83460  0.42050  Biso   1.000  C
  C378     1.0000 0.85130  0.85100  0.35760  Biso   1.000  C
  H297     1.0000 0.82290  0.83850  0.34130  Biso   1.000  H
  C379     1.0000 0.85020  0.88500  0.32000  Biso   1.000  C
  H298     1.0000 0.82130  0.89760  0.28070  Biso   1.000  H
  C380     1.0000 0.89447  0.80089  0.46350  Biso   1.000  C
  C381     1.0000 0.81530  0.06710  0.25020  Biso   1.000  C
  H299     1.0000 0.83550  0.06290  0.29870  Biso   1.000  H
  H300     1.0000 0.78880  0.04460  0.22620  Biso   1.000  H
  C382     1.0000 0.79820  0.11720  0.23020  Biso   1.000  C
  H301     1.0000 0.82400  0.13870  0.24670  Biso   1.000  H
  H302     1.0000 0.77350  0.11970  0.18100  Biso   1.000  H
  C383     1.0000 0.77810  0.13230  0.26110  Biso   1.000  C
  H303     1.0000 0.80420  0.13560  0.31000  Biso   1.000  H
  H304     1.0000 0.75730  0.10670  0.25240  Biso   1.000  H
  C384     1.0000 0.75050  0.18010  0.23170  Biso   1.000  C
  H305     1.0000 0.76380  0.19980  0.21880  Biso   1.000  H
  H306     1.0000 0.71790  0.17280  0.19050  Biso   1.000  H
  C385     1.0000 0.75000  0.21120  0.27870  Biso   1.000  C
  H307     1.0000 0.74210  0.19020  0.29810  Biso   1.000  H
  H308     1.0000 0.72510  0.23550  0.25120  Biso   1.000  H
  C386     1.0000 0.78500  0.23040  0.32180  Biso   1.000  C
  H309     1.0000 0.78190  0.24880  0.34840  Biso   1.000  H
  H310     1.0000 0.80970  0.20660  0.35010  Biso   1.000  H
  H311     1.0000 0.79280  0.25200  0.30310  Biso   1.000  H
  C387     1.0000 0.97990  0.88060  0.29110  Biso   1.000  C
  H312     1.0000 0.96780  0.89110  0.24760  Biso   1.000  H
  H313     1.0000 0.99150  0.84740  0.30110  Biso   1.000  H
  C388     1.0000 0.00790  0.90890  0.33710  Biso   1.000  C
  H314     1.0000 0.02700  0.92380  0.33070  Biso   1.000  H
  H315     1.0000 0.99080  0.93450  0.33710  Biso   1.000  H
  C389     1.0000 0.04240  0.87980  0.41000  Biso   1.000  C
  H316     1.0000 0.04980  0.84960  0.40050  Biso   1.000  H
  H317     1.0000 0.02100  0.87060  0.41500  Biso   1.000  H
  C390     1.0000 0.08070  0.89020  0.47000  Biso   1.000  C
  H318     1.0000 0.10650  0.86970  0.48410  Biso   1.000  H
  H319     1.0000 0.08920  0.92400  0.47290  Biso   1.000  H
  C391     1.0000 0.90094  0.30226  0.12780  Biso   1.000  C
  C392     1.0000 0.90207  0.33493  0.17210  Biso   1.000  C
  C393     1.0000 0.94536  0.34494  0.23800  Biso   1.000  C
  H320     1.0000 0.97300  0.32970  0.25480  Biso   1.000  H
  C394     1.0000 0.94720  0.37790  0.27890  Biso   1.000  C
  H321     1.0000 0.97630  0.38440  0.32260  Biso   1.000  H
  C395     1.0000 0.90760  0.40040  0.25610  Biso   1.000  C
  C396     1.0000 0.86250  0.38780  0.18960  Biso   1.000  C
  H322     1.0000 0.83450  0.40080  0.17420  Biso   1.000  H
  C397     1.0000 0.86140  0.35570  0.14820  Biso   1.000  C
  H323     1.0000 0.83270  0.34870  0.10430  Biso   1.000  H
  C398     1.0000 0.90810  0.43660  0.29640  Biso   1.000  C
  C399     1.0000 0.91820  0.42790  0.35270  Biso   1.000  C
  H324     1.0000 0.92590  0.39600  0.36860  Biso   1.000  H
  C400     1.0000 0.91840  0.46260  0.39150  Biso   1.000  C
  C401     1.0000 0.90630  0.50790  0.36810  Biso   1.000  C
  C402     1.0000 0.87540  0.51960  0.29200  Biso   1.000  C
  H325     1.0000 0.85840  0.54830  0.27070  Biso   1.000  H
  C403     1.0000 0.87660  0.47940  0.25790  Biso   1.000  C
  C404     1.0000 0.94710  0.60390  0.50060  Biso   1.000  C
  H326     1.0000 0.97540  0.61440  0.54270  Biso   1.000  H
  C405     1.0000 0.94710  0.56350  0.46890  Biso   1.000  C
  H327     1.0000 0.97550  0.54710  0.49140  Biso   1.000  H
  C406     1.0000 0.90790  0.54790  0.40810  Biso   1.000  C
  C407     1.0000 0.86520  0.57280  0.37580  Biso   1.000  C
  H328     1.0000 0.83720  0.56230  0.33340  Biso   1.000  H
  C408     1.0000 0.86390  0.61290  0.40600  Biso   1.000  C
  H329     1.0000 0.83550  0.62920  0.38390  Biso   1.000  H
  C409     1.0000 0.90584  0.62756  0.46960  Biso   1.000  C
  C410     1.0000 0.90564  0.67149  0.50220  Biso   1.000  C
  C411     1.0000 0.04945  0.26620  0.16140  Biso   1.000  C
  H330     1.0000 0.03330  0.28350  0.12130  Biso   1.000  H
  C412     1.0000 0.09785  0.26640  0.20780  Biso   1.000  C
  H331     1.0000 0.11380  0.28300  0.19900  Biso   1.000  H
  C413     1.0000 0.12243  0.24192  0.26750  Biso   1.000  C
  C414     1.0000 0.09655  0.21790  0.27700  Biso   1.000  C
  H332     1.0000 0.11220  0.20050  0.31700  Biso   1.000  H
  C415     1.0000 0.04780  0.21930  0.22810  Biso   1.000  C
  H333     1.0000 0.03090  0.20340  0.23580  Biso   1.000  H
  C416     1.0000 0.25090  0.25760  0.36260  Biso   1.000  C
  H334     1.0000 0.26690  0.27000  0.35160  Biso   1.000  H
  C417     1.0000 0.20120  0.25490  0.31140  Biso   1.000  C
  H335     1.0000 0.18620  0.26210  0.26700  Biso   1.000  H
  C418     1.0000 0.17577  0.24340  0.32180  Biso   1.000  C
  C419     1.0000 0.20110  0.22380  0.38310  Biso   1.000  C
  H336     1.0000 0.18550  0.20980  0.39400  Biso   1.000  H
  C420     1.0000 0.25010  0.22390  0.43080  Biso   1.000  C
  N13      1.0000 0.02386  0.24327  0.16880  Biso   1.000  N
  N14      1.0000 0.27489  0.24422  0.42300  Biso   1.000  N
  O73      1.0000 0.85758  0.19183  0.04865  Biso   1.000  O
  O74      1.0000 0.93631  0.18449  0.11970  Biso   1.000  O
  O75      1.0000 0.85588  0.79068  0.44431  Biso   1.000  O
  O76      1.0000 0.93420  0.78739  0.51787  Biso   1.000  O
  O77      1.0000 0.84320  0.05840  0.23140  Biso   1.000  O
  O78      1.0000 0.94480  0.88980  0.29920  Biso   1.000  O
  O79      1.0000 0.93918  0.28436  0.15001  Biso   1.000  O
  O80      1.0000 0.86058  0.29353  0.06939  Biso   1.000  O
  O81      1.0000 0.94437  0.68787  0.55420  Biso   1.000  O
  O82      1.0000 0.86521  0.68953  0.47135  Biso   1.000  O
  O83      1.0000 0.92250  0.45220  0.44040  Biso   1.000  O
  O84      1.0000 0.86190  0.49460  0.19830  Biso   1.000  O
  Zn13     1.0000 0.95148  0.24770  0.09865  Biso   1.000  Zn
  Zn14     1.0000 0.84724  0.25248  0.99551  Biso   1.000  Zn
  C421     1.0000 0.39580  0.67019  0.09440  Biso   1.000  C
  C422     1.0000 0.39507  0.62656  0.12530  Biso   1.000  C
  C423     1.0000 0.43465  0.60230  0.17720  Biso   1.000  C
  H337     1.0000 0.46320  0.61170  0.19120  Biso   1.000  H
  C424     1.0000 0.43540  0.56350  0.21150  Biso   1.000  C
  H338     1.0000 0.46370  0.54780  0.24730  Biso   1.000  H
  C425     1.0000 0.39240  0.54906  0.19020  Biso   1.000  C
  C426     1.0000 0.35160  0.57250  0.13640  Biso   1.000  C
  H339     1.0000 0.32310  0.56270  0.12210  Biso   1.000  H
  C427     1.0000 0.35082  0.61037  0.10210  Biso   1.000  C
  H340     1.0000 0.32230  0.62500  0.06480  Biso   1.000  H
  C428     1.0000 0.39070  0.50900  0.22540  Biso   1.000  C
  C429     1.0000 0.41960  0.46900  0.24750  Biso   1.000  C
  H341     1.0000 0.44020  0.46660  0.24150  Biso   1.000  H
  C430     1.0000 0.41630  0.43210  0.27950  Biso   1.000  C
  C431     1.0000 0.38970  0.43740  0.29750  Biso   1.000  C
  C432     1.0000 0.36630  0.48010  0.28160  Biso   1.000  C
  H342     1.0000 0.34830  0.48470  0.29180  Biso   1.000  H
  C433     1.0000 0.36950  0.51810  0.24890  Biso   1.000  C
  C434     1.0000 0.39290  0.40110  0.34060  Biso   1.000  C
  C435     1.0000 0.43500  0.38150  0.39940  Biso   1.000  C
  H343     1.0000 0.46350  0.39030  0.41300  Biso   1.000  H
  C436     1.0000 0.43530  0.34840  0.43890  Biso   1.000  C
  H344     1.0000 0.46400  0.33590  0.47850  Biso   1.000  H
  C437     1.0000 0.39466  0.33460  0.42050  Biso   1.000  C
  C438     1.0000 0.35130  0.35100  0.35760  Biso   1.000  C
  H345     1.0000 0.32290  0.33850  0.34130  Biso   1.000  H
  C439     1.0000 0.35020  0.38500  0.32000  Biso   1.000  C
  H346     1.0000 0.32130  0.39760  0.28070  Biso   1.000  H
  C440     1.0000 0.39447  0.30089  0.46350  Biso   1.000  C
  C441     1.0000 0.31530  0.56710  0.25020  Biso   1.000  C
  H347     1.0000 0.33550  0.56290  0.29870  Biso   1.000  H
  H348     1.0000 0.28880  0.54460  0.22620  Biso   1.000  H
  C442     1.0000 0.29820  0.61720  0.23020  Biso   1.000  C
  H349     1.0000 0.32400  0.63870  0.24670  Biso   1.000  H
  H350     1.0000 0.27350  0.61970  0.18100  Biso   1.000  H
  C443     1.0000 0.27810  0.63230  0.26110  Biso   1.000  C
  H351     1.0000 0.30420  0.63560  0.31000  Biso   1.000  H
  H352     1.0000 0.25730  0.60670  0.25240  Biso   1.000  H
  C444     1.0000 0.25050  0.68010  0.23170  Biso   1.000  C
  H353     1.0000 0.26380  0.69980  0.21880  Biso   1.000  H
  H354     1.0000 0.21790  0.67280  0.19050  Biso   1.000  H
  C445     1.0000 0.25000  0.71120  0.27870  Biso   1.000  C
  H355     1.0000 0.24210  0.69020  0.29810  Biso   1.000  H
  H356     1.0000 0.22510  0.73550  0.25120  Biso   1.000  H
  C446     1.0000 0.28500  0.73040  0.32180  Biso   1.000  C
  H357     1.0000 0.28190  0.74880  0.34840  Biso   1.000  H
  H358     1.0000 0.30970  0.70660  0.35010  Biso   1.000  H
  H359     1.0000 0.29280  0.75200  0.30310  Biso   1.000  H
  C447     1.0000 0.47990  0.38060  0.29110  Biso   1.000  C
  H360     1.0000 0.46780  0.39110  0.24760  Biso   1.000  H
  H361     1.0000 0.49150  0.34740  0.30110  Biso   1.000  H
  C448     1.0000 0.50790  0.40890  0.33710  Biso   1.000  C
  H362     1.0000 0.52700  0.42380  0.33070  Biso   1.000  H
  H363     1.0000 0.49080  0.43450  0.33710  Biso   1.000  H
  C449     1.0000 0.54240  0.37980  0.41000  Biso   1.000  C
  H364     1.0000 0.54980  0.34960  0.40050  Biso   1.000  H
  H365     1.0000 0.52100  0.37060  0.41500  Biso   1.000  H
  C450     1.0000 0.58070  0.39020  0.47000  Biso   1.000  C
  H366     1.0000 0.60650  0.36970  0.48410  Biso   1.000  H
  H367     1.0000 0.58920  0.42400  0.47290  Biso   1.000  H
  C451     1.0000 0.40094  0.80226  0.12780  Biso   1.000  C
  C452     1.0000 0.40207  0.83493  0.17210  Biso   1.000  C
  C453     1.0000 0.44536  0.84494  0.23800  Biso   1.000  C
  H368     1.0000 0.47300  0.82970  0.25480  Biso   1.000  H
  C454     1.0000 0.44720  0.87790  0.27890  Biso   1.000  C
  H369     1.0000 0.47630  0.88440  0.32260  Biso   1.000  H
  C455     1.0000 0.40760  0.90040  0.25610  Biso   1.000  C
  C456     1.0000 0.36250  0.88780  0.18960  Biso   1.000  C
  H370     1.0000 0.33450  0.90080  0.17420  Biso   1.000  H
  C457     1.0000 0.36140  0.85570  0.14820  Biso   1.000  C
  H371     1.0000 0.33270  0.84870  0.10430  Biso   1.000  H
  C458     1.0000 0.40810  0.93660  0.29640  Biso   1.000  C
  C459     1.0000 0.41820  0.92790  0.35270  Biso   1.000  C
  H372     1.0000 0.42590  0.89600  0.36860  Biso   1.000  H
  C460     1.0000 0.41840  0.96260  0.39150  Biso   1.000  C
  C461     1.0000 0.40630  0.00790  0.36810  Biso   1.000  C
  C462     1.0000 0.37540  0.01960  0.29200  Biso   1.000  C
  H373     1.0000 0.35840  0.04830  0.27070  Biso   1.000  H
  C463     1.0000 0.37660  0.97940  0.25790  Biso   1.000  C
  C464     1.0000 0.44710  0.10390  0.50060  Biso   1.000  C
  H374     1.0000 0.47540  0.11440  0.54270  Biso   1.000  H
  C465     1.0000 0.44710  0.06350  0.46890  Biso   1.000  C
  H375     1.0000 0.47550  0.04710  0.49140  Biso   1.000  H
  C466     1.0000 0.40790  0.04790  0.40810  Biso   1.000  C
  C467     1.0000 0.36520  0.07280  0.37580  Biso   1.000  C
  H376     1.0000 0.33720  0.06230  0.33340  Biso   1.000  H
  C468     1.0000 0.36390  0.11290  0.40600  Biso   1.000  C
  H377     1.0000 0.33550  0.12920  0.38390  Biso   1.000  H
  C469     1.0000 0.40584  0.12756  0.46960  Biso   1.000  C
  C470     1.0000 0.40564  0.17149  0.50220  Biso   1.000  C
  C471     1.0000 0.54945  0.76620  0.16140  Biso   1.000  C
  H378     1.0000 0.53330  0.78350  0.12130  Biso   1.000  H
  C472     1.0000 0.59785  0.76640  0.20780  Biso   1.000  C
  H379     1.0000 0.61380  0.78300  0.19900  Biso   1.000  H
  C473     1.0000 0.62243  0.74192  0.26750  Biso   1.000  C
  C474     1.0000 0.59655  0.71790  0.27700  Biso   1.000  C
  H380     1.0000 0.61220  0.70050  0.31700  Biso   1.000  H
  C475     1.0000 0.54780  0.71930  0.22810  Biso   1.000  C
  H381     1.0000 0.53090  0.70340  0.23580  Biso   1.000  H
  C476     1.0000 0.75090  0.75760  0.36260  Biso   1.000  C
  H382     1.0000 0.76690  0.77000  0.35160  Biso   1.000  H
  C477     1.0000 0.70120  0.75490  0.31140  Biso   1.000  C
  H383     1.0000 0.68620  0.76210  0.26700  Biso   1.000  H
  C478     1.0000 0.67577  0.74340  0.32180  Biso   1.000  C
  C479     1.0000 0.70110  0.72380  0.38310  Biso   1.000  C
  H384     1.0000 0.68550  0.70980  0.39400  Biso   1.000  H
  C480     1.0000 0.75010  0.72390  0.43080  Biso   1.000  C
  N15      1.0000 0.52386  0.74327  0.16880  Biso   1.000  N
  N16      1.0000 0.77489  0.74422  0.42300  Biso   1.000  N
  O85      1.0000 0.35758  0.69183  0.04865  Biso   1.000  O
  O86      1.0000 0.43631  0.68449  0.11970  Biso   1.000  O
  O87      1.0000 0.35588  0.29068  0.44431  Biso   1.000  O
  O88      1.0000 0.43420  0.28739  0.51787  Biso   1.000  O
  O89      1.0000 0.34320  0.55840  0.23140  Biso   1.000  O
  O90      1.0000 0.44480  0.38980  0.29920  Biso   1.000  O
  O91      1.0000 0.43918  0.78436  0.15001  Biso   1.000  O
  O92      1.0000 0.36058  0.79353  0.06939  Biso   1.000  O
  O93      1.0000 0.44437  0.18787  0.55420  Biso   1.000  O
  O94      1.0000 0.36521  0.18953  0.47135  Biso   1.000  O
  O95      1.0000 0.42250  0.95220  0.44040  Biso   1.000  O
  O96      1.0000 0.36190  0.99460  0.19830  Biso   1.000  O
  Zn15     1.0000 0.45148  0.74770  0.09865  Biso   1.000  Zn
  Zn16     1.0000 0.34724  0.75248  0.99551  Biso   1.000  Zn
