data_ic5b00096
_audit_creation_date              2015-10-12
_audit_creation_method            'Materials Studio'
_symmetry_space_group_name_H-M    'P1'
_symmetry_Int_Tables_number       1
_symmetry_cell_setting            triclinic
loop_
_symmetry_equiv_pos_as_xyz
  x,y,z
_cell_length_a                    26.5200
_cell_length_b                    26.5200
_cell_length_c                    26.5200
_cell_angle_alpha                 90.0000
_cell_angle_beta                  90.0000
_cell_angle_gamma                 90.0000
loop_
_atom_site_label
_atom_site_type_symbol
_atom_site_fract_x
_atom_site_fract_y
_atom_site_fract_z
_atom_site_U_iso_or_equiv
_atom_site_adp_type
_atom_site_occupancy
O1     O     0.12951   0.06887   0.99859   0.00000  Uiso   1.00
O2     O     0.86997   0.06780   0.00229   0.00000  Uiso   1.00
O3     O     0.00084   0.13003   0.93206   0.00000  Uiso   1.00
O4     O     0.99736   0.12957   0.06867   0.00000  Uiso   1.00
O5     O     0.99852   0.06794   0.13001   0.00000  Uiso   1.00
O6     O     0.00192   0.06869   0.87045   0.00000  Uiso   1.00
O7     O     0.93120   0.12953   0.00172   0.00000  Uiso   1.00
O8     O     0.06777   0.13011   0.99810   0.00000  Uiso   1.00
Zr9    Zr    0.99963   0.08878   0.00021   0.00000  Uiso   1.00
O10    O     0.95416   0.04547   0.04594   0.00000  Uiso   1.00
O11    O     0.04559   0.04610   0.95437   0.00000  Uiso   1.00
X12    C     0.11454   0.11550   0.99748   0.00000  Uiso   1.00
X13    C     0.88457   0.11457   0.00289   0.00000  Uiso   1.00
X14    C     0.00221   0.11537   0.88534   0.00000  Uiso   1.00
X15    C     0.99702   0.11466   0.11535   0.00000  Uiso   1.00
H16    H     0.93262   0.06695   0.93313   0.00000  Uiso   1.00
O17    O     0.95425   0.04548   0.95460   0.00000  Uiso   1.00
H18    H     0.06687   0.06726   0.06723   0.00000  Uiso   1.00
O19    O     0.04542   0.04569   0.04567   0.00000  Uiso   1.00
O20    O     0.87055   0.93122   0.99875   0.00000  Uiso   1.00
O21    O     0.13019   0.93237   0.00137   0.00000  Uiso   1.00
O22    O     0.93177   0.99879   0.87026   0.00000  Uiso   1.00
O23    O     0.93189   0.00099   0.12991   0.00000  Uiso   1.00
O24    O     0.06849   0.99763   0.12971   0.00000  Uiso   1.00
O25    O     0.06833   0.00262   0.87024   0.00000  Uiso   1.00
O26    O     0.99930   0.87035   0.93153   0.00000  Uiso   1.00
O27    O     0.00267   0.87009   0.06812   0.00000  Uiso   1.00
O28    O     0.99811   0.93197   0.87017   0.00000  Uiso   1.00
O29    O     0.00178   0.93146   0.12970   0.00000  Uiso   1.00
O30    O     0.87030   0.99749   0.93176   0.00000  Uiso   1.00
O31    O     0.12981   0.00218   0.93173   0.00000  Uiso   1.00
O32    O     0.12992   0.99892   0.06820   0.00000  Uiso   1.00
O33    O     0.87036   0.00161   0.06849   0.00000  Uiso   1.00
O34    O     0.93229   0.86998   0.99768   0.00000  Uiso   1.00
O35    O     0.06900   0.87059   0.00199   0.00000  Uiso   1.00
Zr36   Zr    0.91130   0.99967   0.00013   0.00000  Uiso   1.00
Zr37   Zr    0.08878   0.00042  -0.00001   0.00000  Uiso   1.00
Zr38   Zr    0.00004   0.00026   0.91129   0.00000  Uiso   1.00
Zr39   Zr    0.00013   0.99978   0.08878   0.00000  Uiso   1.00
Zr40   Zr    0.00048   0.91126   0.99988   0.00000  Uiso   1.00
O41    O     0.04607   0.95436   0.04568   0.00000  Uiso   1.00
O42    O     0.95453   0.95422   0.95426   0.00000  Uiso   1.00
X43    C     0.88551   0.88459   0.99733   0.00000  Uiso   1.00
X44    C     0.11563   0.88561   0.00255   0.00000  Uiso   1.00
X45    C     0.88508   0.99725   0.88503   0.00000  Uiso   1.00
X46    C     0.88519   0.00214   0.11518   0.00000  Uiso   1.00
X47    C     0.11519   0.99739   0.11488   0.00000  Uiso   1.00
X48    C     0.11503   0.00333   0.88505   0.00000  Uiso   1.00
X49    C     0.99786   0.88521   0.88487   0.00000  Uiso   1.00
X50    C     0.00313   0.88480   0.11485   0.00000  Uiso   1.00
H51    H     0.06739   0.93337   0.93277   0.00000  Uiso   1.00
O52    O     0.04579   0.95476   0.95435   0.00000  Uiso   1.00
H53    H     0.93329   0.93250   0.06702   0.00000  Uiso   1.00
O54    O     0.95472   0.95415   0.04553   0.00000  Uiso   1.00
O55    O     0.63032   0.56737   0.99910   0.00000  Uiso   1.00
O56    O     0.37065   0.56902   0.00132   0.00000  Uiso   1.00
O57    O     0.50294   0.63007   0.93216   0.00000  Uiso   1.00
O58    O     0.49947   0.62957   0.06871   0.00000  Uiso   1.00
O59    O     0.49791   0.56787   0.12995   0.00000  Uiso   1.00
O60    O     0.50200   0.56881   0.87048   0.00000  Uiso   1.00
O61    O     0.43247   0.63017   0.00249   0.00000  Uiso   1.00
O62    O     0.56922   0.62924   0.99828   0.00000  Uiso   1.00
Zr63   Zr    0.50061   0.58876   0.00031   0.00000  Uiso   1.00
O64    O     0.45451   0.54586   0.04583   0.00000  Uiso   1.00
O65    O     0.54619   0.54561   0.95457   0.00000  Uiso   1.00
X66    C     0.61583   0.61416   0.99779   0.00000  Uiso   1.00
X67    C     0.38566   0.61562   0.00277   0.00000  Uiso   1.00
X68    C     0.50341   0.61543   0.88540   0.00000  Uiso   1.00
X69    C     0.49787   0.61464   0.11534   0.00000  Uiso   1.00
H70    H     0.43344   0.56776   0.93308   0.00000  Uiso   1.00
O71    O     0.45482   0.54604   0.95456   0.00000  Uiso   1.00
H72    H     0.56743   0.56641   0.06745   0.00000  Uiso   1.00
O73    O     0.54580   0.54509   0.04582   0.00000  Uiso   1.00
O74    O     0.36971   0.43257   0.99828   0.00000  Uiso   1.00
O75    O     0.62923   0.43074   0.00231   0.00000  Uiso   1.00
O76    O     0.43199   0.49939   0.87007   0.00000  Uiso   1.00
O77    O     0.43162   0.50112   0.12974   0.00000  Uiso   1.00
O78    O     0.56801   0.49784   0.12998   0.00000  Uiso   1.00
O79    O     0.56867   0.50258   0.87050   0.00000  Uiso   1.00
O80    O     0.49707   0.37063   0.93099   0.00000  Uiso   1.00
O81    O     0.50045   0.36984   0.06762   0.00000  Uiso   1.00
O82    O     0.49853   0.43239   0.86981   0.00000  Uiso   1.00
O83    O     0.50175   0.43108   0.12935   0.00000  Uiso   1.00
O84    O     0.37042   0.49867   0.93147   0.00000  Uiso   1.00
O85    O     0.63003   0.50079   0.93208   0.00000  Uiso   1.00
O86    O     0.62960   0.49674   0.06864   0.00000  Uiso   1.00
O87    O     0.37022   0.50277   0.06820   0.00000  Uiso   1.00
O88    O     0.43080   0.37073   0.99709   0.00000  Uiso   1.00
O89    O     0.56737   0.36965   0.00092   0.00000  Uiso   1.00
Zr90   Zr    0.41128   0.50054   0.99987   0.00000  Uiso   1.00
Zr91   Zr    0.58877   0.49935   0.00025   0.00000  Uiso   1.00
Zr92   Zr    0.50021   0.50043   0.91126   0.00000  Uiso   1.00
Zr93   Zr    0.49988   0.49964   0.08872   0.00000  Uiso   1.00
Zr94   Zr    0.49938   0.41124   0.99952   0.00000  Uiso   1.00
O95    O     0.54532   0.45370   0.04562   0.00000  Uiso   1.00
O96    O     0.45404   0.45478   0.95392   0.00000  Uiso   1.00
X97    C     0.38419   0.38580   0.99673   0.00000  Uiso   1.00
X98    C     0.61415   0.38413   0.00254   0.00000  Uiso   1.00
X99    C     0.38527   0.49823   0.88478   0.00000  Uiso   1.00
X100   C     0.38496   0.50282   0.11494   0.00000  Uiso   1.00
X101   C     0.61472   0.49630   0.11531   0.00000  Uiso   1.00
X102   C     0.61535   0.50260   0.88537   0.00000  Uiso   1.00
X103   C     0.49685   0.38565   0.88436   0.00000  Uiso   1.00
X104   C     0.50191   0.38442   0.11437   0.00000  Uiso   1.00
H105   H     0.56682   0.43277   0.93273   0.00000  Uiso   1.00
O106   O     0.54538   0.45433   0.95431   0.00000  Uiso   1.00
H107   H     0.43242   0.43303   0.06669   0.00000  Uiso   1.00
O108   O     0.45410   0.45452   0.04528   0.00000  Uiso   1.00
O109   O     0.13001   0.56794   0.49788   0.00000  Uiso   1.00
O110   O     0.87047   0.56871   0.50199   0.00000  Uiso   1.00
O111   O     0.00271   0.62956   0.43131   0.00000  Uiso   1.00
O112   O     0.99888   0.63001   0.56788   0.00000  Uiso   1.00
O113   O     0.99789   0.56870   0.62952   0.00000  Uiso   1.00
O114   O     0.00169   0.56795   0.36998   0.00000  Uiso   1.00
O115   O     0.93215   0.63001   0.50108   0.00000  Uiso   1.00
O116   O     0.06868   0.62958   0.49831   0.00000  Uiso   1.00
Zr117  Zr    0.00030   0.58874   0.49973   0.00000  Uiso   1.00
O118   O     0.95436   0.54600   0.54554   0.00000  Uiso   1.00
O119   O     0.04592   0.54551   0.45411   0.00000  Uiso   1.00
X120   C     0.11533   0.61469   0.49723   0.00000  Uiso   1.00
X121   C     0.88542   0.61538   0.50243   0.00000  Uiso   1.00
X122   C     0.00311   0.61466   0.38465   0.00000  Uiso   1.00
X123   C     0.99753   0.61537   0.61461   0.00000  Uiso   1.00
H124   H     0.93308   0.56714   0.43274   0.00000  Uiso   1.00
O125   O     0.95455   0.54560   0.45430   0.00000  Uiso   1.00
H126   H     0.06726   0.56705   0.56693   0.00000  Uiso   1.00
O127   O     0.04569   0.54554   0.54544   0.00000  Uiso   1.00
O128   O     0.87001   0.43200   0.49788   0.00000  Uiso   1.00
O129   O     0.12952   0.43127   0.50220   0.00000  Uiso   1.00
O130   O     0.93174   0.49835   0.37017   0.00000  Uiso   1.00
O131   O     0.93159   0.50258   0.62968   0.00000  Uiso   1.00
O132   O     0.06819   0.49891   0.62982   0.00000  Uiso   1.00
O133   O     0.06827   0.50109   0.37020   0.00000  Uiso   1.00
O134   O     0.99734   0.37015   0.43188   0.00000  Uiso   1.00
O135   O     0.00106   0.37040   0.56850   0.00000  Uiso   1.00
O136   O     0.99838   0.43151   0.37030   0.00000  Uiso   1.00
O137   O     0.00189   0.43200   0.62987   0.00000  Uiso   1.00
O138   O     0.87022   0.49810   0.43162   0.00000  Uiso   1.00
O139   O     0.12979   0.50158   0.43167   0.00000  Uiso   1.00
O140   O     0.12971   0.49775   0.56837   0.00000  Uiso   1.00
O141   O     0.87012   0.50174   0.56818   0.00000  Uiso   1.00
O142   O     0.93134   0.37039   0.49878   0.00000  Uiso   1.00
O143   O     0.06782   0.37000   0.50164   0.00000  Uiso   1.00
Zr144  Zr    0.91121   0.50021   0.49993   0.00000  Uiso   1.00
Zr145  Zr    0.08876   0.49974   0.50000   0.00000  Uiso   1.00
Zr146  Zr    0.00000   0.49982   0.41123   0.00000  Uiso   1.00
Zr147  Zr    0.99993   0.50027   0.58872   0.00000  Uiso   1.00
Zr148  Zr    0.99968   0.41128   0.50014   0.00000  Uiso   1.00
O149   O     0.04554   0.45426   0.54582   0.00000  Uiso   1.00
O150   O     0.95409   0.45428   0.45427   0.00000  Uiso   1.00
X151   C     0.88469   0.38526   0.49745   0.00000  Uiso   1.00
X152   C     0.11456   0.38462   0.50283   0.00000  Uiso   1.00
X153   C     0.88504   0.49730   0.38493   0.00000  Uiso   1.00
X154   C     0.88489   0.50311   0.61487   0.00000  Uiso   1.00
X155   C     0.11489   0.49745   0.61508   0.00000  Uiso   1.00
X156   C     0.11497   0.50217   0.38496   0.00000  Uiso   1.00
X157   C     0.99699   0.38486   0.38515   0.00000  Uiso   1.00
X158   C     0.00229   0.38526   0.61517   0.00000  Uiso   1.00
H159   H     0.06690   0.43259   0.43306   0.00000  Uiso   1.00
O160   O     0.04543   0.45422   0.45453   0.00000  Uiso   1.00
H161   H     0.93269   0.43328   0.56721   0.00000  Uiso   1.00
O162   O     0.95427   0.45469   0.54563   0.00000  Uiso   1.00
O163   O     0.62949   0.06880   0.49769   0.00000  Uiso   1.00
O164   O     0.36999   0.06790   0.50209   0.00000  Uiso   1.00
O165   O     0.50094   0.12948   0.43125   0.00000  Uiso   1.00
O166   O     0.49726   0.13003   0.56786   0.00000  Uiso   1.00
O167   O     0.49839   0.06881   0.62957   0.00000  Uiso   1.00
O168   O     0.50181   0.06777   0.36999   0.00000  Uiso   1.00
O169   O     0.43126   0.12956   0.50097   0.00000  Uiso   1.00
O170   O     0.56776   0.13005   0.49809   0.00000  Uiso   1.00
Zr171  Zr    0.49962   0.08874   0.49970   0.00000  Uiso   1.00
O172   O     0.45402   0.04580   0.54562   0.00000  Uiso   1.00
O173   O     0.54551   0.04570   0.45411   0.00000  Uiso   1.00
X174   C     0.61451   0.11545   0.49694   0.00000  Uiso   1.00
X175   C     0.38463   0.11466   0.50236   0.00000  Uiso   1.00
X176   C     0.50215   0.11454   0.38462   0.00000  Uiso   1.00
X177   C     0.49693   0.11543   0.61463   0.00000  Uiso   1.00
H178   H     0.43264   0.06654   0.43269   0.00000  Uiso   1.00
O179   O     0.45424   0.04518   0.45430   0.00000  Uiso   1.00
H180   H     0.56687   0.06762   0.56681   0.00000  Uiso   1.00
O181   O     0.54540   0.04593   0.54539   0.00000  Uiso   1.00
O182   O     0.37056   0.93116   0.49798   0.00000  Uiso   1.00
O183   O     0.63006   0.93214   0.50226   0.00000  Uiso   1.00
O184   O     0.43160   0.99718   0.37032   0.00000  Uiso   1.00
O185   O     0.43159   0.00267   0.62972   0.00000  Uiso   1.00
O186   O     0.56825   0.99927   0.62984   0.00000  Uiso   1.00
O187   O     0.56819   0.00096   0.37019   0.00000  Uiso   1.00
O188   O     0.49898   0.86986   0.43239   0.00000  Uiso   1.00
O189   O     0.50287   0.87066   0.56900   0.00000  Uiso   1.00
O190   O     0.49794   0.93106   0.37063   0.00000  Uiso   1.00
O191   O     0.50163   0.93239   0.63021   0.00000  Uiso   1.00
O192   O     0.37014   0.99803   0.43182   0.00000  Uiso   1.00
O193   O     0.62971   0.00226   0.43164   0.00000  Uiso   1.00
O194   O     0.62976   0.99862   0.56837   0.00000  Uiso   1.00
O195   O     0.37012   0.00109   0.56826   0.00000  Uiso   1.00
O196   O     0.43227   0.86991   0.49921   0.00000  Uiso   1.00
O197   O     0.56876   0.87048   0.50196   0.00000  Uiso   1.00
Zr198  Zr    0.41123   0.99968   0.50005   0.00000  Uiso   1.00
Zr199  Zr    0.58876   0.00032   0.50002   0.00000  Uiso   1.00
Zr200  Zr    0.49994   0.99958   0.41129   0.00000  Uiso   1.00
Zr201  Zr    0.49996   0.00044   0.58879   0.00000  Uiso   1.00
Zr202  Zr    0.50037   0.91128   0.50046   0.00000  Uiso   1.00
O203   O     0.54592   0.95467   0.54601   0.00000  Uiso   1.00
O204   O     0.45441   0.95386   0.45454   0.00000  Uiso   1.00
X205   C     0.38553   0.88451   0.49773   0.00000  Uiso   1.00
X206   C     0.61540   0.88539   0.50299   0.00000  Uiso   1.00
X207   C     0.38490   0.99665   0.38513   0.00000  Uiso   1.00
X208   C     0.38487   0.00279   0.61493   0.00000  Uiso   1.00
X209   C     0.61494   0.99812   0.61507   0.00000  Uiso   1.00
X210   C     0.61489   0.00250   0.38493   0.00000  Uiso   1.00
X211   C     0.49761   0.88443   0.38564   0.00000  Uiso   1.00
X212   C     0.50321   0.88565   0.61564   0.00000  Uiso   1.00
H213   H     0.56732   0.93289   0.43321   0.00000  Uiso   1.00
O214   O     0.54572   0.95442   0.45466   0.00000  Uiso   1.00
H215   H     0.43316   0.93295   0.56744   0.00000  Uiso   1.00
O216   O     0.45460   0.95447   0.54582   0.00000  Uiso   1.00
C217   C     0.22928   0.23095   0.99435   0.00000  Uiso   1.00
C218   C     0.17933   0.24201   0.98024   0.00000  Uiso   1.00
C219   C     0.14210   0.20464   0.98136   0.00000  Uiso   1.00
X220   C     0.15397   0.15514   0.99612   0.00000  Uiso   1.00
C221   C     0.20394   0.14391   0.00981   0.00000  Uiso   1.00
C222   C     0.24103   0.18138   0.00919   0.00000  Uiso   1.00
C223   C     0.26884   0.27092   0.99402   0.00000  Uiso   1.00
C224   C     0.31881   0.25952   0.98026   0.00000  Uiso   1.00
C225   C     0.35616   0.29675   0.98108   0.00000  Uiso   1.00
X226   C     0.34443   0.34648   0.99520   0.00000  Uiso   1.00
C227   C     0.29440   0.35811   0.00831   0.00000  Uiso   1.00
C228   C     0.25715   0.32077   0.00797   0.00000  Uiso   1.00
H229   H     0.10408   0.21445   0.97012   0.00000  Uiso   1.00
H230   H     0.21429   0.10628   0.02182   0.00000  Uiso   1.00
H231   H     0.39421   0.28659   0.97025   0.00000  Uiso   1.00
H232   H     0.28411   0.39595   0.01972   0.00000  Uiso   1.00
H233   H     0.27880   0.17161   0.02121   0.00000  Uiso   1.00
H234   H     0.32907   0.22185   0.96835   0.00000  Uiso   1.00
H235   H     0.16902   0.27947   0.96774   0.00000  Uiso   1.00
H236   H     0.21934   0.33083   0.01961   0.00000  Uiso   1.00
C237   C     0.23062   0.72962   0.49473   0.00000  Uiso   1.00
C238   C     0.18092   0.74131   0.50918   0.00000  Uiso   1.00
C239   C     0.14351   0.70416   0.50954   0.00000  Uiso   1.00
X240   C     0.15490   0.65420   0.49597   0.00000  Uiso   1.00
C241   C     0.20452   0.64240   0.48152   0.00000  Uiso   1.00
C242   C     0.24184   0.67968   0.48067   0.00000  Uiso   1.00
C243   C     0.27057   0.76923   0.49475   0.00000  Uiso   1.00
C244   C     0.32032   0.75755   0.50904   0.00000  Uiso   1.00
C245   C     0.35766   0.79480   0.50957   0.00000  Uiso   1.00
X246   C     0.34612   0.84481   0.49632   0.00000  Uiso   1.00
C247   C     0.29646   0.85655   0.48198   0.00000  Uiso   1.00
C248   C     0.25923   0.81920   0.48096   0.00000  Uiso   1.00
H249   H     0.10577   0.71447   0.52129   0.00000  Uiso   1.00
H250   H     0.21446   0.60439   0.47038   0.00000  Uiso   1.00
H251   H     0.39544   0.78452   0.52117   0.00000  Uiso   1.00
H252   H     0.28638   0.89459   0.47104   0.00000  Uiso   1.00
H253   H     0.27940   0.66942   0.46844   0.00000  Uiso   1.00
H254   H     0.33031   0.71975   0.52075   0.00000  Uiso   1.00
H255   H     0.17102   0.77906   0.52114   0.00000  Uiso   1.00
H256   H     0.22163   0.82946   0.46883   0.00000  Uiso   1.00
C257   C     0.77073   0.76908   0.99473   0.00000  Uiso   1.00
C258   C     0.75886   0.81886   0.00874   0.00000  Uiso   1.00
C259   C     0.79595   0.85634   0.00912   0.00000  Uiso   1.00
X260   C     0.84604   0.84494   0.99603   0.00000  Uiso   1.00
C261   C     0.85801   0.79523   0.98203   0.00000  Uiso   1.00
C262   C     0.82079   0.75784   0.98115   0.00000  Uiso   1.00
C263   C     0.73115   0.72908   0.99471   0.00000  Uiso   1.00
C264   C     0.74276   0.67941   0.00935   0.00000  Uiso   1.00
C265   C     0.70551   0.64206   0.00988   0.00000  Uiso   1.00
X266   C     0.65557   0.65351   0.99630   0.00000  Uiso   1.00
C267   C     0.64391   0.70308   0.98157   0.00000  Uiso   1.00
C268   C     0.68126   0.74031   0.98053   0.00000  Uiso   1.00
H269   H     0.78547   0.89414   0.02049   0.00000  Uiso   1.00
H270   H     0.89612   0.78525   0.97125   0.00000  Uiso   1.00
H271   H     0.71572   0.60434   0.02178   0.00000  Uiso   1.00
H272   H     0.60593   0.71308   0.97036   0.00000  Uiso   1.00
H273   H     0.83120   0.72021   0.96927   0.00000  Uiso   1.00
H274   H     0.78049   0.66950   0.02134   0.00000  Uiso   1.00
H275   H     0.72101   0.82881   0.02032   0.00000  Uiso   1.00
H276   H     0.67106   0.77782   0.96809   0.00000  Uiso   1.00
C277   C     0.76942   0.27032   0.49430   0.00000  Uiso   1.00
C278   C     0.75820   0.32033   0.48052   0.00000  Uiso   1.00
C279   C     0.79551   0.35761   0.48162   0.00000  Uiso   1.00
X280   C     0.84512   0.34574   0.49604   0.00000  Uiso   1.00
C281   C     0.85651   0.29571   0.50935   0.00000  Uiso   1.00
C282   C     0.81910   0.25855   0.50874   0.00000  Uiso   1.00
C283   C     0.72946   0.23072   0.49410   0.00000  Uiso   1.00
C284   C     0.74076   0.18080   0.48007   0.00000  Uiso   1.00
C285   C     0.70353   0.14345   0.48097   0.00000  Uiso   1.00
X286   C     0.65389   0.15515   0.49544   0.00000  Uiso   1.00
C287   C     0.64237   0.20512   0.50888   0.00000  Uiso   1.00
C288   C     0.67972   0.24235   0.50847   0.00000  Uiso   1.00
H289   H     0.78556   0.39568   0.47067   0.00000  Uiso   1.00
H290   H     0.89424   0.28533   0.52105   0.00000  Uiso   1.00
H291   H     0.71357   0.10545   0.46988   0.00000  Uiso   1.00
H292   H     0.60461   0.21535   0.52059   0.00000  Uiso   1.00
H293   H     0.82900   0.22073   0.52048   0.00000  Uiso   1.00
H294   H     0.77835   0.17059   0.46786   0.00000  Uiso   1.00
H295   H     0.72065   0.33065   0.46831   0.00000  Uiso   1.00
H296   H     0.66974   0.28010   0.52036   0.00000  Uiso   1.00
C297   C     0.76907   0.22929   0.00562   0.00000  Uiso   1.00
C298   C     0.75791   0.17928   0.01945   0.00000  Uiso   1.00
C299   C     0.79530   0.14207   0.01853   0.00000  Uiso   1.00
X300   C     0.84493   0.15401   0.00424   0.00000  Uiso   1.00
C301   C     0.85626   0.20405   0.99088   0.00000  Uiso   1.00
C302   C     0.81878   0.24112   0.99131   0.00000  Uiso   1.00
C303   C     0.72907   0.26883   0.00568   0.00000  Uiso   1.00
C304   C     0.74031   0.31875   0.01975   0.00000  Uiso   1.00
C305   C     0.70308   0.35608   0.01873   0.00000  Uiso   1.00
X306   C     0.65349   0.34439   0.00408   0.00000  Uiso   1.00
C307   C     0.64202   0.29442   0.99061   0.00000  Uiso   1.00
C308   C     0.67938   0.25718   0.99116   0.00000  Uiso   1.00
H309   H     0.78540   0.10400   0.02951   0.00000  Uiso   1.00
H310   H     0.89400   0.21447   0.97925   0.00000  Uiso   1.00
H311   H     0.71310   0.39408   0.02986   0.00000  Uiso   1.00
H312   H     0.60429   0.28418   0.97879   0.00000  Uiso   1.00
H313   H     0.82864   0.27894   0.97953   0.00000  Uiso   1.00
H314   H     0.77785   0.32897   0.03209   0.00000  Uiso   1.00
H315   H     0.72033   0.16891   0.03155   0.00000  Uiso   1.00
H316   H     0.66946   0.21942   0.97926   0.00000  Uiso   1.00
C317   C     0.77054   0.73074   0.50558   0.00000  Uiso   1.00
C318   C     0.75920   0.68078   0.51944   0.00000  Uiso   1.00
C319   C     0.79639   0.64340   0.51837   0.00000  Uiso   1.00
X320   C     0.84602   0.65508   0.50390   0.00000  Uiso   1.00
C321   C     0.85757   0.70508   0.49059   0.00000  Uiso   1.00
C322   C     0.82026   0.74236   0.49117   0.00000  Uiso   1.00
C323   C     0.73062   0.77038   0.50561   0.00000  Uiso   1.00
C324   C     0.74189   0.82034   0.51955   0.00000  Uiso   1.00
C325   C     0.70460   0.85766   0.51866   0.00000  Uiso   1.00
X326   C     0.65496   0.84586   0.50430   0.00000  Uiso   1.00
C327   C     0.64351   0.79588   0.49085   0.00000  Uiso   1.00
C328   C     0.68090   0.75870   0.49125   0.00000  Uiso   1.00
H329   H     0.78632   0.60537   0.52936   0.00000  Uiso   1.00
H330   H     0.89533   0.71533   0.47888   0.00000  Uiso   1.00
H331   H     0.71458   0.89569   0.52971   0.00000  Uiso   1.00
H332   H     0.60576   0.78557   0.47917   0.00000  Uiso   1.00
H333   H     0.83027   0.78015   0.47940   0.00000  Uiso   1.00
H334   H     0.77948   0.83060   0.53171   0.00000  Uiso   1.00
H335   H     0.72162   0.67057   0.53167   0.00000  Uiso   1.00
H336   H     0.67094   0.72094   0.47939   0.00000  Uiso   1.00
C337   C     0.22946   0.26929   0.50547   0.00000  Uiso   1.00
C338   C     0.24079   0.31917   0.51962   0.00000  Uiso   1.00
C339   C     0.20358   0.35655   0.51876   0.00000  Uiso   1.00
X340   C     0.15395   0.34491   0.50423   0.00000  Uiso   1.00
C341   C     0.14241   0.29498   0.49066   0.00000  Uiso   1.00
C342   C     0.17974   0.25772   0.49103   0.00000  Uiso   1.00
C343   C     0.26938   0.22965   0.50528   0.00000  Uiso   1.00
C344   C     0.25810   0.17963   0.51896   0.00000  Uiso   1.00
C345   C     0.29539   0.14232   0.51792   0.00000  Uiso   1.00
X346   C     0.34505   0.15418   0.50365   0.00000  Uiso   1.00
C347   C     0.35649   0.20422   0.49040   0.00000  Uiso   1.00
C348   C     0.31910   0.24140   0.49096   0.00000  Uiso   1.00
H349   H     0.21363   0.39452   0.52994   0.00000  Uiso   1.00
H350   H     0.10466   0.28479   0.47889   0.00000  Uiso   1.00
H351   H     0.28539   0.10425   0.52881   0.00000  Uiso   1.00
H352   H     0.39425   0.21459   0.47881   0.00000  Uiso   1.00
H353   H     0.16974   0.22000   0.47905   0.00000  Uiso   1.00
H354   H     0.22051   0.16931   0.53107   0.00000  Uiso   1.00
H355   H     0.27837   0.32933   0.53189   0.00000  Uiso   1.00
H356   H     0.32906   0.27922   0.47929   0.00000  Uiso   1.00
C357   C     0.23110   0.77088   0.00550   0.00000  Uiso   1.00
C358   C     0.24254   0.82049   0.99058   0.00000  Uiso   1.00
C359   C     0.20523   0.85777   0.99006   0.00000  Uiso   1.00
X360   C     0.15538   0.84629   0.00397   0.00000  Uiso   1.00
C361   C     0.14386   0.79677   0.01895   0.00000  Uiso   1.00
C362   C     0.18128   0.75962   0.01996   0.00000  Uiso   1.00
C363   C     0.27074   0.73097   0.00545   0.00000  Uiso   1.00
C364   C     0.25891   0.68115   0.99160   0.00000  Uiso   1.00
C365   C     0.29607   0.64375   0.99116   0.00000  Uiso   1.00
X366   C     0.34618   0.65526   0.00406   0.00000  Uiso   1.00
C367   C     0.35813   0.70502   0.01788   0.00000  Uiso   1.00
C368   C     0.32084   0.74234   0.01880   0.00000  Uiso   1.00
H369   H     0.21531   0.89544   0.97792   0.00000  Uiso   1.00
H370   H     0.10595   0.78677   0.03039   0.00000  Uiso   1.00
H371   H     0.28560   0.60590   0.97993   0.00000  Uiso   1.00
H372   H     0.39626   0.71509   0.02849   0.00000  Uiso   1.00
H373   H     0.17122   0.72214   0.03260   0.00000  Uiso   1.00
H374   H     0.22103   0.67111   0.98018   0.00000  Uiso   1.00
H375   H     0.28020   0.83042   0.97835   0.00000  Uiso   1.00
H376   H     0.33122   0.78003   0.03054   0.00000  Uiso   1.00
C377   C     0.99420   0.22967   0.23057   0.00000  Uiso   1.00
C378   C     0.00845   0.17992   0.24225   0.00000  Uiso   1.00
C379   C     0.00889   0.14256   0.20502   0.00000  Uiso   1.00
X380   C     0.99558   0.15409   0.15502   0.00000  Uiso   1.00
C381   C     0.98126   0.20376   0.14327   0.00000  Uiso   1.00
C382   C     0.98034   0.24100   0.18061   0.00000  Uiso   1.00
C383   C     0.99427   0.26961   0.27018   0.00000  Uiso   1.00
C384   C     0.00883   0.31928   0.25849   0.00000  Uiso   1.00
C385   C     0.00928   0.35669   0.29565   0.00000  Uiso   1.00
X386   C     0.99567   0.34531   0.34561   0.00000  Uiso   1.00
C387   C     0.98116   0.29571   0.35740   0.00000  Uiso   1.00
C388   C     0.98022   0.25841   0.32011   0.00000  Uiso   1.00
H389   H     0.02049   0.10478   0.21531   0.00000  Uiso   1.00
H390   H     0.97029   0.21382   0.10524   0.00000  Uiso   1.00
H391   H     0.02110   0.39440   0.28535   0.00000  Uiso   1.00
H392   H     0.97000   0.28577   0.39541   0.00000  Uiso   1.00
H393   H     0.96824   0.27861   0.17037   0.00000  Uiso   1.00
H394   H     0.02078   0.32917   0.22074   0.00000  Uiso   1.00
H395   H     0.02021   0.16992   0.28004   0.00000  Uiso   1.00
H396   H     0.96793   0.22086   0.33037   0.00000  Uiso   1.00
C397   C     0.49386   0.27076   0.76905   0.00000  Uiso   1.00
C398   C     0.47961   0.25951   0.81892   0.00000  Uiso   1.00
C399   C     0.48056   0.29673   0.85627   0.00000  Uiso   1.00
X400   C     0.49531   0.34629   0.84463   0.00000  Uiso   1.00
C401   C     0.50896   0.35776   0.79471   0.00000  Uiso   1.00
C402   C     0.50849   0.32042   0.75747   0.00000  Uiso   1.00
C403   C     0.49399   0.23080   0.72947   0.00000  Uiso   1.00
C404   C     0.48038   0.24204   0.67942   0.00000  Uiso   1.00
C405   C     0.48138   0.20470   0.64217   0.00000  Uiso   1.00
X406   C     0.49555   0.15504   0.65411   0.00000  Uiso   1.00
C407   C     0.50872   0.14363   0.70417   0.00000  Uiso   1.00
C408   C     0.50820   0.18106   0.74130   0.00000  Uiso   1.00
H409   H     0.46931   0.28672   0.89424   0.00000  Uiso   1.00
H410   H     0.52089   0.39547   0.78452   0.00000  Uiso   1.00
H411   H     0.47056   0.21468   0.60407   0.00000  Uiso   1.00
H412   H     0.52026   0.10587   0.71461   0.00000  Uiso   1.00
H413   H     0.52054   0.33035   0.71975   0.00000  Uiso   1.00
H414   H     0.46836   0.27965   0.66905   0.00000  Uiso   1.00
H415   H     0.46719   0.22198   0.82908   0.00000  Uiso   1.00
H416   H     0.51982   0.17114   0.77915   0.00000  Uiso   1.00
C417   C     0.99508   0.77021   0.76957   0.00000  Uiso   1.00
C418   C     0.00889   0.75836   0.81941   0.00000  Uiso   1.00
C419   C     0.00937   0.79553   0.85682   0.00000  Uiso   1.00
X420   C     0.99655   0.84567   0.84529   0.00000  Uiso   1.00
C421   C     0.98273   0.85760   0.79552   0.00000  Uiso   1.00
C422   C     0.98178   0.82032   0.75820   0.00000  Uiso   1.00
C423   C     0.99499   0.73060   0.72962   0.00000  Uiso   1.00
C424   C     0.00989   0.74210   0.68001   0.00000  Uiso   1.00
C425   C     0.01026   0.70487   0.64265   0.00000  Uiso   1.00
X426   C     0.99624   0.65504   0.65403   0.00000  Uiso   1.00
C427   C     0.98131   0.64345   0.70355   0.00000  Uiso   1.00
C428   C     0.98045   0.68079   0.74080   0.00000  Uiso   1.00
H429   H     0.02057   0.78507   0.89467   0.00000  Uiso   1.00
H430   H     0.97216   0.89574   0.78543   0.00000  Uiso   1.00
H431   H     0.02238   0.71501   0.60498   0.00000  Uiso   1.00
H432   H     0.96980   0.60554   0.71349   0.00000  Uiso   1.00
H433   H     0.97004   0.83072   0.72052   0.00000  Uiso   1.00
H434   H     0.02220   0.77975   0.67014   0.00000  Uiso   1.00
H435   H     0.02024   0.72046   0.82945   0.00000  Uiso   1.00
H436   H     0.96784   0.67068   0.77828   0.00000  Uiso   1.00
C437   C     0.49523   0.72951   0.23078   0.00000  Uiso   1.00
C438   C     0.48205   0.67937   0.24213   0.00000  Uiso   1.00
C439   C     0.48297   0.64212   0.20478   0.00000  Uiso   1.00
X440   C     0.49664   0.65413   0.15498   0.00000  Uiso   1.00
C441   C     0.50937   0.70429   0.14348   0.00000  Uiso   1.00
C442   C     0.50893   0.74142   0.18092   0.00000  Uiso   1.00
C443   C     0.49509   0.76911   0.27073   0.00000  Uiso   1.00
C444   C     0.48040   0.81887   0.25956   0.00000  Uiso   1.00
C445   C     0.48125   0.85624   0.29677   0.00000  Uiso   1.00
X446   C     0.49631   0.84471   0.34627   0.00000  Uiso   1.00
C447   C     0.51046   0.79491   0.35767   0.00000  Uiso   1.00
C448   C     0.51010   0.75766   0.32032   0.00000  Uiso   1.00
H449   H     0.47249   0.60395   0.21486   0.00000  Uiso   1.00
H450   H     0.52047   0.71482   0.10561   0.00000  Uiso   1.00
H451   H     0.46963   0.89411   0.28684   0.00000  Uiso   1.00
H452   H     0.52267   0.78483   0.39531   0.00000  Uiso   1.00
H453   H     0.52019   0.77934   0.17089   0.00000  Uiso   1.00
H454   H     0.46769   0.82894   0.22210   0.00000  Uiso   1.00
H455   H     0.47043   0.66892   0.27984   0.00000  Uiso   1.00
H456   H     0.52251   0.72004   0.33018   0.00000  Uiso   1.00
C457   C     0.00600   0.76960   0.22984   0.00000  Uiso   1.00
C458   C     0.01994   0.75836   0.17988   0.00000  Uiso   1.00
C459   C     0.01899   0.79566   0.14258   0.00000  Uiso   1.00
X460   C     0.00454   0.84527   0.15439   0.00000  Uiso   1.00
C461   C     0.99109   0.85669   0.20439   0.00000  Uiso   1.00
C462   C     0.99157   0.81929   0.24155   0.00000  Uiso   1.00
C463   C     0.00602   0.72965   0.26943   0.00000  Uiso   1.00
C464   C     0.02000   0.74094   0.31937   0.00000  Uiso   1.00
C465   C     0.01903   0.70371   0.35671   0.00000  Uiso   1.00
X466   C     0.00455   0.65408   0.34498   0.00000  Uiso   1.00
C467   C     0.99108   0.64260   0.29501   0.00000  Uiso   1.00
C468   C     0.99157   0.67995   0.25778   0.00000  Uiso   1.00
H469   H     0.03005   0.78569   0.10455   0.00000  Uiso   1.00
H470   H     0.97936   0.89442   0.21471   0.00000  Uiso   1.00
H471   H     0.03011   0.71373   0.39472   0.00000  Uiso   1.00
H472   H     0.97931   0.60486   0.28476   0.00000  Uiso   1.00
H473   H     0.97971   0.82920   0.27933   0.00000  Uiso   1.00
H474   H     0.03224   0.77852   0.32959   0.00000  Uiso   1.00
H475   H     0.03216   0.72079   0.16961   0.00000  Uiso   1.00
H476   H     0.97971   0.67000   0.22002   0.00000  Uiso   1.00
C477   C     0.50639   0.73076   0.77053   0.00000  Uiso   1.00
C478   C     0.49175   0.68113   0.75882   0.00000  Uiso   1.00
C479   C     0.49124   0.64370   0.79594   0.00000  Uiso   1.00
X480   C     0.50486   0.65502   0.84591   0.00000  Uiso   1.00
C481   C     0.51952   0.70457   0.85773   0.00000  Uiso   1.00
C482   C     0.52051   0.74190   0.82047   0.00000  Uiso   1.00
C483   C     0.50645   0.77073   0.73095   0.00000  Uiso   1.00
C484   C     0.49225   0.82050   0.74265   0.00000  Uiso   1.00
C485   C     0.49168   0.85783   0.70541   0.00000  Uiso   1.00
X486   C     0.50481   0.84627   0.65536   0.00000  Uiso   1.00
C487   C     0.51910   0.79660   0.64360   0.00000  Uiso   1.00
C488   C     0.52015   0.75938   0.68095   0.00000  Uiso   1.00
H489   H     0.47934   0.60602   0.78561   0.00000  Uiso   1.00
H490   H     0.53070   0.71445   0.89575   0.00000  Uiso   1.00
H491   H     0.48012   0.89562   0.71571   0.00000  Uiso   1.00
H492   H     0.52994   0.78651   0.60554   0.00000  Uiso   1.00
H493   H     0.53288   0.77942   0.83074   0.00000  Uiso   1.00
H494   H     0.48062   0.83050   0.78048   0.00000  Uiso   1.00
H495   H     0.47974   0.67129   0.72107   0.00000  Uiso   1.00
H496   H     0.53222   0.72177   0.67068   0.00000  Uiso   1.00
C497   C     0.50438   0.26908   0.22932   0.00000  Uiso   1.00
C498   C     0.49036   0.25741   0.17949   0.00000  Uiso   1.00
C499   C     0.48999   0.29468   0.14216   0.00000  Uiso   1.00
X500   C     0.50315   0.34470   0.15378   0.00000  Uiso   1.00
C501   C     0.51721   0.35643   0.20353   0.00000  Uiso   1.00
C502   C     0.51806   0.31907   0.24074   0.00000  Uiso   1.00
C503   C     0.50432   0.22944   0.26925   0.00000  Uiso   1.00
C504   C     0.48966   0.24107   0.31890   0.00000  Uiso   1.00
C505   C     0.48937   0.20393   0.35633   0.00000  Uiso   1.00
X506   C     0.50322   0.15403   0.34500   0.00000  Uiso   1.00
C507   C     0.51779   0.14227   0.29541   0.00000  Uiso   1.00
C508   C     0.51857   0.17955   0.25807   0.00000  Uiso   1.00
H509   H     0.47859   0.28439   0.10432   0.00000  Uiso   1.00
H510   H     0.52805   0.39448   0.21368   0.00000  Uiso   1.00
H511   H     0.47749   0.21420   0.39403   0.00000  Uiso   1.00
H512   H     0.52913   0.10431   0.28550   0.00000  Uiso   1.00
H513   H     0.52999   0.32932   0.27841   0.00000  Uiso   1.00
H514   H     0.47754   0.27878   0.32877   0.00000  Uiso   1.00
H515   H     0.47875   0.21960   0.16942   0.00000  Uiso   1.00
H516   H     0.53094   0.16933   0.22054   0.00000  Uiso   1.00
C517   C     0.00478   0.23062   0.77034   0.00000  Uiso   1.00
C518   C     0.01862   0.18066   0.75898   0.00000  Uiso   1.00
C519   C     0.01775   0.14331   0.79622   0.00000  Uiso   1.00
X520   C     0.00349   0.15504   0.84591   0.00000  Uiso   1.00
C521   C     0.99016   0.20503   0.85746   0.00000  Uiso   1.00
C522   C     0.99056   0.24227   0.82012   0.00000  Uiso   1.00
C523   C     0.00473   0.27025   0.73041   0.00000  Uiso   1.00
C524   C     0.01882   0.32017   0.74164   0.00000  Uiso   1.00
C525   C     0.01797   0.35747   0.70434   0.00000  Uiso   1.00
X526   C     0.00347   0.34571   0.65473   0.00000  Uiso   1.00
C527   C     0.98981   0.29578   0.64333   0.00000  Uiso   1.00
C528   C     0.99018   0.25860   0.68073   0.00000  Uiso   1.00
H529   H     0.02872   0.10528   0.78613   0.00000  Uiso   1.00
H530   H     0.97860   0.21530   0.89526   0.00000  Uiso   1.00
H531   H     0.02917   0.39546   0.71429   0.00000  Uiso   1.00
H532   H     0.97800   0.28550   0.60561   0.00000  Uiso   1.00
H533   H     0.97882   0.28006   0.83013   0.00000  Uiso   1.00
H534   H     0.03111   0.33040   0.77920   0.00000  Uiso   1.00
H535   H     0.03070   0.17042   0.72136   0.00000  Uiso   1.00
H536   H     0.97820   0.22086   0.67083   0.00000  Uiso   1.00
C537   C     0.23026   0.99414   0.23000   0.00000  Uiso   1.00
C538   C     0.24190   0.00906   0.18042   0.00000  Uiso   1.00
C539   C     0.20471   0.00970   0.14304   0.00000  Uiso   1.00
X540   C     0.15478   0.99593   0.15436   0.00000  Uiso   1.00
C541   C     0.14306   0.98103   0.20386   0.00000  Uiso   1.00
C542   C     0.18037   0.97990   0.24113   0.00000  Uiso   1.00
C543   C     0.26984   0.99395   0.26996   0.00000  Uiso   1.00
C544   C     0.25805   0.00787   0.31979   0.00000  Uiso   1.00
C545   C     0.29522   0.00823   0.35718   0.00000  Uiso   1.00
X546   C     0.34529   0.99519   0.34564   0.00000  Uiso   1.00
C547   C     0.35715   0.98117   0.29591   0.00000  Uiso   1.00
C548   C     0.31986   0.98033   0.25861   0.00000  Uiso   1.00
H549   H     0.21495   0.02179   0.10540   0.00000  Uiso   1.00
H550   H     0.10508   0.96971   0.21375   0.00000  Uiso   1.00
H551   H     0.28484   0.01958   0.39501   0.00000  Uiso   1.00
H552   H     0.39524   0.97041   0.28584   0.00000  Uiso   1.00
H553   H     0.17015   0.96731   0.27859   0.00000  Uiso   1.00
H554   H     0.22021   0.01944   0.32981   0.00000  Uiso   1.00
H555   H     0.27963   0.02115   0.17060   0.00000  Uiso   1.00
H556   H     0.33019   0.96849   0.22094   0.00000  Uiso   1.00
C557   C     0.27011   0.49534   0.76970   0.00000  Uiso   1.00
C558   C     0.31977   0.50995   0.75802   0.00000  Uiso   1.00
C559   C     0.35717   0.51049   0.79521   0.00000  Uiso   1.00
X560   C     0.34578   0.49694   0.84518   0.00000  Uiso   1.00
C561   C     0.29619   0.48236   0.85695   0.00000  Uiso   1.00
C562   C     0.25891   0.48133   0.81965   0.00000  Uiso   1.00
C563   C     0.23013   0.49516   0.73011   0.00000  Uiso   1.00
C564   C     0.18034   0.50924   0.74185   0.00000  Uiso   1.00
C565   C     0.14292   0.50949   0.70469   0.00000  Uiso   1.00
X566   C     0.15440   0.49617   0.65468   0.00000  Uiso   1.00
C567   C     0.20411   0.48203   0.64287   0.00000  Uiso   1.00
C568   C     0.24143   0.48129   0.68015   0.00000  Uiso   1.00
H569   H     0.39488   0.52233   0.78493   0.00000  Uiso   1.00
H570   H     0.28624   0.47121   0.89495   0.00000  Uiso   1.00
H571   H     0.10511   0.52096   0.71503   0.00000  Uiso   1.00
H572   H     0.21415   0.47106   0.60483   0.00000  Uiso   1.00
H573   H     0.22139   0.46896   0.82991   0.00000  Uiso   1.00
H574   H     0.17035   0.52100   0.77964   0.00000  Uiso   1.00
H575   H     0.32966   0.52186   0.72025   0.00000  Uiso   1.00
H576   H     0.27907   0.46932   0.66985   0.00000  Uiso   1.00
C577   C     0.76995   0.99486   0.76986   0.00000  Uiso   1.00
C578   C     0.81984   0.00854   0.75810   0.00000  Uiso   1.00
C579   C     0.85721   0.00883   0.79531   0.00000  Uiso   1.00
X580   C     0.84558   0.99595   0.84541   0.00000  Uiso   1.00
C581   C     0.79577   0.98222   0.85726   0.00000  Uiso   1.00
C582   C     0.75849   0.98146   0.81992   0.00000  Uiso   1.00
C583   C     0.73002   0.99507   0.73023   0.00000  Uiso   1.00
C584   C     0.68046   0.01014   0.74177   0.00000  Uiso   1.00
C585   C     0.64311   0.01074   0.70455   0.00000  Uiso   1.00
X586   C     0.65443   0.99679   0.65467   0.00000  Uiso   1.00
C587   C     0.70391   0.98174   0.64303   0.00000  Uiso   1.00
C588   C     0.74115   0.98064   0.68038   0.00000  Uiso   1.00
H589   H     0.89510   0.01997   0.78491   0.00000  Uiso   1.00
H590   H     0.78560   0.97161   0.89536   0.00000  Uiso   1.00
H591   H     0.60548   0.02294   0.71472   0.00000  Uiso   1.00
H592   H     0.71378   0.97027   0.60510   0.00000  Uiso   1.00
H593   H     0.72076   0.96981   0.83026   0.00000  Uiso   1.00
H594   H     0.67064   0.02237   0.77945   0.00000  Uiso   1.00
H595   H     0.82995   0.01995   0.72024   0.00000  Uiso   1.00
H596   H     0.77858   0.96792   0.67023   0.00000  Uiso   1.00
C597   C     0.72986   0.49351   0.23040   0.00000  Uiso   1.00
C598   C     0.74122   0.47995   0.18036   0.00000  Uiso   1.00
C599   C     0.70392   0.48080   0.14308   0.00000  Uiso   1.00
X600   C     0.65417   0.49475   0.15495   0.00000  Uiso   1.00
C601   C     0.64261   0.50770   0.20504   0.00000  Uiso   1.00
C602   C     0.68002   0.50734   0.24221   0.00000  Uiso   1.00
C603   C     0.76986   0.49377   0.26995   0.00000  Uiso   1.00
C604   C     0.75880   0.47950   0.31985   0.00000  Uiso   1.00
C605   C     0.79609   0.48072   0.35713   0.00000  Uiso   1.00
X606   C     0.84554   0.49575   0.34537   0.00000  Uiso   1.00
C607   C     0.85681   0.50951   0.29543   0.00000  Uiso   1.00
C608   C     0.81940   0.50878   0.25827   0.00000  Uiso   1.00
H609   H     0.71402   0.47011   0.10498   0.00000  Uiso   1.00
H610   H     0.60477   0.51900   0.21544   0.00000  Uiso   1.00
H611   H     0.78626   0.46939   0.39512   0.00000  Uiso   1.00
H612   H     0.89442   0.52168   0.28517   0.00000  Uiso   1.00
H613   H     0.66999   0.51885   0.28006   0.00000  Uiso   1.00
H614   H     0.72137   0.46683   0.33010   0.00000  Uiso   1.00
H615   H     0.77890   0.46818   0.17001   0.00000  Uiso   1.00
H616   H     0.82916   0.52089   0.22054   0.00000  Uiso   1.00
C617   C     0.23013   0.00609   0.76997   0.00000  Uiso   1.00
C618   C     0.24166   0.99110   0.81955   0.00000  Uiso   1.00
C619   C     0.20447   0.99068   0.85692   0.00000  Uiso   1.00
X620   C     0.15463   0.00473   0.84558   0.00000  Uiso   1.00
C621   C     0.14299   0.01974   0.79610   0.00000  Uiso   1.00
C622   C     0.18032   0.02065   0.75883   0.00000  Uiso   1.00
C623   C     0.26973   0.00600   0.73003   0.00000  Uiso   1.00
C624   C     0.25790   0.99216   0.68020   0.00000  Uiso   1.00
C625   C     0.29511   0.99156   0.64284   0.00000  Uiso   1.00
X626   C     0.34526   0.00429   0.65442   0.00000  Uiso   1.00
C627   C     0.35716   0.01818   0.70418   0.00000  Uiso   1.00
C628   C     0.31984   0.01926   0.74144   0.00000  Uiso   1.00
H629   H     0.21462   0.97848   0.89455   0.00000  Uiso   1.00
H630   H     0.10508   0.03127   0.78622   0.00000  Uiso   1.00
H631   H     0.28468   0.98032   0.60499   0.00000  Uiso   1.00
H632   H     0.39530   0.02870   0.71431   0.00000  Uiso   1.00
H633   H     0.17020   0.03331   0.72137   0.00000  Uiso   1.00
H634   H     0.22000   0.98086   0.67014   0.00000  Uiso   1.00
H635   H     0.27931   0.97875   0.82937   0.00000  Uiso   1.00
H636   H     0.33022   0.03103   0.77912   0.00000  Uiso   1.00
C637   C     0.26985   0.50529   0.23010   0.00000  Uiso   1.00
C638   C     0.31974   0.49162   0.24187   0.00000  Uiso   1.00
C639   C     0.35709   0.49128   0.20465   0.00000  Uiso   1.00
X640   C     0.34545   0.50411   0.15455   0.00000  Uiso   1.00
C641   C     0.29564   0.51781   0.14269   0.00000  Uiso   1.00
C642   C     0.25838   0.51863   0.18003   0.00000  Uiso   1.00
C643   C     0.22995   0.50515   0.26976   0.00000  Uiso   1.00
C644   C     0.18040   0.49005   0.25826   0.00000  Uiso   1.00
C645   C     0.14307   0.48949   0.29551   0.00000  Uiso   1.00
X646   C     0.15443   0.50350   0.34535   0.00000  Uiso   1.00
C647   C     0.20390   0.51858   0.35695   0.00000  Uiso   1.00
C648   C     0.24111   0.51964   0.31958   0.00000  Uiso   1.00
H649   H     0.39498   0.48015   0.21506   0.00000  Uiso   1.00
H650   H     0.28546   0.52837   0.10457   0.00000  Uiso   1.00
H651   H     0.10545   0.47726   0.28537   0.00000  Uiso   1.00
H652   H     0.21379   0.53009   0.39487   0.00000  Uiso   1.00
H653   H     0.22064   0.53026   0.16970   0.00000  Uiso   1.00
H654   H     0.17056   0.47777   0.22060   0.00000  Uiso   1.00
H655   H     0.32987   0.48025   0.27974   0.00000  Uiso   1.00
H656   H     0.27855   0.53238   0.32969   0.00000  Uiso   1.00
C657   C     0.77003   0.00503   0.23025   0.00000  Uiso   1.00
C658   C     0.81967   0.99035   0.24190   0.00000  Uiso   1.00
C659   C     0.85707   0.98982   0.20471   0.00000  Uiso   1.00
X660   C     0.84569   0.00347   0.15477   0.00000  Uiso   1.00
C661   C     0.79613   0.01814   0.14302   0.00000  Uiso   1.00
C662   C     0.75885   0.01915   0.18033   0.00000  Uiso   1.00
C663   C     0.73006   0.00514   0.26984   0.00000  Uiso   1.00
C664   C     0.68028   0.99104   0.25809   0.00000  Uiso   1.00
C665   C     0.64288   0.99066   0.29528   0.00000  Uiso   1.00
X666   C     0.65438   0.00386   0.34532   0.00000  Uiso   1.00
C667   C     0.70408   0.01803   0.35713   0.00000  Uiso   1.00
C668   C     0.74138   0.01889   0.31983   0.00000  Uiso   1.00
H669   H     0.89476   0.97791   0.21498   0.00000  Uiso   1.00
H670   H     0.78620   0.02936   0.10503   0.00000  Uiso   1.00
H671   H     0.60508   0.97919   0.28492   0.00000  Uiso   1.00
H672   H     0.71414   0.02892   0.39519   0.00000  Uiso   1.00
H673   H     0.72134   0.03157   0.17009   0.00000  Uiso   1.00
H674   H     0.67028   0.97937   0.22028   0.00000  Uiso   1.00
H675   H     0.82954   0.97836   0.27965   0.00000  Uiso   1.00
H676   H     0.77901   0.03087   0.33014   0.00000  Uiso   1.00
C677   C     0.73039   0.50583   0.77018   0.00000  Uiso   1.00
C678   C     0.74212   0.49119   0.81982   0.00000  Uiso   1.00
C679   C     0.70495   0.49059   0.85724   0.00000  Uiso   1.00
X680   C     0.65496   0.50411   0.84589   0.00000  Uiso   1.00
C681   C     0.64317   0.51879   0.79633   0.00000  Uiso   1.00
C682   C     0.68045   0.51987   0.75903   0.00000  Uiso   1.00
C683   C     0.76993   0.50594   0.73016   0.00000  Uiso   1.00
C684   C     0.75812   0.49182   0.68039   0.00000  Uiso   1.00
C685   C     0.79525   0.49141   0.64295   0.00000  Uiso   1.00
X686   C     0.84531   0.50459   0.65439   0.00000  Uiso   1.00
C687   C     0.85719   0.51879   0.70406   0.00000  Uiso   1.00
C688   C     0.81994   0.51969   0.74140   0.00000  Uiso   1.00
H689   H     0.71527   0.47871   0.89493   0.00000  Uiso   1.00
H690   H     0.60516   0.52992   0.78640   0.00000  Uiso   1.00
H691   H     0.78486   0.47992   0.60517   0.00000  Uiso   1.00
H692   H     0.89527   0.52966   0.71406   0.00000  Uiso   1.00
H693   H     0.67016   0.53227   0.72153   0.00000  Uiso   1.00
H694   H     0.72030   0.48014   0.67045   0.00000  Uiso   1.00
H695   H     0.77989   0.47927   0.82967   0.00000  Uiso   1.00
H696   H     0.83030   0.53169   0.77902   0.00000  Uiso   1.00
loop_
_geom_bond_atom_site_label_1
_geom_bond_atom_site_label_2
_geom_bond_distance
_geom_bond_site_symmetry_2
_ccdc_geom_bond_type
O1     Zr37    2.113   1_556 S
O1     X12     1.299   .     A
O2     Zr36    2.114   1_545 S
O2     X13     1.299   .     A
O3     Zr9     2.113   1_456 S
O3     X14     1.299   .     A
O4     Zr9     2.114   .     S
O4     X15     1.300   .     A
O5     Zr39    2.113   1_645 S
O5     X15     1.299   .     A
O6     Zr38    2.114   .     S
O6     X14     1.299   .     A
O7     Zr9     2.113   .     S
O7     X13     1.299   .     A
O8     Zr9     2.114   1_456 S
O8     X12     1.299   .     A
Zr9    O3      2.113   1_654 S
Zr9    O8      2.114   1_654 S
Zr9    O10     2.060   .     S
Zr9    O11     2.060   1_654 S
Zr9    O19     2.058   1_655 S
Zr9    O17     2.057   1_554 S
O10    Zr36    2.060   1_545 S
O10    Zr39    2.060   1_645 S
O11    Zr9     2.060   1_456 S
O11    Zr37    2.060   1_556 S
O11    Zr38    2.060   .     S
X12    X220    1.483   .     S
X13    X300    1.484   .     S
X14    X520    1.484   .     S
X15    X380    1.484   .     S
H16    O17     0.989   .     S
O17    Zr9     2.057   1_556 S
O17    Zr36    2.057   1_546 S
O17    Zr38    2.057   1_655 S
H18    O19     0.989   .     S
O19    Zr9     2.058   1_455 S
O19    Zr37    2.057   .     S
O19    Zr39    2.057   1_545 S
O20    Zr36    2.113   1_556 S
O20    X43     1.299   .     A
O21    Zr37    2.113   1_565 S
O21    X44     1.299   .     A
O22    Zr38    2.113   1_665 S
O22    X45     1.299   .     A
O23    Zr39    2.113   1_645 S
O23    X46     1.299   .     A
O24    Zr39    2.114   .     S
O24    X47     1.299   .     A
O25    Zr38    2.114   .     S
O25    X48     1.299   .     A
O26    Zr40    2.113   1_655 S
O26    X49     1.299   .     A
O27    Zr40    2.114   1_554 S
O27    X50     1.299   .     A
O28    Zr38    2.115   1_665 S
O28    X49     1.300   .     A
O29    Zr39    2.112   .     S
O29    X50     1.299   .     A
O30    Zr36    2.115   1_556 S
O30    X45     1.300   .     A
O31    Zr37    2.113   1_556 S
O31    X48     1.299   .     A
O32    Zr37    2.113   1_565 S
O32    X47     1.299   .     A
O33    Zr36    2.114   1_545 S
O33    X46     1.299   .     A
O34    Zr40    2.115   1_655 S
O34    X43     1.300   .     A
O35    Zr40    2.114   1_554 S
O35    X44     1.299   .     A
Zr36   O2      2.114   1_565 S
Zr36   O10     2.060   1_565 S
Zr36   O17     2.057   1_564 S
Zr36   O20     2.113   1_554 S
Zr36   O30     2.115   1_554 S
Zr36   O33     2.114   1_565 S
Zr36   O42     2.061   1_554 S
Zr36   O54     2.057   .     S
Zr37   O1      2.113   1_554 S
Zr37   O11     2.060   1_554 S
Zr37   O21     2.113   1_545 S
Zr37   O31     2.113   1_554 S
Zr37   O32     2.113   1_545 S
Zr37   O41     2.060   1_545 S
Zr37   O52     2.057   1_544 S
Zr38   O17     2.057   1_455 S
Zr38   O22     2.113   1_445 S
Zr38   O28     2.115   1_445 S
Zr38   O42     2.061   1_445 S
Zr38   O52     2.057   1_545 S
Zr39   O5      2.113   1_465 S
Zr39   O10     2.060   1_465 S
Zr39   O19     2.057   1_565 S
Zr39   O23     2.113   1_465 S
Zr39   O41     2.060   .     S
Zr39   O54     2.057   1_455 S
Zr40   O26     2.113   1_455 S
Zr40   O27     2.114   1_556 S
Zr40   O34     2.115   1_455 S
Zr40   O35     2.114   1_556 S
Zr40   O41     2.060   1_556 S
Zr40   O42     2.061   1_455 S
Zr40   O54     2.057   1_456 S
Zr40   O52     2.057   .     S
O41    Zr37    2.060   1_565 S
O41    Zr40    2.060   1_554 S
O42    Zr36    2.061   1_556 S
O42    Zr38    2.061   1_665 S
O42    Zr40    2.061   1_655 S
X43    X260    1.484   .     S
X44    X360    1.483   .     S
X45    X580    1.484   .     S
X46    X660    1.484   .     S
X47    X540    1.483   .     S
X48    X620    1.483   .     S
X49    X420    1.484   .     S
X50    X460    1.483   .     S
H51    O52     0.989   .     S
O52    Zr37    2.057   1_566 S
O52    Zr38    2.057   1_565 S
H53    O54     0.989   .     S
O54    Zr39    2.057   1_655 S
O54    Zr40    2.057   1_654 S
O55    Zr91    2.114   1_556 S
O55    X66     1.299   .     A
O56    Zr90    2.112   1_554 S
O56    X67     1.299   .     A
O57    Zr63    2.114   1_556 S
O57    X68     1.299   .     A
O58    Zr63    2.113   .     S
O58    X69     1.299   .     A
O59    Zr93    2.115   .     S
O59    X69     1.300   .     A
O60    Zr92    2.112   .     S
O60    X68     1.299   .     A
O61    Zr63    2.115   .     S
O61    X67     1.300   .     A
O62    Zr63    2.113   1_556 S
O62    X66     1.299   .     A
Zr63   O57     2.114   1_554 S
Zr63   O62     2.113   1_554 S
Zr63   O64     2.061   .     S
Zr63   O65     2.060   1_554 S
Zr63   O73     2.058   .     S
Zr63   O71     2.057   1_554 S
O64    Zr90    2.060   1_554 S
O64    Zr93    2.060   .     S
O65    Zr63    2.060   1_556 S
O65    Zr91    2.061   1_556 S
O65    Zr92    2.060   .     S
X66    X266    1.484   .     S
X67    X366    1.484   .     S
X68    X480    1.483   .     S
X69    X440    1.484   .     S
H70    O71     0.989   .     S
O71    Zr63    2.057   1_556 S
O71    Zr90    2.058   .     S
O71    Zr92    2.057   .     S
H72    O73     0.989   .     S
O73    Zr91    2.057   .     S
O73    Zr93    2.057   .     S
O74    Zr90    2.113   .     S
O74    X97     1.299   .     A
O75    Zr91    2.113   .     S
O75    X98     1.299   .     A
O76    Zr92    2.114   .     S
O76    X99     1.299   .     A
O77    Zr93    2.112   .     S
O77    X100    1.299   .     A
O78    Zr93    2.113   .     S
O78    X101    1.299   .     A
O79    Zr92    2.114   .     S
O79    X102    1.299   .     A
O80    Zr94    2.113   .     S
O80    X103    1.299   .     A
O81    Zr94    2.114   1_554 S
O81    X104    1.299   .     A
O82    Zr92    2.113   .     S
O82    X103    1.299   .     A
O83    Zr93    2.114   .     S
O83    X104    1.299   .     A
O84    Zr90    2.114   .     S
O84    X99     1.299   .     A
O85    Zr91    2.114   1_556 S
O85    X102    1.299   .     A
O86    Zr91    2.114   .     S
O86    X101    1.299   .     A
O87    Zr90    2.115   1_554 S
O87    X100    1.300   .     A
O88    Zr94    2.113   .     S
O88    X97     1.299   .     A
O89    Zr94    2.114   1_554 S
O89    X98     1.299   .     A
Zr90   O56     2.112   1_556 S
Zr90   O64     2.060   1_556 S
Zr90   O87     2.115   1_556 S
Zr90   O96     2.060   .     S
Zr90   O108    2.056   1_556 S
Zr91   O55     2.114   1_554 S
Zr91   O65     2.061   1_554 S
Zr91   O85     2.114   1_554 S
Zr91   O95     2.059   .     S
Zr91   O106    2.058   1_554 S
Zr92   O96     2.060   .     S
Zr92   O106    2.057   .     S
Zr93   O95     2.060   .     S
Zr93   O108    2.057   .     S
Zr94   O81     2.114   1_556 S
Zr94   O89     2.114   1_556 S
Zr94   O95     2.061   1_556 S
Zr94   O96     2.059   .     S
Zr94   O108    2.057   1_556 S
Zr94   O106    2.057   .     S
O95    Zr94    2.061   1_554 S
X97    X226    1.484   .     S
X98    X306    1.484   .     S
X99    X560    1.484   .     S
X100   X640    1.484   .     S
X101   X600    1.484   .     S
X102   X680    1.484   .     S
X103   X400    1.483   .     S
X104   X500    1.484   .     S
H105   O106    0.989   .     S
O106   Zr91    2.058   1_556 S
H107   O108    0.989   .     S
O108   Zr90    2.056   1_554 S
O108   Zr94    2.057   1_554 S
O109   Zr145   2.114   .     S
O109   X120    1.299   .     A
O110   Zr144   2.114   .     S
O110   X121    1.300   .     A
O111   Zr117   2.114   .     S
O111   X122    1.299   .     A
O112   Zr117   2.113   1_655 S
O112   X123    1.299   .     A
O113   Zr147   2.114   .     S
O113   X123    1.299   .     A
O114   Zr146   2.113   .     S
O114   X122    1.299   .     A
O115   Zr117   2.113   1_655 S
O115   X121    1.299   .     A
O116   Zr117   2.113   .     S
O116   X120    1.299   .     A
Zr117  O112    2.113   1_455 S
Zr117  O115    2.113   1_455 S
Zr117  O118    2.060   1_455 S
Zr117  O119    2.060   .     S
Zr117  O127    2.057   .     S
Zr117  O125    2.057   1_455 S
O118   Zr117   2.060   1_655 S
O118   Zr144   2.061   .     S
O118   Zr147   2.060   .     S
O119   Zr145   2.060   .     S
O119   Zr146   2.060   .     S
X120   X240    1.483   .     S
X121   X320    1.484   .     S
X122   X466    1.483   .     S
X123   X426    1.484   .     S
H124   O125    0.989   .     S
O125   Zr117   2.057   1_655 S
O125   Zr144   2.058   .     S
O125   Zr146   2.057   1_655 S
H126   O127    0.989   .     S
O127   Zr145   2.057   .     S
O127   Zr147   2.057   1_455 S
O128   Zr144   2.114   .     S
O128   X151    1.299   .     A
O129   Zr145   2.114   .     S
O129   X152    1.299   .     A
O130   Zr146   2.113   1_655 S
O130   X153    1.299   .     A
O131   Zr147   2.114   .     S
O131   X154    1.299   .     A
O132   Zr147   2.113   1_455 S
O132   X155    1.299   .     A
O133   Zr146   2.113   .     S
O133   X156    1.299   .     A
O134   Zr148   2.114   .     S
O134   X157    1.299   .     A
O135   Zr148   2.113   1_455 S
O135   X158    1.299   .     A
O136   Zr146   2.112   1_655 S
O136   X157    1.299   .     A
O137   Zr147   2.115   1_455 S
O137   X158    1.300   .     A
O138   Zr144   2.114   .     S
O138   X153    1.299   .     A
O139   Zr145   2.114   .     S
O139   X156    1.299   .     A
O140   Zr145   2.114   .     S
O140   X155    1.299   .     A
O141   Zr144   2.113   .     S
O141   X154    1.299   .     A
O142   Zr148   2.112   .     S
O142   X151    1.299   .     A
O143   Zr148   2.113   1_455 S
O143   X152    1.299   .     A
Zr144  O150    2.060   .     S
Zr144  O162    2.057   .     S
Zr145  O149    2.061   .     S
Zr145  O160    2.057   .     S
Zr146  O125    2.057   1_455 S
Zr146  O130    2.113   1_455 S
Zr146  O136    2.112   1_455 S
Zr146  O150    2.060   1_455 S
Zr146  O160    2.057   .     S
Zr147  O127    2.057   1_655 S
Zr147  O132    2.113   1_655 S
Zr147  O137    2.115   1_655 S
Zr147  O149    2.061   1_655 S
Zr147  O162    2.057   .     S
Zr148  O135    2.113   1_655 S
Zr148  O143    2.113   1_655 S
Zr148  O149    2.061   1_655 S
Zr148  O150    2.060   .     S
Zr148  O162    2.057   .     S
Zr148  O160    2.057   1_655 S
O149   Zr147   2.061   1_455 S
O149   Zr148   2.061   1_455 S
O150   Zr146   2.060   1_655 S
X151   X280    1.484   .     S
X152   X340    1.484   .     S
X153   X606    1.483   .     S
X154   X686    1.484   .     S
X155   X566    1.484   .     S
X156   X646    1.483   .     S
X157   X386    1.483   .     S
X158   X526    1.484   .     S
H159   O160    0.989   .     S
O160   Zr148   2.057   1_455 S
H161   O162    0.989   .     S
O163   Zr199   2.114   .     S
O163   X174    1.299   .     A
O164   Zr198   2.115   1_545 S
O164   X175    1.300   .     A
O165   Zr171   2.113   .     S
O165   X176    1.299   .     A
O166   Zr171   2.114   .     S
O166   X177    1.299   .     A
O167   Zr201   2.112   .     S
O167   X177    1.299   .     A
O168   Zr200   2.115   1_545 S
O168   X176    1.300   .     A
O169   Zr171   2.112   .     S
O169   X175    1.299   .     A
O170   Zr171   2.114   .     S
O170   X174    1.299   .     A
Zr171  O172    2.060   .     S
Zr171  O173    2.060   .     S
Zr171  O181    2.057   .     S
Zr171  O179    2.057   .     S
O172   Zr198   2.060   1_545 S
O172   Zr201   2.060   .     S
O173   Zr199   2.061   .     S
O173   Zr200   2.061   1_545 S
X174   X286    1.484   .     S
X175   X346    1.484   .     S
X176   X506    1.484   .     S
X177   X406    1.484   .     S
H178   O179    0.989   .     S
O179   Zr198   2.057   1_545 S
O179   Zr200   2.057   1_545 S
H180   O181    0.989   .     S
O181   Zr199   2.057   .     S
O181   Zr201   2.057   .     S
O182   Zr198   2.114   .     S
O182   X205    1.299   .     A
O183   Zr199   2.115   1_565 S
O183   X206    1.300   .     A
O184   Zr200   2.114   .     S
O184   X207    1.299   .     A
O185   Zr201   2.114   .     S
O185   X208    1.299   .     A
O186   Zr201   2.113   1_565 S
O186   X209    1.299   .     A
O187   Zr200   2.113   1_545 S
O187   X210    1.299   .     A
O188   Zr202   2.113   .     S
O188   X211    1.299   .     A
O189   Zr202   2.114   .     S
O189   X212    1.299   .     A
O190   Zr200   2.114   .     S
O190   X211    1.299   .     A
O191   Zr201   2.113   1_565 S
O191   X212    1.299   .     A
O192   Zr198   2.113   .     S
O192   X207    1.299   .     A
O193   Zr199   2.114   .     S
O193   X210    1.300   .     A
O194   Zr199   2.114   1_565 S
O194   X209    1.299   .     A
O195   Zr198   2.112   1_545 S
O195   X208    1.299   .     A
O196   Zr202   2.113   .     S
O196   X205    1.299   .     A
O197   Zr202   2.112   .     S
O197   X206    1.299   .     A
Zr198  O164    2.115   1_565 S
Zr198  O172    2.060   1_565 S
Zr198  O179    2.057   1_565 S
Zr198  O195    2.112   1_565 S
Zr198  O204    2.060   .     S
Zr198  O216    2.057   .     S
Zr199  O183    2.115   1_545 S
Zr199  O194    2.114   1_545 S
Zr199  O203    2.060   1_545 S
Zr199  O214    2.057   1_545 S
Zr200  O168    2.115   1_565 S
Zr200  O173    2.061   1_565 S
Zr200  O179    2.057   1_565 S
Zr200  O187    2.113   1_565 S
Zr200  O204    2.060   .     S
Zr200  O214    2.057   .     S
Zr201  O186    2.113   1_545 S
Zr201  O191    2.113   1_545 S
Zr201  O203    2.061   1_545 S
Zr201  O216    2.057   1_545 S
Zr202  O203    2.060   .     S
Zr202  O204    2.060   .     S
Zr202  O216    2.057   .     S
Zr202  O214    2.057   .     S
O203   Zr199   2.060   1_565 S
O203   Zr201   2.061   1_565 S
X205   X246    1.484   .     S
X206   X326    1.483   .     S
X207   X546    1.484   .     S
X208   X626    1.484   .     S
X209   X586    1.484   .     S
X210   X666    1.484   .     S
X211   X446    1.483   .     S
X212   X486    1.484   .     S
H213   O214    0.989   .     S
O214   Zr199   2.057   1_565 S
H215   O216    0.989   .     S
O216   Zr201   2.057   1_565 S
C217   C218    1.407   .     A
C217   C222    1.407   1_556 A
C217   C223    1.492   .     S
C218   C219    1.399   .     A
C218   H235    1.082   .     S
C219   X220    1.406   .     A
C219   H229    1.083   .     S
X220   C221    1.406   1_556 A
C221   X220    1.406   1_554 A
C221   C222    1.398   .     A
C221   H230    1.083   .     S
C222   C217    1.407   1_554 A
C222   H233    1.082   .     S
C223   C224    1.407   .     A
C223   C228    1.407   1_556 A
C224   C225    1.399   .     A
C224   H234    1.082   .     S
C225   X226    1.406   .     A
C225   H231    1.083   .     S
X226   C227    1.406   1_556 A
C227   X226    1.406   1_554 A
C227   C228    1.399   .     A
C227   H232    1.083   .     S
C228   C223    1.407   1_554 A
C228   H236    1.082   .     S
C237   C238    1.407   .     A
C237   C242    1.408   .     A
C237   C243    1.492   .     S
C238   C239    1.398   .     A
C238   H255    1.082   .     S
C239   X240    1.406   .     A
C239   H249    1.083   .     S
X240   C241    1.406   .     A
C241   C242    1.399   .     A
C241   H250    1.083   .     S
C242   H253    1.082   .     S
C243   C244    1.407   .     A
C243   C248    1.407   .     A
C244   C245    1.399   .     A
C244   H254    1.082   .     S
C245   X246    1.406   .     A
C245   H251    1.083   .     S
X246   C247    1.406   .     A
C247   C248    1.399   .     A
C247   H252    1.083   .     S
C248   H256    1.082   .     S
C257   C258    1.407   1_556 A
C257   C262    1.408   .     A
C257   C263    1.492   .     S
C258   C257    1.407   1_554 A
C258   C259    1.398   .     A
C258   H275    1.082   .     S
C259   X260    1.406   1_554 A
C259   H269    1.083   .     S
X260   C259    1.406   1_556 A
X260   C261    1.406   .     A
C261   C262    1.399   .     A
C261   H270    1.083   .     S
C262   H273    1.082   .     S
C263   C264    1.407   1_556 A
C263   C268    1.407   .     A
C264   C263    1.407   1_554 A
C264   C265    1.399   .     A
C264   H274    1.082   .     S
C265   X266    1.406   1_554 A
C265   H271    1.083   .     S
X266   C265    1.406   1_556 A
X266   C267    1.406   .     A
C267   C268    1.399   .     A
C267   H272    1.083   .     S
C268   H276    1.082   .     S
C277   C278    1.408   .     A
C277   C282    1.407   .     A
C277   C283    1.492   .     S
C278   C279    1.399   .     A
C278   H295    1.082   .     S
C279   X280    1.406   .     A
C279   H289    1.083   .     S
X280   C281    1.406   .     A
C281   C282    1.398   .     A
C281   H290    1.083   .     S
C282   H293    1.082   .     S
C283   C284    1.407   .     A
C283   C288    1.407   .     A
C284   C285    1.399   .     A
C284   H294    1.082   .     S
C285   X286    1.406   .     A
C285   H291    1.083   .     S
X286   C287    1.406   .     A
C287   C288    1.399   .     A
C287   H292    1.083   .     S
C288   H296    1.082   .     S
C297   C298    1.407   .     A
C297   C302    1.407   1_554 A
C297   C303    1.492   .     S
C298   C299    1.399   .     A
C298   H315    1.082   .     S
C299   X300    1.406   .     A
C299   H309    1.083   .     S
X300   C301    1.406   1_554 A
C301   X300    1.406   1_556 A
C301   C302    1.398   .     A
C301   H310    1.083   .     S
C302   C297    1.407   1_556 A
C302   H313    1.082   .     S
C303   C304    1.407   .     A
C303   C308    1.407   1_554 A
C304   C305    1.399   .     A
C304   H314    1.082   .     S
C305   X306    1.406   .     A
C305   H311    1.083   .     S
X306   C307    1.406   1_554 A
C307   X306    1.406   1_556 A
C307   C308    1.399   .     A
C307   H312    1.083   .     S
C308   C303    1.407   1_556 A
C308   H316    1.082   .     S
C317   C318    1.407   .     A
C317   C322    1.407   .     A
C317   C323    1.492   .     S
C318   C319    1.399   .     A
C318   H335    1.082   .     S
C319   X320    1.406   .     A
C319   H329    1.083   .     S
X320   C321    1.406   .     A
C321   C322    1.399   .     A
C321   H330    1.083   .     S
C322   H333    1.082   .     S
C323   C324    1.408   .     A
C323   C328    1.407   .     A
C324   C325    1.399   .     A
C324   H334    1.082   .     S
C325   X326    1.406   .     A
C325   H331    1.083   .     S
X326   C327    1.406   .     A
C327   C328    1.398   .     A
C327   H332    1.083   .     S
C328   H336    1.082   .     S
C337   C338    1.408   .     A
C337   C342    1.407   .     A
C337   C343    1.492   .     S
C338   C339    1.399   .     A
C338   H355    1.082   .     S
C339   X340    1.406   .     A
C339   H349    1.083   .     S
X340   C341    1.406   .     A
C341   C342    1.399   .     A
C341   H350    1.083   .     S
C342   H353    1.082   .     S
C343   C344    1.408   .     A
C343   C348    1.407   .     A
C344   C345    1.399   .     A
C344   H354    1.082   .     S
C345   X346    1.406   .     A
C345   H351    1.083   .     S
X346   C347    1.406   .     A
C347   C348    1.398   .     A
C347   H352    1.083   .     S
C348   H356    1.082   .     S
C357   C358    1.407   1_554 A
C357   C362    1.408   .     A
C357   C363    1.492   .     S
C358   C357    1.407   1_556 A
C358   C359    1.399   .     A
C358   H375    1.082   .     S
C359   X360    1.406   1_556 A
C359   H369    1.083   .     S
X360   C359    1.406   1_554 A
X360   C361    1.406   .     A
C361   C362    1.399   .     A
C361   H370    1.083   .     S
C362   H373    1.082   .     S
C363   C364    1.407   1_554 A
C363   C368    1.408   .     A
C364   C363    1.407   1_556 A
C364   C365    1.398   .     A
C364   H374    1.082   .     S
C365   X366    1.406   1_556 A
C365   H371    1.083   .     S
X366   C365    1.406   1_554 A
X366   C367    1.406   .     A
C367   C368    1.399   .     A
C367   H372    1.083   .     S
C368   H376    1.082   .     S
C377   C378    1.407   1_655 A
C377   C382    1.407   .     A
C377   C383    1.492   .     S
C378   C377    1.407   1_455 A
C378   C379    1.399   .     A
C378   H395    1.082   .     S
C379   X380    1.406   1_455 A
C379   H389    1.083   .     S
X380   C379    1.406   1_655 A
X380   C381    1.406   .     A
C381   C382    1.399   .     A
C381   H390    1.083   .     S
C382   H393    1.082   .     S
C383   C384    1.407   1_655 A
C383   C388    1.407   .     A
C384   C383    1.407   1_455 A
C384   C385    1.398   .     A
C384   H394    1.082   .     S
C385   X386    1.406   1_455 A
C385   H391    1.083   .     S
X386   C385    1.406   1_655 A
X386   C387    1.406   .     A
C387   C388    1.399   .     A
C387   H392    1.083   .     S
C388   H396    1.082   .     S
C397   C398    1.407   .     A
C397   C402    1.407   .     A
C397   C403    1.492   .     S
C398   C399    1.399   .     A
C398   H415    1.082   .     S
C399   X400    1.406   .     A
C399   H409    1.083   .     S
X400   C401    1.406   .     A
C401   C402    1.399   .     A
C401   H410    1.083   .     S
C402   H413    1.082   .     S
C403   C404    1.407   .     A
C403   C408    1.407   .     A
C404   C405    1.399   .     A
C404   H414    1.082   .     S
C405   X406    1.406   .     A
C405   H411    1.083   .     S
X406   C407    1.406   .     A
C407   C408    1.398   .     A
C407   H412    1.083   .     S
C408   H416    1.082   .     S
C417   C418    1.407   1_655 A
C417   C422    1.407   .     A
C417   C423    1.492   .     S
C418   C417    1.407   1_455 A
C418   C419    1.399   .     A
C418   H435    1.082   .     S
C419   X420    1.406   1_455 A
C419   H429    1.083   .     S
X420   C419    1.406   1_655 A
X420   C421    1.406   .     A
C421   C422    1.399   .     A
C421   H430    1.083   .     S
C422   H433    1.082   .     S
C423   C424    1.407   1_655 A
C423   C428    1.408   .     A
C424   C423    1.407   1_455 A
C424   C425    1.399   .     A
C424   H434    1.082   .     S
C425   X426    1.406   1_455 A
C425   H431    1.083   .     S
X426   C425    1.406   1_655 A
X426   C427    1.406   .     A
C427   C428    1.399   .     A
C427   H432    1.083   .     S
C428   H436    1.082   .     S
C437   C438    1.407   .     A
C437   C442    1.407   .     A
C437   C443    1.492   .     S
C438   C439    1.399   .     A
C438   H455    1.082   .     S
C439   X440    1.406   .     A
C439   H449    1.083   .     S
X440   C441    1.406   .     A
C441   C442    1.398   .     A
C441   H450    1.083   .     S
C442   H453    1.082   .     S
C443   C444    1.407   .     A
C443   C448    1.407   .     A
C444   C445    1.399   .     A
C444   H454    1.082   .     S
C445   X446    1.406   .     A
C445   H451    1.083   .     S
X446   C447    1.406   .     A
C447   C448    1.399   .     A
C447   H452    1.083   .     S
C448   H456    1.082   .     S
C457   C458    1.407   .     A
C457   C462    1.407   1_455 A
C457   C463    1.492   .     S
C458   C459    1.399   .     A
C458   H475    1.082   .     S
C459   X460    1.406   .     A
C459   H469    1.083   .     S
X460   C461    1.406   1_455 A
C461   X460    1.406   1_655 A
C461   C462    1.398   .     A
C461   H470    1.083   .     S
C462   C457    1.407   1_655 A
C462   H473    1.082   .     S
C463   C464    1.407   .     A
C463   C468    1.407   1_455 A
C464   C465    1.399   .     A
C464   H474    1.082   .     S
C465   X466    1.406   .     A
C465   H471    1.083   .     S
X466   C467    1.406   1_455 A
C467   X466    1.406   1_655 A
C467   C468    1.399   .     A
C467   H472    1.083   .     S
C468   C463    1.407   1_655 A
C468   H476    1.082   .     S
C477   C478    1.407   .     A
C477   C482    1.408   .     A
C477   C483    1.492   .     S
C478   C479    1.398   .     A
C478   H495    1.082   .     S
C479   X480    1.406   .     A
C479   H489    1.083   .     S
X480   C481    1.406   .     A
C481   C482    1.399   .     A
C481   H490    1.083   .     S
C482   H493    1.082   .     S
C483   C484    1.407   .     A
C483   C488    1.407   .     A
C484   C485    1.399   .     A
C484   H494    1.082   .     S
C485   X486    1.406   .     A
C485   H491    1.083   .     S
X486   C487    1.406   .     A
C487   C488    1.399   .     A
C487   H492    1.083   .     S
C488   H496    1.082   .     S
C497   C498    1.407   .     A
C497   C502    1.407   .     A
C497   C503    1.492   .     S
C498   C499    1.399   .     A
C498   H515    1.082   .     S
C499   X500    1.406   .     A
C499   H509    1.083   .     S
X500   C501    1.406   .     A
C501   C502    1.399   .     A
C501   H510    1.083   .     S
C502   H513    1.082   .     S
C503   C504    1.407   .     A
C503   C508    1.408   .     A
C504   C505    1.398   .     A
C504   H514    1.082   .     S
C505   X506    1.406   .     A
C505   H511    1.083   .     S
X506   C507    1.406   .     A
C507   C508    1.399   .     A
C507   H512    1.083   .     S
C508   H516    1.082   .     S
C517   C518    1.407   .     A
C517   C522    1.407   1_455 A
C517   C523    1.492   .     S
C518   C519    1.399   .     A
C518   H535    1.082   .     S
C519   X520    1.406   .     A
C519   H529    1.083   .     S
X520   C521    1.406   1_455 A
C521   X520    1.406   1_655 A
C521   C522    1.399   .     A
C521   H530    1.083   .     S
C522   C517    1.407   1_655 A
C522   H533    1.082   .     S
C523   C524    1.408   .     A
C523   C528    1.407   1_455 A
C524   C525    1.399   .     A
C524   H534    1.082   .     S
C525   X526    1.406   .     A
C525   H531    1.083   .     S
X526   C527    1.406   1_455 A
C527   X526    1.406   1_655 A
C527   C528    1.399   .     A
C527   H532    1.083   .     S
C528   C523    1.407   1_655 A
C528   H536    1.082   .     S
C537   C538    1.407   1_565 A
C537   C542    1.407   .     A
C537   C543    1.492   .     S
C538   C537    1.407   1_545 A
C538   C539    1.399   .     A
C538   H555    1.082   .     S
C539   X540    1.406   1_545 A
C539   H549    1.083   .     S
X540   C539    1.406   1_565 A
X540   C541    1.406   .     A
C541   C542    1.399   .     A
C541   H550    1.083   .     S
C542   H553    1.082   .     S
C543   C544    1.407   1_565 A
C543   C548    1.407   .     A
C544   C543    1.407   1_545 A
C544   C545    1.398   .     A
C544   H554    1.082   .     S
C545   X546    1.406   1_545 A
C545   H551    1.083   .     S
X546   C545    1.406   1_565 A
X546   C547    1.406   .     A
C547   C548    1.399   .     A
C547   H552    1.083   .     S
C548   H556    1.082   .     S
C557   C558    1.407   .     A
C557   C562    1.407   .     A
C557   C563    1.492   .     S
C558   C559    1.399   .     A
C558   H575    1.082   .     S
C559   X560    1.406   .     A
C559   H569    1.083   .     S
X560   C561    1.406   .     A
C561   C562    1.399   .     A
C561   H570    1.083   .     S
C562   H573    1.082   .     S
C563   C564    1.407   .     A
C563   C568    1.407   .     A
C564   C565    1.399   .     A
C564   H574    1.082   .     S
C565   X566    1.406   .     A
C565   H571    1.083   .     S
X566   C567    1.406   .     A
C567   C568    1.399   .     A
C567   H572    1.083   .     S
C568   H576    1.082   .     S
C577   C578    1.407   1_565 A
C577   C582    1.408   .     A
C577   C583    1.492   .     S
C578   C577    1.407   1_545 A
C578   C579    1.399   .     A
C578   H595    1.082   .     S
C579   X580    1.406   1_545 A
C579   H589    1.083   .     S
X580   C579    1.406   1_565 A
X580   C581    1.406   .     A
C581   C582    1.399   .     A
C581   H590    1.083   .     S
C582   H593    1.082   .     S
C583   C584    1.407   1_565 A
C583   C588    1.408   .     A
C584   C583    1.407   1_545 A
C584   C585    1.399   .     A
C584   H594    1.082   .     S
C585   X586    1.406   1_545 A
C585   H591    1.083   .     S
X586   C585    1.406   1_565 A
X586   C587    1.406   .     A
C587   C588    1.399   .     A
C587   H592    1.083   .     S
C588   H596    1.082   .     S
C597   C598    1.407   .     A
C597   C602    1.407   .     A
C597   C603    1.492   .     S
C598   C599    1.399   .     A
C598   H615    1.082   .     S
C599   X600    1.406   .     A
C599   H609    1.083   .     S
X600   C601    1.406   .     A
C601   C602    1.398   .     A
C601   H610    1.083   .     S
C602   H613    1.082   .     S
C603   C604    1.407   .     A
C603   C608    1.407   .     A
C604   C605    1.399   .     A
C604   H614    1.082   .     S
C605   X606    1.406   .     A
C605   H611    1.083   .     S
X606   C607    1.406   .     A
C607   C608    1.399   .     A
C607   H612    1.083   .     S
C608   H616    1.082   .     S
C617   C618    1.407   1_545 A
C617   C622    1.408   .     A
C617   C623    1.492   .     S
C618   C617    1.407   1_565 A
C618   C619    1.398   .     A
C618   H635    1.082   .     S
C619   X620    1.406   1_565 A
C619   H629    1.083   .     S
X620   C619    1.406   1_545 A
X620   C621    1.406   .     A
C621   C622    1.399   .     A
C621   H630    1.083   .     S
C622   H633    1.082   .     S
C623   C624    1.407   1_545 A
C623   C628    1.407   .     A
C624   C623    1.407   1_565 A
C624   C625    1.398   .     A
C624   H634    1.082   .     S
C625   X626    1.406   1_565 A
C625   H631    1.083   .     S
X626   C625    1.406   1_545 A
X626   C627    1.406   .     A
C627   C628    1.399   .     A
C627   H632    1.083   .     S
C628   H636    1.082   .     S
C637   C638    1.407   .     A
C637   C642    1.408   .     A
C637   C643    1.492   .     S
C638   C639    1.398   .     A
C638   H655    1.082   .     S
C639   X640    1.406   .     A
C639   H649    1.083   .     S
X640   C641    1.406   .     A
C641   C642    1.399   .     A
C641   H650    1.083   .     S
C642   H653    1.082   .     S
C643   C644    1.407   .     A
C643   C648    1.408   .     A
C644   C645    1.399   .     A
C644   H654    1.082   .     S
C645   X646    1.406   .     A
C645   H651    1.083   .     S
X646   C647    1.406   .     A
C647   C648    1.399   .     A
C647   H652    1.083   .     S
C648   H656    1.082   .     S
C657   C658    1.407   1_545 A
C657   C662    1.407   .     A
C657   C663    1.492   .     S
C658   C657    1.407   1_565 A
C658   C659    1.399   .     A
C658   H675    1.082   .     S
C659   X660    1.406   1_565 A
C659   H669    1.083   .     S
X660   C659    1.406   1_545 A
X660   C661    1.406   .     A
C661   C662    1.399   .     A
C661   H670    1.083   .     S
C662   H673    1.082   .     S
C663   C664    1.407   1_545 A
C663   C668    1.407   .     A
C664   C663    1.407   1_565 A
C664   C665    1.399   .     A
C664   H674    1.082   .     S
C665   X666    1.406   1_565 A
C665   H671    1.083   .     S
X666   C665    1.406   1_545 A
X666   C667    1.406   .     A
C667   C668    1.399   .     A
C667   H672    1.083   .     S
C668   H676    1.082   .     S
C677   C678    1.407   .     A
C677   C682    1.407   .     A
C677   C683    1.492   .     S
C678   C679    1.399   .     A
C678   H695    1.082   .     S
C679   X680    1.406   .     A
C679   H689    1.083   .     S
X680   C681    1.406   .     A
C681   C682    1.399   .     A
C681   H690    1.083   .     S
C682   H693    1.082   .     S
C683   C684    1.407   .     A
C683   C688    1.407   .     A
C684   C685    1.399   .     A
C684   H694    1.082   .     S
C685   X686    1.406   .     A
C685   H691    1.083   .     S
X686   C687    1.406   .     A
C687   C688    1.399   .     A
C687   H692    1.083   .     S
C688   H696    1.082   .     S
