data_image0
_cell_length_a       46.374
_cell_length_b       51.581
_cell_length_c       53.407
_cell_angle_alpha    90
_cell_angle_beta     90
_cell_angle_gamma    90

_symmetry_space_group_name_H-M    "P 1"
_symmetry_int_tables_number       1

loop_
  _symmetry_equiv_pos_as_xyz
  'x, y, z'

loop_
  _atom_site_label
  _atom_site_occupancy
  _atom_site_fract_x
  _atom_site_fract_y
  _atom_site_fract_z
  _atom_site_thermal_displace_type
  _atom_site_B_iso_or_equiv
  _atom_site_type_symbol
  C1       1.0000 0.49490  0.52040  0.79100  Biso   1.000  C
  C2       1.0000 0.46990  0.51670  0.77670  Biso   1.000  C
  C3       1.0000 0.44310  0.51130  0.78750  Biso   1.000  C
  C4       1.0000 0.44150  0.50730  0.81310  Biso   1.000  C
  C5       1.0000 0.46510  0.50990  0.82800  Biso   1.000  C
  C6       1.0000 0.49120  0.51770  0.81700  Biso   1.000  C
  C7       1.0000 0.76840  0.50960  0.93440  Biso   1.000  C
  C8       1.0000 0.76730  0.49580  0.95680  Biso   1.000  C
  C9       1.0000 0.76130  0.46790  0.95690  Biso   1.000  C
  C10      1.0000 0.75750  0.45450  0.93670  Biso   1.000  C
  C11      1.0000 0.75920  0.46940  0.91520  Biso   1.000  C
  C12      1.0000 0.76540  0.49580  0.91410  Biso   1.000  C
  C13      1.0000 0.66170  0.49560  0.95080  Biso   1.000  C
  C14      1.0000 0.63520  0.48530  0.95330  Biso   1.000  C
  C15      1.0000 0.62610  0.46040  0.96650  Biso   1.000  C
  C16      1.0000 0.64810  0.44980  0.97890  Biso   1.000  C
  C17      1.0000 0.67730  0.45620  0.97540  Biso   1.000  C
  C18      1.0000 0.68390  0.47720  0.96050  Biso   1.000  C
  C19      1.0000 0.47890  0.59710  0.80820  Biso   1.000  C
  C20      1.0000 0.45600  0.57980  0.80250  Biso   1.000  C
  C21      1.0000 0.43530  0.58870  0.78520  Biso   1.000  C
  C22      1.0000 0.43640  0.61500  0.77350  Biso   1.000  C
  C23      1.0000 0.46000  0.63090  0.77900  Biso   1.000  C
  C24      1.0000 0.48130  0.62170  0.79740  Biso   1.000  C
  C25      1.0000 0.50670  0.51460  0.88740  Biso   1.000  C
  C26      1.0000 0.50970  0.49000  0.88150  Biso   1.000  C
  C27      1.0000 0.48670  0.47200  0.89180  Biso   1.000  C
  C28      1.0000 0.46480  0.48320  0.90850  Biso   1.000  C
  C29      1.0000 0.45970  0.51070  0.90890  Biso   1.000  C
  C30      1.0000 0.48160  0.52640  0.89400  Biso   1.000  C
  C31      1.0000 0.49030  0.56340  0.94870  Biso   1.000  C
  C32      1.0000 0.50560  0.54470  0.95840  Biso   1.000  C
  C33      1.0000 0.49440  0.52590  0.97370  Biso   1.000  C
  C34      1.0000 0.46500  0.52790  0.98290  Biso   1.000  C
  C35      1.0000 0.44640  0.54650  0.97230  Biso   1.000  C
  C36      1.0000 0.46030  0.56550  0.95410  Biso   1.000  C
  C37      1.0000 0.54460  0.58460  0.00300  Biso   1.000  C
  C38      1.0000 0.55840  0.56210  0.00840  Biso   1.000  C
  C39      1.0000 0.54660  0.54360  0.02360  Biso   1.000  C
  C40      1.0000 0.51960  0.54870  0.03540  Biso   1.000  C
  C41      1.0000 0.50750  0.57190  0.03070  Biso   1.000  C
  C42      1.0000 0.51690  0.58600  0.01300  Biso   1.000  C
  C43      1.0000 0.59410  0.47600  0.90160  Biso   1.000  C
  C44      1.0000 0.57250  0.48420  0.91700  Biso   1.000  C
  C45      1.0000 0.55560  0.46640  0.93350  Biso   1.000  C
  C46      1.0000 0.56370  0.43800  0.93110  Biso   1.000  C
  C47      1.0000 0.58940  0.43140  0.91420  Biso   1.000  C
  C48      1.0000 0.60270  0.45060  0.89750  Biso   1.000  C
  C49      1.0000 0.58470  0.45270  0.83180  Biso   1.000  C
  C50      1.0000 0.57200  0.42830  0.83830  Biso   1.000  C
  C51      1.0000 0.59400  0.41090  0.84340  Biso   1.000  C
  C52      1.0000 0.62190  0.41380  0.83610  Biso   1.000  C
  C53      1.0000 0.63280  0.43640  0.83200  Biso   1.000  C
  C54      1.0000 0.61260  0.45910  0.82870  Biso   1.000  C
  C55      1.0000 0.53664  0.61283  0.75344  Biso   1.000  C
  C56      1.0000 0.53030  0.63916  0.75350  Biso   1.000  C
  C57      1.0000 0.50810  0.64867  0.73858  Biso   1.000  C
  C58      1.0000 0.49230  0.63180  0.72359  Biso   1.000  C
  C59      1.0000 0.49870  0.60550  0.72353  Biso   1.000  C
  C60      1.0000 0.52082  0.59600  0.73845  Biso   1.000  C
  C61      1.0000 0.60850  0.51531  0.74000  Biso   1.000  C
  C62      1.0000 0.59130  0.53678  0.73510  Biso   1.000  C
  C63      1.0000 0.58720  0.54509  0.71063  Biso   1.000  C
  C64      1.0000 0.60030  0.53190  0.69100  Biso   1.000  C
  C65      1.0000 0.61750  0.51050  0.69580  Biso   1.000  C
  C66      1.0000 0.62170  0.50220  0.72030  Biso   1.000  C
  C67      1.0000 0.67500  0.56139  0.75390  Biso   1.000  C
  C68      1.0000 0.67230  0.55115  0.72990  Biso   1.000  C
  C69      1.0000 0.69600  0.53968  0.71840  Biso   1.000  C
  C70      1.0000 0.72230  0.53844  0.73080  Biso   1.000  C
  C71      1.0000 0.72500  0.54867  0.75470  Biso   1.000  C
  C72      1.0000 0.70130  0.56015  0.76630  Biso   1.000  C
  C73      1.0000 0.45610  0.64820  0.87170  Biso   1.000  C
  C74      1.0000 0.45860  0.62690  0.85590  Biso   1.000  C
  C75      1.0000 0.43580  0.62020  0.84030  Biso   1.000  C
  C76      1.0000 0.41070  0.63490  0.84030  Biso   1.000  C
  C77      1.0000 0.40820  0.65620  0.85610  Biso   1.000  C
  C78      1.0000 0.43100  0.66290  0.87170  Biso   1.000  C
  C79      1.0000 0.63370  0.55170  0.01040  Biso   1.000  C
  C80      1.0000 0.62440  0.52930  0.99830  Biso   1.000  C
  C81      1.0000 0.61500  0.50720  0.01540  Biso   1.000  C
  C82      1.0000 0.61710  0.50850  0.04080  Biso   1.000  C
  C83      1.0000 0.62610  0.53100  0.05050  Biso   1.000  C
  C84      1.0000 0.63700  0.55260  0.03540  Biso   1.000  C
  C85      1.0000 0.72350  0.56060  0.02240  Biso   1.000  C
  C86      1.0000 0.73570  0.54900  0.04280  Biso   1.000  C
  C87      1.0000 0.73530  0.56230  0.06720  Biso   1.000  C
  C88      1.0000 0.72430  0.58860  0.06900  Biso   1.000  C
  C89      1.0000 0.71530  0.60170  0.04520  Biso   1.000  C
  C90      1.0000 0.71370  0.58650  0.02390  Biso   1.000  C
  C91      1.0000 0.75020  0.52900  0.85290  Biso   1.000  C
  C92      1.0000 0.75900  0.50380  0.84770  Biso   1.000  C
  C93      1.0000 0.78150  0.49940  0.83100  Biso   1.000  C
  C94      1.0000 0.79520  0.52020  0.81960  Biso   1.000  C
  C95      1.0000 0.78640  0.54540  0.82480  Biso   1.000  C
  C96      1.0000 0.76400  0.54980  0.84150  Biso   1.000  C
  C97      1.0000 0.80330  0.61970  0.96650  Biso   1.000  C
  C98      1.0000 0.82550  0.62910  0.98300  Biso   1.000  C
  C99      1.0000 0.85420  0.63550  0.97400  Biso   1.000  C
  C100     1.0000 0.85890  0.63520  0.94580  Biso   1.000  C
  C101     1.0000 0.83530  0.62450  0.92810  Biso   1.000  C
  C102     1.0000 0.80850  0.61750  0.94040  Biso   1.000  C
  C103     1.0000 0.58880  0.44010  0.74710  Biso   1.000  C
  C104     1.0000 0.59470  0.44450  0.72040  Biso   1.000  C
  C105     1.0000 0.62280  0.43710  0.71170  Biso   1.000  C
  C106     1.0000 0.64320  0.42870  0.72740  Biso   1.000  C
  C107     1.0000 0.63760  0.42340  0.75370  Biso   1.000  C
  C108     1.0000 0.60970  0.43040  0.76430  Biso   1.000  C
  Cd1      1.0000 0.60641  0.58980  0.85400  Biso   1.000  Cd
  Cd2      1.0000 0.54925  0.56788  0.90800  Biso   1.000  Cd
  Cd3      1.0000 0.66414  0.60793  0.90674  Biso   1.000  Cd
  Cd4      1.0000 0.60245  0.58839  0.96000  Biso   1.000  Cd
  Cd5      1.0000 0.62675  0.53699  0.91043  Biso   1.000  Cd
  Cd6      1.0000 0.52657  0.62468  0.85291  Biso   1.000  Cd
  Cd7      1.0000 0.66788  0.61063  0.79957  Biso   1.000  Cd
  Cd8      1.0000 0.68306  0.55938  0.96597  Biso   1.000  Cd
  Cd9      1.0000 0.72996  0.62762  0.95255  Biso   1.000  Cd
  Cd10     1.0000 0.54319  0.56778  0.80359  Biso   1.000  Cd
  Cd11     1.0000 0.62619  0.54290  0.79471  Biso   1.000  Cd
  Cd12     1.0000 0.68458  0.55729  0.84955  Biso   1.000  Cd
  Cd13     1.0000 0.73966  0.56508  0.90576  Biso   1.000  Cd
  Cd14     1.0000 0.57589  0.51496  0.85397  Biso   1.000  Cd
  S1       1.0000 0.64599  0.57106  0.88030  Biso   1.000  S
  S2       1.0000 0.58784  0.55345  0.82662  Biso   1.000  S
  S3       1.0000 0.56571  0.60581  0.88070  Biso   1.000  S
  S4       1.0000 0.58547  0.54980  0.93716  Biso   1.000  S
  S5       1.0000 0.70446  0.58943  0.93315  Biso   1.000  S
  S6       1.0000 0.61439  0.49823  0.88251  Biso   1.000  S
  S7       1.0000 0.70761  0.59103  0.82358  Biso   1.000  S
  S8       1.0000 0.55987  0.60914  0.98279  Biso   1.000  S
  S9       1.0000 0.64297  0.57906  0.99166  Biso   1.000  S
  S10      1.0000 0.67157  0.52354  0.93524  Biso   1.000  S
  S11      1.0000 0.50228  0.58533  0.92669  Biso   1.000  S
  S12      1.0000 0.53232  0.53638  0.87386  Biso   1.000  S
  Cd15     1.0000 0.76865  0.56045  0.97596  Biso   1.000  Cd
  Cd16     1.0000 0.56125  0.49211  0.78198  Biso   1.000  Cd
  S13      1.0000 0.72236  0.54237  0.99463  Biso   1.000  S
  S14      1.0000 0.52641  0.52976  0.77631  Biso   1.000  S
  S15      1.0000 0.65998  0.52063  0.82542  Biso   1.000  S
  S16      1.0000 0.50359  0.58595  0.83051  Biso   1.000  S
  S17      1.0000 0.49224  0.64271  0.88632  Biso   1.000  S
  S18      1.0000 0.77042  0.61007  0.97849  Biso   1.000  S
  S19      1.0000 0.61126  0.50479  0.76825  Biso   1.000  S
  S20      1.0000 0.72211  0.53236  0.87500  Biso   1.000  S
  S21      1.0000 0.55727  0.47771  0.82762  Biso   1.000  S
  S22      1.0000 0.64310  0.58050  0.76838  Biso   1.000  S
  S23      1.0000 0.77790  0.54321  0.93287  Biso   1.000  S
  S24      1.0000 0.56630  0.60011  0.77371  Biso   1.000  S
  S25      1.0000 0.55512  0.44915  0.75982  Biso   1.000  S
  C109     1.0000 0.68640  0.49840  0.80620  Biso   1.000  C
  C110     1.0000 0.70490  0.47590  0.77090  Biso   1.000  C
  C111     1.0000 0.68370  0.49110  0.78160  Biso   1.000  C
  C112     1.0000 0.70150  0.51670  0.79340  Biso   1.000  C
  C113     1.0000 0.49490  0.02040  0.29100  Biso   1.000  C
  C114     1.0000 0.46990  0.01670  0.27670  Biso   1.000  C
  C115     1.0000 0.44310  0.01130  0.28750  Biso   1.000  C
  C116     1.0000 0.44150  0.00730  0.31310  Biso   1.000  C
  C117     1.0000 0.46510  0.00990  0.32800  Biso   1.000  C
  C118     1.0000 0.49120  0.01770  0.31700  Biso   1.000  C
  C119     1.0000 0.76840  0.00960  0.43440  Biso   1.000  C
  C120     1.0000 0.76730  0.99580  0.45680  Biso   1.000  C
  C121     1.0000 0.76130  0.96790  0.45690  Biso   1.000  C
  C122     1.0000 0.75750  0.95450  0.43670  Biso   1.000  C
  C123     1.0000 0.75920  0.96940  0.41520  Biso   1.000  C
  C124     1.0000 0.76540  0.99580  0.41410  Biso   1.000  C
  C125     1.0000 0.66170  0.99560  0.45080  Biso   1.000  C
  C126     1.0000 0.63520  0.98530  0.45330  Biso   1.000  C
  C127     1.0000 0.62610  0.96040  0.46650  Biso   1.000  C
  C128     1.0000 0.64810  0.94980  0.47890  Biso   1.000  C
  C129     1.0000 0.67730  0.95620  0.47540  Biso   1.000  C
  C130     1.0000 0.68390  0.97720  0.46050  Biso   1.000  C
  C131     1.0000 0.47890  0.09710  0.30820  Biso   1.000  C
  C132     1.0000 0.45600  0.07980  0.30250  Biso   1.000  C
  C133     1.0000 0.43530  0.08870  0.28520  Biso   1.000  C
  C134     1.0000 0.43640  0.11500  0.27350  Biso   1.000  C
  C135     1.0000 0.46000  0.13090  0.27900  Biso   1.000  C
  C136     1.0000 0.48130  0.12170  0.29740  Biso   1.000  C
  C137     1.0000 0.50670  0.01460  0.38740  Biso   1.000  C
  C138     1.0000 0.50970  0.99000  0.38150  Biso   1.000  C
  C139     1.0000 0.48670  0.97200  0.39180  Biso   1.000  C
  C140     1.0000 0.46480  0.98320  0.40850  Biso   1.000  C
  C141     1.0000 0.45970  0.01070  0.40890  Biso   1.000  C
  C142     1.0000 0.48160  0.02640  0.39400  Biso   1.000  C
  C143     1.0000 0.49030  0.06340  0.44870  Biso   1.000  C
  C144     1.0000 0.50560  0.04470  0.45840  Biso   1.000  C
  C145     1.0000 0.49440  0.02590  0.47370  Biso   1.000  C
  C146     1.0000 0.46500  0.02790  0.48290  Biso   1.000  C
  C147     1.0000 0.44640  0.04650  0.47230  Biso   1.000  C
  C148     1.0000 0.46030  0.06550  0.45410  Biso   1.000  C
  C149     1.0000 0.54460  0.08460  0.50300  Biso   1.000  C
  C150     1.0000 0.55840  0.06210  0.50840  Biso   1.000  C
  C151     1.0000 0.54660  0.04360  0.52360  Biso   1.000  C
  C152     1.0000 0.51960  0.04870  0.53540  Biso   1.000  C
  C153     1.0000 0.50750  0.07190  0.53070  Biso   1.000  C
  C154     1.0000 0.51690  0.08600  0.51300  Biso   1.000  C
  C155     1.0000 0.59410  0.97600  0.40160  Biso   1.000  C
  C156     1.0000 0.57250  0.98420  0.41700  Biso   1.000  C
  C157     1.0000 0.55560  0.96640  0.43350  Biso   1.000  C
  C158     1.0000 0.56370  0.93800  0.43110  Biso   1.000  C
  C159     1.0000 0.58940  0.93140  0.41420  Biso   1.000  C
  C160     1.0000 0.60270  0.95060  0.39750  Biso   1.000  C
  C161     1.0000 0.58470  0.95270  0.33180  Biso   1.000  C
  C162     1.0000 0.57200  0.92830  0.33830  Biso   1.000  C
  C163     1.0000 0.59400  0.91090  0.34340  Biso   1.000  C
  C164     1.0000 0.62190  0.91380  0.33610  Biso   1.000  C
  C165     1.0000 0.63280  0.93640  0.33200  Biso   1.000  C
  C166     1.0000 0.61260  0.95910  0.32870  Biso   1.000  C
  C167     1.0000 0.53664  0.11283  0.25344  Biso   1.000  C
  C168     1.0000 0.53030  0.13916  0.25350  Biso   1.000  C
  C169     1.0000 0.50810  0.14867  0.23858  Biso   1.000  C
  C170     1.0000 0.49230  0.13180  0.22359  Biso   1.000  C
  C171     1.0000 0.49870  0.10550  0.22353  Biso   1.000  C
  C172     1.0000 0.52082  0.09600  0.23845  Biso   1.000  C
  C173     1.0000 0.60850  0.01531  0.24000  Biso   1.000  C
  C174     1.0000 0.59130  0.03678  0.23510  Biso   1.000  C
  C175     1.0000 0.58720  0.04509  0.21063  Biso   1.000  C
  C176     1.0000 0.60030  0.03190  0.19100  Biso   1.000  C
  C177     1.0000 0.61750  0.01050  0.19580  Biso   1.000  C
  C178     1.0000 0.62170  0.00220  0.22030  Biso   1.000  C
  C179     1.0000 0.67500  0.06139  0.25390  Biso   1.000  C
  C180     1.0000 0.67230  0.05115  0.22990  Biso   1.000  C
  C181     1.0000 0.69600  0.03968  0.21840  Biso   1.000  C
  C182     1.0000 0.72230  0.03844  0.23080  Biso   1.000  C
  C183     1.0000 0.72500  0.04867  0.25470  Biso   1.000  C
  C184     1.0000 0.70130  0.06015  0.26630  Biso   1.000  C
  C185     1.0000 0.45610  0.14820  0.37170  Biso   1.000  C
  C186     1.0000 0.45860  0.12690  0.35590  Biso   1.000  C
  C187     1.0000 0.43580  0.12020  0.34030  Biso   1.000  C
  C188     1.0000 0.41070  0.13490  0.34030  Biso   1.000  C
  C189     1.0000 0.40820  0.15620  0.35610  Biso   1.000  C
  C190     1.0000 0.43100  0.16290  0.37170  Biso   1.000  C
  C191     1.0000 0.63370  0.05170  0.51040  Biso   1.000  C
  C192     1.0000 0.62440  0.02930  0.49830  Biso   1.000  C
  C193     1.0000 0.61500  0.00720  0.51540  Biso   1.000  C
  C194     1.0000 0.61710  0.00850  0.54080  Biso   1.000  C
  C195     1.0000 0.62610  0.03100  0.55050  Biso   1.000  C
  C196     1.0000 0.63700  0.05260  0.53540  Biso   1.000  C
  C197     1.0000 0.72350  0.06060  0.52240  Biso   1.000  C
  C198     1.0000 0.73570  0.04900  0.54280  Biso   1.000  C
  C199     1.0000 0.73530  0.06230  0.56720  Biso   1.000  C
  C200     1.0000 0.72430  0.08860  0.56900  Biso   1.000  C
  C201     1.0000 0.71530  0.10170  0.54520  Biso   1.000  C
  C202     1.0000 0.71370  0.08650  0.52390  Biso   1.000  C
  C203     1.0000 0.75020  0.02900  0.35290  Biso   1.000  C
  C204     1.0000 0.75900  0.00380  0.34770  Biso   1.000  C
  C205     1.0000 0.78150  0.99940  0.33100  Biso   1.000  C
  C206     1.0000 0.79520  0.02020  0.31960  Biso   1.000  C
  C207     1.0000 0.78640  0.04540  0.32480  Biso   1.000  C
  C208     1.0000 0.76400  0.04980  0.34150  Biso   1.000  C
  C209     1.0000 0.80330  0.11970  0.46650  Biso   1.000  C
  C210     1.0000 0.82550  0.12910  0.48300  Biso   1.000  C
  C211     1.0000 0.85420  0.13550  0.47400  Biso   1.000  C
  C212     1.0000 0.85890  0.13520  0.44580  Biso   1.000  C
  C213     1.0000 0.83530  0.12450  0.42810  Biso   1.000  C
  C214     1.0000 0.80850  0.11750  0.44040  Biso   1.000  C
  C215     1.0000 0.58880  0.94010  0.24710  Biso   1.000  C
  C216     1.0000 0.59470  0.94450  0.22040  Biso   1.000  C
  C217     1.0000 0.62280  0.93710  0.21170  Biso   1.000  C
  C218     1.0000 0.64320  0.92870  0.22740  Biso   1.000  C
  C219     1.0000 0.63760  0.92340  0.25370  Biso   1.000  C
  C220     1.0000 0.60970  0.93040  0.26430  Biso   1.000  C
  Cd17     1.0000 0.60641  0.08980  0.35400  Biso   1.000  Cd
  Cd18     1.0000 0.54925  0.06788  0.40800  Biso   1.000  Cd
  Cd19     1.0000 0.66414  0.10793  0.40674  Biso   1.000  Cd
  Cd20     1.0000 0.60245  0.08839  0.46000  Biso   1.000  Cd
  Cd21     1.0000 0.62675  0.03699  0.41043  Biso   1.000  Cd
  Cd22     1.0000 0.52657  0.12468  0.35291  Biso   1.000  Cd
  Cd23     1.0000 0.66788  0.11063  0.29957  Biso   1.000  Cd
  Cd24     1.0000 0.68306  0.05938  0.46597  Biso   1.000  Cd
  Cd25     1.0000 0.72996  0.12762  0.45255  Biso   1.000  Cd
  Cd26     1.0000 0.54319  0.06778  0.30359  Biso   1.000  Cd
  Cd27     1.0000 0.62619  0.04290  0.29471  Biso   1.000  Cd
  Cd28     1.0000 0.68458  0.05729  0.34955  Biso   1.000  Cd
  Cd29     1.0000 0.73966  0.06508  0.40576  Biso   1.000  Cd
  Cd30     1.0000 0.57589  0.01496  0.35397  Biso   1.000  Cd
  S26      1.0000 0.64599  0.07106  0.38030  Biso   1.000  S
  S27      1.0000 0.58784  0.05345  0.32662  Biso   1.000  S
  S28      1.0000 0.56571  0.10581  0.38070  Biso   1.000  S
  S29      1.0000 0.58547  0.04980  0.43716  Biso   1.000  S
  S30      1.0000 0.70446  0.08943  0.43315  Biso   1.000  S
  S31      1.0000 0.61439  0.99823  0.38251  Biso   1.000  S
  S32      1.0000 0.70761  0.09103  0.32358  Biso   1.000  S
  S33      1.0000 0.55987  0.10914  0.48279  Biso   1.000  S
  S34      1.0000 0.64297  0.07906  0.49166  Biso   1.000  S
  S35      1.0000 0.67157  0.02354  0.43524  Biso   1.000  S
  S36      1.0000 0.50228  0.08533  0.42669  Biso   1.000  S
  S37      1.0000 0.53232  0.03638  0.37386  Biso   1.000  S
  Cd31     1.0000 0.76865  0.06045  0.47596  Biso   1.000  Cd
  Cd32     1.0000 0.56125  0.99211  0.28198  Biso   1.000  Cd
  S38      1.0000 0.72236  0.04237  0.49463  Biso   1.000  S
  S39      1.0000 0.52641  0.02976  0.27631  Biso   1.000  S
  S40      1.0000 0.65998  0.02063  0.32542  Biso   1.000  S
  S41      1.0000 0.50359  0.08595  0.33051  Biso   1.000  S
  S42      1.0000 0.49224  0.14271  0.38632  Biso   1.000  S
  S43      1.0000 0.77042  0.11007  0.47849  Biso   1.000  S
  S44      1.0000 0.61126  0.00479  0.26825  Biso   1.000  S
  S45      1.0000 0.72211  0.03236  0.37500  Biso   1.000  S
  S46      1.0000 0.55727  0.97771  0.32762  Biso   1.000  S
  S47      1.0000 0.64310  0.08050  0.26838  Biso   1.000  S
  S48      1.0000 0.77790  0.04321  0.43287  Biso   1.000  S
  S49      1.0000 0.56630  0.10011  0.27371  Biso   1.000  S
  S50      1.0000 0.55512  0.94915  0.25982  Biso   1.000  S
  C221     1.0000 0.68640  0.99840  0.30620  Biso   1.000  C
  C222     1.0000 0.70490  0.97590  0.27090  Biso   1.000  C
  C223     1.0000 0.68370  0.99110  0.28160  Biso   1.000  C
  C224     1.0000 0.70150  0.01670  0.29340  Biso   1.000  C
  C225     1.0000 0.99490  0.52040  0.29100  Biso   1.000  C
  C226     1.0000 0.96990  0.51670  0.27670  Biso   1.000  C
  C227     1.0000 0.94310  0.51130  0.28750  Biso   1.000  C
  C228     1.0000 0.94150  0.50730  0.31310  Biso   1.000  C
  C229     1.0000 0.96510  0.50990  0.32800  Biso   1.000  C
  C230     1.0000 0.99120  0.51770  0.31700  Biso   1.000  C
  C231     1.0000 0.26840  0.50960  0.43440  Biso   1.000  C
  C232     1.0000 0.26730  0.49580  0.45680  Biso   1.000  C
  C233     1.0000 0.26130  0.46790  0.45690  Biso   1.000  C
  C234     1.0000 0.25750  0.45450  0.43670  Biso   1.000  C
  C235     1.0000 0.25920  0.46940  0.41520  Biso   1.000  C
  C236     1.0000 0.26540  0.49580  0.41410  Biso   1.000  C
  C237     1.0000 0.16170  0.49560  0.45080  Biso   1.000  C
  C238     1.0000 0.13520  0.48530  0.45330  Biso   1.000  C
  C239     1.0000 0.12610  0.46040  0.46650  Biso   1.000  C
  C240     1.0000 0.14810  0.44980  0.47890  Biso   1.000  C
  C241     1.0000 0.17730  0.45620  0.47540  Biso   1.000  C
  C242     1.0000 0.18390  0.47720  0.46050  Biso   1.000  C
  C243     1.0000 0.97890  0.59710  0.30820  Biso   1.000  C
  C244     1.0000 0.95600  0.57980  0.30250  Biso   1.000  C
  C245     1.0000 0.93530  0.58870  0.28520  Biso   1.000  C
  C246     1.0000 0.93640  0.61500  0.27350  Biso   1.000  C
  C247     1.0000 0.96000  0.63090  0.27900  Biso   1.000  C
  C248     1.0000 0.98130  0.62170  0.29740  Biso   1.000  C
  C249     1.0000 0.00670  0.51460  0.38740  Biso   1.000  C
  C250     1.0000 0.00970  0.49000  0.38150  Biso   1.000  C
  C251     1.0000 0.98670  0.47200  0.39180  Biso   1.000  C
  C252     1.0000 0.96480  0.48320  0.40850  Biso   1.000  C
  C253     1.0000 0.95970  0.51070  0.40890  Biso   1.000  C
  C254     1.0000 0.98160  0.52640  0.39400  Biso   1.000  C
  C255     1.0000 0.99030  0.56340  0.44870  Biso   1.000  C
  C256     1.0000 0.00560  0.54470  0.45840  Biso   1.000  C
  C257     1.0000 0.99440  0.52590  0.47370  Biso   1.000  C
  C258     1.0000 0.96500  0.52790  0.48290  Biso   1.000  C
  C259     1.0000 0.94640  0.54650  0.47230  Biso   1.000  C
  C260     1.0000 0.96030  0.56550  0.45410  Biso   1.000  C
  C261     1.0000 0.04460  0.58460  0.50300  Biso   1.000  C
  C262     1.0000 0.05840  0.56210  0.50840  Biso   1.000  C
  C263     1.0000 0.04660  0.54360  0.52360  Biso   1.000  C
  C264     1.0000 0.01960  0.54870  0.53540  Biso   1.000  C
  C265     1.0000 0.00750  0.57190  0.53070  Biso   1.000  C
  C266     1.0000 0.01690  0.58600  0.51300  Biso   1.000  C
  C267     1.0000 0.09410  0.47600  0.40160  Biso   1.000  C
  C268     1.0000 0.07250  0.48420  0.41700  Biso   1.000  C
  C269     1.0000 0.05560  0.46640  0.43350  Biso   1.000  C
  C270     1.0000 0.06370  0.43800  0.43110  Biso   1.000  C
  C271     1.0000 0.08940  0.43140  0.41420  Biso   1.000  C
  C272     1.0000 0.10270  0.45060  0.39750  Biso   1.000  C
  C273     1.0000 0.08470  0.45270  0.33180  Biso   1.000  C
  C274     1.0000 0.07200  0.42830  0.33830  Biso   1.000  C
  C275     1.0000 0.09400  0.41090  0.34340  Biso   1.000  C
  C276     1.0000 0.12190  0.41380  0.33610  Biso   1.000  C
  C277     1.0000 0.13280  0.43640  0.33200  Biso   1.000  C
  C278     1.0000 0.11260  0.45910  0.32870  Biso   1.000  C
  C279     1.0000 0.03664  0.61283  0.25344  Biso   1.000  C
  C280     1.0000 0.03030  0.63916  0.25350  Biso   1.000  C
  C281     1.0000 0.00810  0.64867  0.23858  Biso   1.000  C
  C282     1.0000 0.99230  0.63180  0.22359  Biso   1.000  C
  C283     1.0000 0.99870  0.60550  0.22353  Biso   1.000  C
  C284     1.0000 0.02082  0.59600  0.23845  Biso   1.000  C
  C285     1.0000 0.10850  0.51531  0.24000  Biso   1.000  C
  C286     1.0000 0.09130  0.53678  0.23510  Biso   1.000  C
  C287     1.0000 0.08720  0.54509  0.21063  Biso   1.000  C
  C288     1.0000 0.10030  0.53190  0.19100  Biso   1.000  C
  C289     1.0000 0.11750  0.51050  0.19580  Biso   1.000  C
  C290     1.0000 0.12170  0.50220  0.22030  Biso   1.000  C
  C291     1.0000 0.17500  0.56139  0.25390  Biso   1.000  C
  C292     1.0000 0.17230  0.55115  0.22990  Biso   1.000  C
  C293     1.0000 0.19600  0.53968  0.21840  Biso   1.000  C
  C294     1.0000 0.22230  0.53844  0.23080  Biso   1.000  C
  C295     1.0000 0.22500  0.54867  0.25470  Biso   1.000  C
  C296     1.0000 0.20130  0.56015  0.26630  Biso   1.000  C
  C297     1.0000 0.95610  0.64820  0.37170  Biso   1.000  C
  C298     1.0000 0.95860  0.62690  0.35590  Biso   1.000  C
  C299     1.0000 0.93580  0.62020  0.34030  Biso   1.000  C
  C300     1.0000 0.91070  0.63490  0.34030  Biso   1.000  C
  C301     1.0000 0.90820  0.65620  0.35610  Biso   1.000  C
  C302     1.0000 0.93100  0.66290  0.37170  Biso   1.000  C
  C303     1.0000 0.13370  0.55170  0.51040  Biso   1.000  C
  C304     1.0000 0.12440  0.52930  0.49830  Biso   1.000  C
  C305     1.0000 0.11500  0.50720  0.51540  Biso   1.000  C
  C306     1.0000 0.11710  0.50850  0.54080  Biso   1.000  C
  C307     1.0000 0.12610  0.53100  0.55050  Biso   1.000  C
  C308     1.0000 0.13700  0.55260  0.53540  Biso   1.000  C
  C309     1.0000 0.22350  0.56060  0.52240  Biso   1.000  C
  C310     1.0000 0.23570  0.54900  0.54280  Biso   1.000  C
  C311     1.0000 0.23530  0.56230  0.56720  Biso   1.000  C
  C312     1.0000 0.22430  0.58860  0.56900  Biso   1.000  C
  C313     1.0000 0.21530  0.60170  0.54520  Biso   1.000  C
  C314     1.0000 0.21370  0.58650  0.52390  Biso   1.000  C
  C315     1.0000 0.25020  0.52900  0.35290  Biso   1.000  C
  C316     1.0000 0.25900  0.50380  0.34770  Biso   1.000  C
  C317     1.0000 0.28150  0.49940  0.33100  Biso   1.000  C
  C318     1.0000 0.29520  0.52020  0.31960  Biso   1.000  C
  C319     1.0000 0.28640  0.54540  0.32480  Biso   1.000  C
  C320     1.0000 0.26400  0.54980  0.34150  Biso   1.000  C
  C321     1.0000 0.30330  0.61970  0.46650  Biso   1.000  C
  C322     1.0000 0.32550  0.62910  0.48300  Biso   1.000  C
  C323     1.0000 0.35420  0.63550  0.47400  Biso   1.000  C
  C324     1.0000 0.35890  0.63520  0.44580  Biso   1.000  C
  C325     1.0000 0.33530  0.62450  0.42810  Biso   1.000  C
  C326     1.0000 0.30850  0.61750  0.44040  Biso   1.000  C
  C327     1.0000 0.08880  0.44010  0.24710  Biso   1.000  C
  C328     1.0000 0.09470  0.44450  0.22040  Biso   1.000  C
  C329     1.0000 0.12280  0.43710  0.21170  Biso   1.000  C
  C330     1.0000 0.14320  0.42870  0.22740  Biso   1.000  C
  C331     1.0000 0.13760  0.42340  0.25370  Biso   1.000  C
  C332     1.0000 0.10970  0.43040  0.26430  Biso   1.000  C
  Cd33     1.0000 0.10641  0.58980  0.35400  Biso   1.000  Cd
  Cd34     1.0000 0.04925  0.56788  0.40800  Biso   1.000  Cd
  Cd35     1.0000 0.16414  0.60793  0.40674  Biso   1.000  Cd
  Cd36     1.0000 0.10245  0.58839  0.46000  Biso   1.000  Cd
  Cd37     1.0000 0.12675  0.53699  0.41043  Biso   1.000  Cd
  Cd38     1.0000 0.02657  0.62468  0.35291  Biso   1.000  Cd
  Cd39     1.0000 0.16788  0.61063  0.29957  Biso   1.000  Cd
  Cd40     1.0000 0.18306  0.55938  0.46597  Biso   1.000  Cd
  Cd41     1.0000 0.22996  0.62762  0.45255  Biso   1.000  Cd
  Cd42     1.0000 0.04319  0.56778  0.30359  Biso   1.000  Cd
  Cd43     1.0000 0.12619  0.54290  0.29471  Biso   1.000  Cd
  Cd44     1.0000 0.18458  0.55729  0.34955  Biso   1.000  Cd
  Cd45     1.0000 0.23966  0.56508  0.40576  Biso   1.000  Cd
  Cd46     1.0000 0.07589  0.51496  0.35397  Biso   1.000  Cd
  S51      1.0000 0.14599  0.57106  0.38030  Biso   1.000  S
  S52      1.0000 0.08784  0.55345  0.32662  Biso   1.000  S
  S53      1.0000 0.06571  0.60581  0.38070  Biso   1.000  S
  S54      1.0000 0.08547  0.54980  0.43716  Biso   1.000  S
  S55      1.0000 0.20446  0.58943  0.43315  Biso   1.000  S
  S56      1.0000 0.11439  0.49823  0.38251  Biso   1.000  S
  S57      1.0000 0.20761  0.59103  0.32358  Biso   1.000  S
  S58      1.0000 0.05987  0.60914  0.48279  Biso   1.000  S
  S59      1.0000 0.14297  0.57906  0.49166  Biso   1.000  S
  S60      1.0000 0.17157  0.52354  0.43524  Biso   1.000  S
  S61      1.0000 0.00228  0.58533  0.42669  Biso   1.000  S
  S62      1.0000 0.03232  0.53638  0.37386  Biso   1.000  S
  Cd47     1.0000 0.26865  0.56045  0.47596  Biso   1.000  Cd
  Cd48     1.0000 0.06125  0.49211  0.28198  Biso   1.000  Cd
  S63      1.0000 0.22236  0.54237  0.49463  Biso   1.000  S
  S64      1.0000 0.02641  0.52976  0.27631  Biso   1.000  S
  S65      1.0000 0.15998  0.52063  0.32542  Biso   1.000  S
  S66      1.0000 0.00359  0.58595  0.33051  Biso   1.000  S
  S67      1.0000 0.99224  0.64271  0.38632  Biso   1.000  S
  S68      1.0000 0.27042  0.61007  0.47849  Biso   1.000  S
  S69      1.0000 0.11126  0.50479  0.26825  Biso   1.000  S
  S70      1.0000 0.22211  0.53236  0.37500  Biso   1.000  S
  S71      1.0000 0.05727  0.47771  0.32762  Biso   1.000  S
  S72      1.0000 0.14310  0.58050  0.26838  Biso   1.000  S
  S73      1.0000 0.27790  0.54321  0.43287  Biso   1.000  S
  S74      1.0000 0.06630  0.60011  0.27371  Biso   1.000  S
  S75      1.0000 0.05512  0.44915  0.25982  Biso   1.000  S
  C333     1.0000 0.18640  0.49840  0.30620  Biso   1.000  C
  C334     1.0000 0.20490  0.47590  0.27090  Biso   1.000  C
  C335     1.0000 0.18370  0.49110  0.28160  Biso   1.000  C
  C336     1.0000 0.20150  0.51670  0.29340  Biso   1.000  C
  C337     1.0000 0.99490  0.02040  0.79100  Biso   1.000  C
  C338     1.0000 0.96990  0.01670  0.77670  Biso   1.000  C
  C339     1.0000 0.94310  0.01130  0.78750  Biso   1.000  C
  C340     1.0000 0.94150  0.00730  0.81310  Biso   1.000  C
  C341     1.0000 0.96510  0.00990  0.82800  Biso   1.000  C
  C342     1.0000 0.99120  0.01770  0.81700  Biso   1.000  C
  C343     1.0000 0.26840  0.00960  0.93440  Biso   1.000  C
  C344     1.0000 0.26730  0.99580  0.95680  Biso   1.000  C
  C345     1.0000 0.26130  0.96790  0.95690  Biso   1.000  C
  C346     1.0000 0.25750  0.95450  0.93670  Biso   1.000  C
  C347     1.0000 0.25920  0.96940  0.91520  Biso   1.000  C
  C348     1.0000 0.26540  0.99580  0.91410  Biso   1.000  C
  C349     1.0000 0.16170  0.99560  0.95080  Biso   1.000  C
  C350     1.0000 0.13520  0.98530  0.95330  Biso   1.000  C
  C351     1.0000 0.12610  0.96040  0.96650  Biso   1.000  C
  C352     1.0000 0.14810  0.94980  0.97890  Biso   1.000  C
  C353     1.0000 0.17730  0.95620  0.97540  Biso   1.000  C
  C354     1.0000 0.18390  0.97720  0.96050  Biso   1.000  C
  C355     1.0000 0.97890  0.09710  0.80820  Biso   1.000  C
  C356     1.0000 0.95600  0.07980  0.80250  Biso   1.000  C
  C357     1.0000 0.93530  0.08870  0.78520  Biso   1.000  C
  C358     1.0000 0.93640  0.11500  0.77350  Biso   1.000  C
  C359     1.0000 0.96000  0.13090  0.77900  Biso   1.000  C
  C360     1.0000 0.98130  0.12170  0.79740  Biso   1.000  C
  C361     1.0000 0.00670  0.01460  0.88740  Biso   1.000  C
  C362     1.0000 0.00970  0.99000  0.88150  Biso   1.000  C
  C363     1.0000 0.98670  0.97200  0.89180  Biso   1.000  C
  C364     1.0000 0.96480  0.98320  0.90850  Biso   1.000  C
  C365     1.0000 0.95970  0.01070  0.90890  Biso   1.000  C
  C366     1.0000 0.98160  0.02640  0.89400  Biso   1.000  C
  C367     1.0000 0.99030  0.06340  0.94870  Biso   1.000  C
  C368     1.0000 0.00560  0.04470  0.95840  Biso   1.000  C
  C369     1.0000 0.99440  0.02590  0.97370  Biso   1.000  C
  C370     1.0000 0.96500  0.02790  0.98290  Biso   1.000  C
  C371     1.0000 0.94640  0.04650  0.97230  Biso   1.000  C
  C372     1.0000 0.96030  0.06550  0.95410  Biso   1.000  C
  C373     1.0000 0.04460  0.08460  0.00300  Biso   1.000  C
  C374     1.0000 0.05840  0.06210  0.00840  Biso   1.000  C
  C375     1.0000 0.04660  0.04360  0.02360  Biso   1.000  C
  C376     1.0000 0.01960  0.04870  0.03540  Biso   1.000  C
  C377     1.0000 0.00750  0.07190  0.03070  Biso   1.000  C
  C378     1.0000 0.01690  0.08600  0.01300  Biso   1.000  C
  C379     1.0000 0.09410  0.97600  0.90160  Biso   1.000  C
  C380     1.0000 0.07250  0.98420  0.91700  Biso   1.000  C
  C381     1.0000 0.05560  0.96640  0.93350  Biso   1.000  C
  C382     1.0000 0.06370  0.93800  0.93110  Biso   1.000  C
  C383     1.0000 0.08940  0.93140  0.91420  Biso   1.000  C
  C384     1.0000 0.10270  0.95060  0.89750  Biso   1.000  C
  C385     1.0000 0.08470  0.95270  0.83180  Biso   1.000  C
  C386     1.0000 0.07200  0.92830  0.83830  Biso   1.000  C
  C387     1.0000 0.09400  0.91090  0.84340  Biso   1.000  C
  C388     1.0000 0.12190  0.91380  0.83610  Biso   1.000  C
  C389     1.0000 0.13280  0.93640  0.83200  Biso   1.000  C
  C390     1.0000 0.11260  0.95910  0.82870  Biso   1.000  C
  C391     1.0000 0.03664  0.11283  0.75344  Biso   1.000  C
  C392     1.0000 0.03030  0.13916  0.75350  Biso   1.000  C
  C393     1.0000 0.00810  0.14867  0.73858  Biso   1.000  C
  C394     1.0000 0.99230  0.13180  0.72359  Biso   1.000  C
  C395     1.0000 0.99870  0.10550  0.72353  Biso   1.000  C
  C396     1.0000 0.02082  0.09600  0.73845  Biso   1.000  C
  C397     1.0000 0.10850  0.01531  0.74000  Biso   1.000  C
  C398     1.0000 0.09130  0.03678  0.73510  Biso   1.000  C
  C399     1.0000 0.08720  0.04509  0.71063  Biso   1.000  C
  C400     1.0000 0.10030  0.03190  0.69100  Biso   1.000  C
  C401     1.0000 0.11750  0.01050  0.69580  Biso   1.000  C
  C402     1.0000 0.12170  0.00220  0.72030  Biso   1.000  C
  C403     1.0000 0.17500  0.06139  0.75390  Biso   1.000  C
  C404     1.0000 0.17230  0.05115  0.72990  Biso   1.000  C
  C405     1.0000 0.19600  0.03968  0.71840  Biso   1.000  C
  C406     1.0000 0.22230  0.03844  0.73080  Biso   1.000  C
  C407     1.0000 0.22500  0.04867  0.75470  Biso   1.000  C
  C408     1.0000 0.20130  0.06015  0.76630  Biso   1.000  C
  C409     1.0000 0.95610  0.14820  0.87170  Biso   1.000  C
  C410     1.0000 0.95860  0.12690  0.85590  Biso   1.000  C
  C411     1.0000 0.93580  0.12020  0.84030  Biso   1.000  C
  C412     1.0000 0.91070  0.13490  0.84030  Biso   1.000  C
  C413     1.0000 0.90820  0.15620  0.85610  Biso   1.000  C
  C414     1.0000 0.93100  0.16290  0.87170  Biso   1.000  C
  C415     1.0000 0.13370  0.05170  0.01040  Biso   1.000  C
  C416     1.0000 0.12440  0.02930  0.99830  Biso   1.000  C
  C417     1.0000 0.11500  0.00720  0.01540  Biso   1.000  C
  C418     1.0000 0.11710  0.00850  0.04080  Biso   1.000  C
  C419     1.0000 0.12610  0.03100  0.05050  Biso   1.000  C
  C420     1.0000 0.13700  0.05260  0.03540  Biso   1.000  C
  C421     1.0000 0.22350  0.06060  0.02240  Biso   1.000  C
  C422     1.0000 0.23570  0.04900  0.04280  Biso   1.000  C
  C423     1.0000 0.23530  0.06230  0.06720  Biso   1.000  C
  C424     1.0000 0.22430  0.08860  0.06900  Biso   1.000  C
  C425     1.0000 0.21530  0.10170  0.04520  Biso   1.000  C
  C426     1.0000 0.21370  0.08650  0.02390  Biso   1.000  C
  C427     1.0000 0.25020  0.02900  0.85290  Biso   1.000  C
  C428     1.0000 0.25900  0.00380  0.84770  Biso   1.000  C
  C429     1.0000 0.28150  0.99940  0.83100  Biso   1.000  C
  C430     1.0000 0.29520  0.02020  0.81960  Biso   1.000  C
  C431     1.0000 0.28640  0.04540  0.82480  Biso   1.000  C
  C432     1.0000 0.26400  0.04980  0.84150  Biso   1.000  C
  C433     1.0000 0.30330  0.11970  0.96650  Biso   1.000  C
  C434     1.0000 0.32550  0.12910  0.98300  Biso   1.000  C
  C435     1.0000 0.35420  0.13550  0.97400  Biso   1.000  C
  C436     1.0000 0.35890  0.13520  0.94580  Biso   1.000  C
  C437     1.0000 0.33530  0.12450  0.92810  Biso   1.000  C
  C438     1.0000 0.30850  0.11750  0.94040  Biso   1.000  C
  C439     1.0000 0.08880  0.94010  0.74710  Biso   1.000  C
  C440     1.0000 0.09470  0.94450  0.72040  Biso   1.000  C
  C441     1.0000 0.12280  0.93710  0.71170  Biso   1.000  C
  C442     1.0000 0.14320  0.92870  0.72740  Biso   1.000  C
  C443     1.0000 0.13760  0.92340  0.75370  Biso   1.000  C
  C444     1.0000 0.10970  0.93040  0.76430  Biso   1.000  C
  Cd49     1.0000 0.10641  0.08980  0.85400  Biso   1.000  Cd
  Cd50     1.0000 0.04925  0.06788  0.90800  Biso   1.000  Cd
  Cd51     1.0000 0.16414  0.10793  0.90674  Biso   1.000  Cd
  Cd52     1.0000 0.10245  0.08839  0.96000  Biso   1.000  Cd
  Cd53     1.0000 0.12675  0.03699  0.91043  Biso   1.000  Cd
  Cd54     1.0000 0.02657  0.12468  0.85291  Biso   1.000  Cd
  Cd55     1.0000 0.16788  0.11063  0.79957  Biso   1.000  Cd
  Cd56     1.0000 0.18306  0.05938  0.96597  Biso   1.000  Cd
  Cd57     1.0000 0.22996  0.12762  0.95255  Biso   1.000  Cd
  Cd58     1.0000 0.04319  0.06778  0.80359  Biso   1.000  Cd
  Cd59     1.0000 0.12619  0.04290  0.79471  Biso   1.000  Cd
  Cd60     1.0000 0.18458  0.05729  0.84955  Biso   1.000  Cd
  Cd61     1.0000 0.23966  0.06508  0.90576  Biso   1.000  Cd
  Cd62     1.0000 0.07589  0.01496  0.85397  Biso   1.000  Cd
  S76      1.0000 0.14599  0.07106  0.88030  Biso   1.000  S
  S77      1.0000 0.08784  0.05345  0.82662  Biso   1.000  S
  S78      1.0000 0.06571  0.10581  0.88070  Biso   1.000  S
  S79      1.0000 0.08547  0.04980  0.93716  Biso   1.000  S
  S80      1.0000 0.20446  0.08943  0.93315  Biso   1.000  S
  S81      1.0000 0.11439  0.99823  0.88251  Biso   1.000  S
  S82      1.0000 0.20761  0.09103  0.82358  Biso   1.000  S
  S83      1.0000 0.05987  0.10914  0.98279  Biso   1.000  S
  S84      1.0000 0.14297  0.07906  0.99166  Biso   1.000  S
  S85      1.0000 0.17157  0.02354  0.93524  Biso   1.000  S
  S86      1.0000 0.00228  0.08533  0.92669  Biso   1.000  S
  S87      1.0000 0.03232  0.03638  0.87386  Biso   1.000  S
  Cd63     1.0000 0.26865  0.06045  0.97596  Biso   1.000  Cd
  Cd64     1.0000 0.06125  0.99211  0.78198  Biso   1.000  Cd
  S88      1.0000 0.22236  0.04237  0.99463  Biso   1.000  S
  S89      1.0000 0.02641  0.02976  0.77631  Biso   1.000  S
  S90      1.0000 0.15998  0.02063  0.82542  Biso   1.000  S
  S91      1.0000 0.00359  0.08595  0.83051  Biso   1.000  S
  S92      1.0000 0.99224  0.14271  0.88632  Biso   1.000  S
  S93      1.0000 0.27042  0.11007  0.97849  Biso   1.000  S
  S94      1.0000 0.11126  0.00479  0.76825  Biso   1.000  S
  S95      1.0000 0.22211  0.03236  0.87500  Biso   1.000  S
  S96      1.0000 0.05727  0.97771  0.82762  Biso   1.000  S
  S97      1.0000 0.14310  0.08050  0.76838  Biso   1.000  S
  S98      1.0000 0.27790  0.04321  0.93287  Biso   1.000  S
  S99      1.0000 0.06630  0.10011  0.77371  Biso   1.000  S
  S100     1.0000 0.05512  0.94915  0.75982  Biso   1.000  S
  C445     1.0000 0.18640  0.99840  0.80620  Biso   1.000  C
  C446     1.0000 0.20490  0.97590  0.77090  Biso   1.000  C
  C447     1.0000 0.18370  0.99110  0.78160  Biso   1.000  C
  C448     1.0000 0.20150  0.01670  0.79340  Biso   1.000  C
  C449     1.0000 0.25510  0.22960  0.79100  Biso   1.000  C
  C450     1.0000 0.28010  0.23330  0.77670  Biso   1.000  C
  C451     1.0000 0.30690  0.23870  0.78750  Biso   1.000  C
  C452     1.0000 0.30850  0.24270  0.81310  Biso   1.000  C
  C453     1.0000 0.28490  0.24010  0.82800  Biso   1.000  C
  C454     1.0000 0.25880  0.23230  0.81700  Biso   1.000  C
  C455     1.0000 0.98160  0.24040  0.93440  Biso   1.000  C
  C456     1.0000 0.98270  0.25420  0.95680  Biso   1.000  C
  C457     1.0000 0.98870  0.28210  0.95690  Biso   1.000  C
  C458     1.0000 0.99250  0.29550  0.93670  Biso   1.000  C
  C459     1.0000 0.99080  0.28060  0.91520  Biso   1.000  C
  C460     1.0000 0.98460  0.25420  0.91410  Biso   1.000  C
  C461     1.0000 0.08830  0.25440  0.95080  Biso   1.000  C
  C462     1.0000 0.11480  0.26470  0.95330  Biso   1.000  C
  C463     1.0000 0.12390  0.28960  0.96650  Biso   1.000  C
  C464     1.0000 0.10190  0.30020  0.97890  Biso   1.000  C
  C465     1.0000 0.07270  0.29380  0.97540  Biso   1.000  C
  C466     1.0000 0.06610  0.27280  0.96050  Biso   1.000  C
  C467     1.0000 0.27110  0.15290  0.80820  Biso   1.000  C
  C468     1.0000 0.29400  0.17020  0.80250  Biso   1.000  C
  C469     1.0000 0.31470  0.16130  0.78520  Biso   1.000  C
  C470     1.0000 0.31360  0.13500  0.77350  Biso   1.000  C
  C471     1.0000 0.29000  0.11910  0.77900  Biso   1.000  C
  C472     1.0000 0.26870  0.12830  0.79740  Biso   1.000  C
  C473     1.0000 0.24330  0.23540  0.88740  Biso   1.000  C
  C474     1.0000 0.24030  0.26000  0.88150  Biso   1.000  C
  C475     1.0000 0.26330  0.27800  0.89180  Biso   1.000  C
  C476     1.0000 0.28520  0.26680  0.90850  Biso   1.000  C
  C477     1.0000 0.29030  0.23930  0.90890  Biso   1.000  C
  C478     1.0000 0.26840  0.22360  0.89400  Biso   1.000  C
  C479     1.0000 0.25970  0.18660  0.94870  Biso   1.000  C
  C480     1.0000 0.24440  0.20530  0.95840  Biso   1.000  C
  C481     1.0000 0.25560  0.22410  0.97370  Biso   1.000  C
  C482     1.0000 0.28500  0.22210  0.98290  Biso   1.000  C
  C483     1.0000 0.30360  0.20350  0.97230  Biso   1.000  C
  C484     1.0000 0.28970  0.18450  0.95410  Biso   1.000  C
  C485     1.0000 0.20540  0.16540  0.00300  Biso   1.000  C
  C486     1.0000 0.19160  0.18790  0.00840  Biso   1.000  C
  C487     1.0000 0.20340  0.20640  0.02360  Biso   1.000  C
  C488     1.0000 0.23040  0.20130  0.03540  Biso   1.000  C
  C489     1.0000 0.24250  0.17810  0.03070  Biso   1.000  C
  C490     1.0000 0.23310  0.16400  0.01300  Biso   1.000  C
  C491     1.0000 0.15590  0.27400  0.90160  Biso   1.000  C
  C492     1.0000 0.17750  0.26580  0.91700  Biso   1.000  C
  C493     1.0000 0.19440  0.28360  0.93350  Biso   1.000  C
  C494     1.0000 0.18630  0.31200  0.93110  Biso   1.000  C
  C495     1.0000 0.16060  0.31860  0.91420  Biso   1.000  C
  C496     1.0000 0.14730  0.29940  0.89750  Biso   1.000  C
  C497     1.0000 0.16530  0.29730  0.83180  Biso   1.000  C
  C498     1.0000 0.17800  0.32170  0.83830  Biso   1.000  C
  C499     1.0000 0.15600  0.33910  0.84340  Biso   1.000  C
  C500     1.0000 0.12810  0.33620  0.83610  Biso   1.000  C
  C501     1.0000 0.11720  0.31360  0.83200  Biso   1.000  C
  C502     1.0000 0.13740  0.29090  0.82870  Biso   1.000  C
  C503     1.0000 0.21336  0.13717  0.75344  Biso   1.000  C
  C504     1.0000 0.21970  0.11084  0.75350  Biso   1.000  C
  C505     1.0000 0.24190  0.10133  0.73858  Biso   1.000  C
  C506     1.0000 0.25770  0.11820  0.72359  Biso   1.000  C
  C507     1.0000 0.25130  0.14450  0.72353  Biso   1.000  C
  C508     1.0000 0.22918  0.15400  0.73845  Biso   1.000  C
  C509     1.0000 0.14150  0.23469  0.74000  Biso   1.000  C
  C510     1.0000 0.15870  0.21322  0.73510  Biso   1.000  C
  C511     1.0000 0.16280  0.20491  0.71063  Biso   1.000  C
  C512     1.0000 0.14970  0.21810  0.69100  Biso   1.000  C
  C513     1.0000 0.13250  0.23950  0.69580  Biso   1.000  C
  C514     1.0000 0.12830  0.24780  0.72030  Biso   1.000  C
  C515     1.0000 0.07500  0.18861  0.75390  Biso   1.000  C
  C516     1.0000 0.07770  0.19885  0.72990  Biso   1.000  C
  C517     1.0000 0.05400  0.21032  0.71840  Biso   1.000  C
  C518     1.0000 0.02770  0.21156  0.73080  Biso   1.000  C
  C519     1.0000 0.02500  0.20133  0.75470  Biso   1.000  C
  C520     1.0000 0.04870  0.18985  0.76630  Biso   1.000  C
  C521     1.0000 0.29390  0.10180  0.87170  Biso   1.000  C
  C522     1.0000 0.29140  0.12310  0.85590  Biso   1.000  C
  C523     1.0000 0.31420  0.12980  0.84030  Biso   1.000  C
  C524     1.0000 0.33930  0.11510  0.84030  Biso   1.000  C
  C525     1.0000 0.34180  0.09380  0.85610  Biso   1.000  C
  C526     1.0000 0.31900  0.08710  0.87170  Biso   1.000  C
  C527     1.0000 0.11630  0.19830  0.01040  Biso   1.000  C
  C528     1.0000 0.12560  0.22070  0.99830  Biso   1.000  C
  C529     1.0000 0.13500  0.24280  0.01540  Biso   1.000  C
  C530     1.0000 0.13290  0.24150  0.04080  Biso   1.000  C
  C531     1.0000 0.12390  0.21900  0.05050  Biso   1.000  C
  C532     1.0000 0.11300  0.19740  0.03540  Biso   1.000  C
  C533     1.0000 0.02650  0.18940  0.02240  Biso   1.000  C
  C534     1.0000 0.01430  0.20100  0.04280  Biso   1.000  C
  C535     1.0000 0.01470  0.18770  0.06720  Biso   1.000  C
  C536     1.0000 0.02570  0.16140  0.06900  Biso   1.000  C
  C537     1.0000 0.03470  0.14830  0.04520  Biso   1.000  C
  C538     1.0000 0.03630  0.16350  0.02390  Biso   1.000  C
  C539     1.0000 0.99980  0.22100  0.85290  Biso   1.000  C
  C540     1.0000 0.99100  0.24620  0.84770  Biso   1.000  C
  C541     1.0000 0.96850  0.25060  0.83100  Biso   1.000  C
  C542     1.0000 0.95480  0.22980  0.81960  Biso   1.000  C
  C543     1.0000 0.96360  0.20460  0.82480  Biso   1.000  C
  C544     1.0000 0.98600  0.20020  0.84150  Biso   1.000  C
  C545     1.0000 0.94670  0.13030  0.96650  Biso   1.000  C
  C546     1.0000 0.92450  0.12090  0.98300  Biso   1.000  C
  C547     1.0000 0.89580  0.11450  0.97400  Biso   1.000  C
  C548     1.0000 0.89110  0.11480  0.94580  Biso   1.000  C
  C549     1.0000 0.91470  0.12550  0.92810  Biso   1.000  C
  C550     1.0000 0.94150  0.13250  0.94040  Biso   1.000  C
  C551     1.0000 0.16120  0.30990  0.74710  Biso   1.000  C
  C552     1.0000 0.15530  0.30550  0.72040  Biso   1.000  C
  C553     1.0000 0.12720  0.31290  0.71170  Biso   1.000  C
  C554     1.0000 0.10680  0.32130  0.72740  Biso   1.000  C
  C555     1.0000 0.11240  0.32660  0.75370  Biso   1.000  C
  C556     1.0000 0.14030  0.31960  0.76430  Biso   1.000  C
  Cd65     1.0000 0.14359  0.16020  0.85400  Biso   1.000  Cd
  Cd66     1.0000 0.20075  0.18212  0.90800  Biso   1.000  Cd
  Cd67     1.0000 0.08586  0.14207  0.90674  Biso   1.000  Cd
  Cd68     1.0000 0.14755  0.16161  0.96000  Biso   1.000  Cd
  Cd69     1.0000 0.12325  0.21301  0.91043  Biso   1.000  Cd
  Cd70     1.0000 0.22343  0.12532  0.85291  Biso   1.000  Cd
  Cd71     1.0000 0.08212  0.13937  0.79957  Biso   1.000  Cd
  Cd72     1.0000 0.06694  0.19062  0.96597  Biso   1.000  Cd
  Cd73     1.0000 0.02004  0.12238  0.95255  Biso   1.000  Cd
  Cd74     1.0000 0.20681  0.18222  0.80359  Biso   1.000  Cd
  Cd75     1.0000 0.12381  0.20710  0.79471  Biso   1.000  Cd
  Cd76     1.0000 0.06542  0.19271  0.84955  Biso   1.000  Cd
  Cd77     1.0000 0.01034  0.18492  0.90576  Biso   1.000  Cd
  Cd78     1.0000 0.17411  0.23504  0.85397  Biso   1.000  Cd
  S101     1.0000 0.10401  0.17894  0.88030  Biso   1.000  S
  S102     1.0000 0.16216  0.19655  0.82662  Biso   1.000  S
  S103     1.0000 0.18429  0.14419  0.88070  Biso   1.000  S
  S104     1.0000 0.16453  0.20020  0.93716  Biso   1.000  S
  S105     1.0000 0.04554  0.16057  0.93315  Biso   1.000  S
  S106     1.0000 0.13561  0.25177  0.88251  Biso   1.000  S
  S107     1.0000 0.04239  0.15897  0.82358  Biso   1.000  S
  S108     1.0000 0.19013  0.14086  0.98279  Biso   1.000  S
  S109     1.0000 0.10703  0.17094  0.99166  Biso   1.000  S
  S110     1.0000 0.07843  0.22646  0.93524  Biso   1.000  S
  S111     1.0000 0.24772  0.16467  0.92669  Biso   1.000  S
  S112     1.0000 0.21768  0.21362  0.87386  Biso   1.000  S
  Cd79     1.0000 0.98135  0.18955  0.97596  Biso   1.000  Cd
  Cd80     1.0000 0.18875  0.25789  0.78198  Biso   1.000  Cd
  S113     1.0000 0.02764  0.20763  0.99463  Biso   1.000  S
  S114     1.0000 0.22359  0.22024  0.77631  Biso   1.000  S
  S115     1.0000 0.09002  0.22937  0.82542  Biso   1.000  S
  S116     1.0000 0.24641  0.16405  0.83051  Biso   1.000  S
  S117     1.0000 0.25776  0.10729  0.88632  Biso   1.000  S
  S118     1.0000 0.97958  0.13993  0.97849  Biso   1.000  S
  S119     1.0000 0.13874  0.24521  0.76825  Biso   1.000  S
  S120     1.0000 0.02789  0.21764  0.87500  Biso   1.000  S
  S121     1.0000 0.19273  0.27229  0.82762  Biso   1.000  S
  S122     1.0000 0.10690  0.16950  0.76838  Biso   1.000  S
  S123     1.0000 0.97210  0.20679  0.93287  Biso   1.000  S
  S124     1.0000 0.18370  0.14989  0.77371  Biso   1.000  S
  S125     1.0000 0.19488  0.30085  0.75982  Biso   1.000  S
  C557     1.0000 0.06360  0.25160  0.80620  Biso   1.000  C
  C558     1.0000 0.04510  0.27410  0.77090  Biso   1.000  C
  C559     1.0000 0.06630  0.25890  0.78160  Biso   1.000  C
  C560     1.0000 0.04850  0.23330  0.79340  Biso   1.000  C
  C561     1.0000 0.25510  0.72960  0.29100  Biso   1.000  C
  C562     1.0000 0.28010  0.73330  0.27670  Biso   1.000  C
  C563     1.0000 0.30690  0.73870  0.28750  Biso   1.000  C
  C564     1.0000 0.30850  0.74270  0.31310  Biso   1.000  C
  C565     1.0000 0.28490  0.74010  0.32800  Biso   1.000  C
  C566     1.0000 0.25880  0.73230  0.31700  Biso   1.000  C
  C567     1.0000 0.98160  0.74040  0.43440  Biso   1.000  C
  C568     1.0000 0.98270  0.75420  0.45680  Biso   1.000  C
  C569     1.0000 0.98870  0.78210  0.45690  Biso   1.000  C
  C570     1.0000 0.99250  0.79550  0.43670  Biso   1.000  C
  C571     1.0000 0.99080  0.78060  0.41520  Biso   1.000  C
  C572     1.0000 0.98460  0.75420  0.41410  Biso   1.000  C
  C573     1.0000 0.08830  0.75440  0.45080  Biso   1.000  C
  C574     1.0000 0.11480  0.76470  0.45330  Biso   1.000  C
  C575     1.0000 0.12390  0.78960  0.46650  Biso   1.000  C
  C576     1.0000 0.10190  0.80020  0.47890  Biso   1.000  C
  C577     1.0000 0.07270  0.79380  0.47540  Biso   1.000  C
  C578     1.0000 0.06610  0.77280  0.46050  Biso   1.000  C
  C579     1.0000 0.27110  0.65290  0.30820  Biso   1.000  C
  C580     1.0000 0.29400  0.67020  0.30250  Biso   1.000  C
  C581     1.0000 0.31470  0.66130  0.28520  Biso   1.000  C
  C582     1.0000 0.31360  0.63500  0.27350  Biso   1.000  C
  C583     1.0000 0.29000  0.61910  0.27900  Biso   1.000  C
  C584     1.0000 0.26870  0.62830  0.29740  Biso   1.000  C
  C585     1.0000 0.24330  0.73540  0.38740  Biso   1.000  C
  C586     1.0000 0.24030  0.76000  0.38150  Biso   1.000  C
  C587     1.0000 0.26330  0.77800  0.39180  Biso   1.000  C
  C588     1.0000 0.28520  0.76680  0.40850  Biso   1.000  C
  C589     1.0000 0.29030  0.73930  0.40890  Biso   1.000  C
  C590     1.0000 0.26840  0.72360  0.39400  Biso   1.000  C
  C591     1.0000 0.25970  0.68660  0.44870  Biso   1.000  C
  C592     1.0000 0.24440  0.70530  0.45840  Biso   1.000  C
  C593     1.0000 0.25560  0.72410  0.47370  Biso   1.000  C
  C594     1.0000 0.28500  0.72210  0.48290  Biso   1.000  C
  C595     1.0000 0.30360  0.70350  0.47230  Biso   1.000  C
  C596     1.0000 0.28970  0.68450  0.45410  Biso   1.000  C
  C597     1.0000 0.20540  0.66540  0.50300  Biso   1.000  C
  C598     1.0000 0.19160  0.68790  0.50840  Biso   1.000  C
  C599     1.0000 0.20340  0.70640  0.52360  Biso   1.000  C
  C600     1.0000 0.23040  0.70130  0.53540  Biso   1.000  C
  C601     1.0000 0.24250  0.67810  0.53070  Biso   1.000  C
  C602     1.0000 0.23310  0.66400  0.51300  Biso   1.000  C
  C603     1.0000 0.15590  0.77400  0.40160  Biso   1.000  C
  C604     1.0000 0.17750  0.76580  0.41700  Biso   1.000  C
  C605     1.0000 0.19440  0.78360  0.43350  Biso   1.000  C
  C606     1.0000 0.18630  0.81200  0.43110  Biso   1.000  C
  C607     1.0000 0.16060  0.81860  0.41420  Biso   1.000  C
  C608     1.0000 0.14730  0.79940  0.39750  Biso   1.000  C
  C609     1.0000 0.16530  0.79730  0.33180  Biso   1.000  C
  C610     1.0000 0.17800  0.82170  0.33830  Biso   1.000  C
  C611     1.0000 0.15600  0.83910  0.34340  Biso   1.000  C
  C612     1.0000 0.12810  0.83620  0.33610  Biso   1.000  C
  C613     1.0000 0.11720  0.81360  0.33200  Biso   1.000  C
  C614     1.0000 0.13740  0.79090  0.32870  Biso   1.000  C
  C615     1.0000 0.21336  0.63717  0.25344  Biso   1.000  C
  C616     1.0000 0.21970  0.61084  0.25350  Biso   1.000  C
  C617     1.0000 0.24190  0.60133  0.23858  Biso   1.000  C
  C618     1.0000 0.25770  0.61820  0.22359  Biso   1.000  C
  C619     1.0000 0.25130  0.64450  0.22353  Biso   1.000  C
  C620     1.0000 0.22918  0.65400  0.23845  Biso   1.000  C
  C621     1.0000 0.14150  0.73469  0.24000  Biso   1.000  C
  C622     1.0000 0.15870  0.71322  0.23510  Biso   1.000  C
  C623     1.0000 0.16280  0.70491  0.21063  Biso   1.000  C
  C624     1.0000 0.14970  0.71810  0.19100  Biso   1.000  C
  C625     1.0000 0.13250  0.73950  0.19580  Biso   1.000  C
  C626     1.0000 0.12830  0.74780  0.22030  Biso   1.000  C
  C627     1.0000 0.07500  0.68861  0.25390  Biso   1.000  C
  C628     1.0000 0.07770  0.69885  0.22990  Biso   1.000  C
  C629     1.0000 0.05400  0.71032  0.21840  Biso   1.000  C
  C630     1.0000 0.02770  0.71156  0.23080  Biso   1.000  C
  C631     1.0000 0.02500  0.70133  0.25470  Biso   1.000  C
  C632     1.0000 0.04870  0.68985  0.26630  Biso   1.000  C
  C633     1.0000 0.29390  0.60180  0.37170  Biso   1.000  C
  C634     1.0000 0.29140  0.62310  0.35590  Biso   1.000  C
  C635     1.0000 0.31420  0.62980  0.34030  Biso   1.000  C
  C636     1.0000 0.33930  0.61510  0.34030  Biso   1.000  C
  C637     1.0000 0.34180  0.59380  0.35610  Biso   1.000  C
  C638     1.0000 0.31900  0.58710  0.37170  Biso   1.000  C
  C639     1.0000 0.11630  0.69830  0.51040  Biso   1.000  C
  C640     1.0000 0.12560  0.72070  0.49830  Biso   1.000  C
  C641     1.0000 0.13500  0.74280  0.51540  Biso   1.000  C
  C642     1.0000 0.13290  0.74150  0.54080  Biso   1.000  C
  C643     1.0000 0.12390  0.71900  0.55050  Biso   1.000  C
  C644     1.0000 0.11300  0.69740  0.53540  Biso   1.000  C
  C645     1.0000 0.02650  0.68940  0.52240  Biso   1.000  C
  C646     1.0000 0.01430  0.70100  0.54280  Biso   1.000  C
  C647     1.0000 0.01470  0.68770  0.56720  Biso   1.000  C
  C648     1.0000 0.02570  0.66140  0.56900  Biso   1.000  C
  C649     1.0000 0.03470  0.64830  0.54520  Biso   1.000  C
  C650     1.0000 0.03630  0.66350  0.52390  Biso   1.000  C
  C651     1.0000 0.99980  0.72100  0.35290  Biso   1.000  C
  C652     1.0000 0.99100  0.74620  0.34770  Biso   1.000  C
  C653     1.0000 0.96850  0.75060  0.33100  Biso   1.000  C
  C654     1.0000 0.95480  0.72980  0.31960  Biso   1.000  C
  C655     1.0000 0.96360  0.70460  0.32480  Biso   1.000  C
  C656     1.0000 0.98600  0.70020  0.34150  Biso   1.000  C
  C657     1.0000 0.94670  0.63030  0.46650  Biso   1.000  C
  C658     1.0000 0.92450  0.62090  0.48300  Biso   1.000  C
  C659     1.0000 0.89580  0.61450  0.47400  Biso   1.000  C
  C660     1.0000 0.89110  0.61480  0.44580  Biso   1.000  C
  C661     1.0000 0.91470  0.62550  0.42810  Biso   1.000  C
  C662     1.0000 0.94150  0.63250  0.44040  Biso   1.000  C
  C663     1.0000 0.16120  0.80990  0.24710  Biso   1.000  C
  C664     1.0000 0.15530  0.80550  0.22040  Biso   1.000  C
  C665     1.0000 0.12720  0.81290  0.21170  Biso   1.000  C
  C666     1.0000 0.10680  0.82130  0.22740  Biso   1.000  C
  C667     1.0000 0.11240  0.82660  0.25370  Biso   1.000  C
  C668     1.0000 0.14030  0.81960  0.26430  Biso   1.000  C
  Cd81     1.0000 0.14359  0.66020  0.35400  Biso   1.000  Cd
  Cd82     1.0000 0.20075  0.68212  0.40800  Biso   1.000  Cd
  Cd83     1.0000 0.08586  0.64207  0.40674  Biso   1.000  Cd
  Cd84     1.0000 0.14755  0.66161  0.46000  Biso   1.000  Cd
  Cd85     1.0000 0.12325  0.71301  0.41043  Biso   1.000  Cd
  Cd86     1.0000 0.22343  0.62532  0.35291  Biso   1.000  Cd
  Cd87     1.0000 0.08212  0.63937  0.29957  Biso   1.000  Cd
  Cd88     1.0000 0.06694  0.69062  0.46597  Biso   1.000  Cd
  Cd89     1.0000 0.02004  0.62238  0.45255  Biso   1.000  Cd
  Cd90     1.0000 0.20681  0.68222  0.30359  Biso   1.000  Cd
  Cd91     1.0000 0.12381  0.70710  0.29471  Biso   1.000  Cd
  Cd92     1.0000 0.06542  0.69271  0.34955  Biso   1.000  Cd
  Cd93     1.0000 0.01034  0.68492  0.40576  Biso   1.000  Cd
  Cd94     1.0000 0.17411  0.73504  0.35397  Biso   1.000  Cd
  S126     1.0000 0.10401  0.67894  0.38030  Biso   1.000  S
  S127     1.0000 0.16216  0.69655  0.32662  Biso   1.000  S
  S128     1.0000 0.18429  0.64419  0.38070  Biso   1.000  S
  S129     1.0000 0.16453  0.70020  0.43716  Biso   1.000  S
  S130     1.0000 0.04554  0.66057  0.43315  Biso   1.000  S
  S131     1.0000 0.13561  0.75177  0.38251  Biso   1.000  S
  S132     1.0000 0.04239  0.65897  0.32358  Biso   1.000  S
  S133     1.0000 0.19013  0.64086  0.48279  Biso   1.000  S
  S134     1.0000 0.10703  0.67094  0.49166  Biso   1.000  S
  S135     1.0000 0.07843  0.72646  0.43524  Biso   1.000  S
  S136     1.0000 0.24772  0.66467  0.42669  Biso   1.000  S
  S137     1.0000 0.21768  0.71362  0.37386  Biso   1.000  S
  Cd95     1.0000 0.98135  0.68955  0.47596  Biso   1.000  Cd
  Cd96     1.0000 0.18875  0.75789  0.28198  Biso   1.000  Cd
  S138     1.0000 0.02764  0.70763  0.49463  Biso   1.000  S
  S139     1.0000 0.22359  0.72024  0.27631  Biso   1.000  S
  S140     1.0000 0.09002  0.72937  0.32542  Biso   1.000  S
  S141     1.0000 0.24641  0.66405  0.33051  Biso   1.000  S
  S142     1.0000 0.25776  0.60729  0.38632  Biso   1.000  S
  S143     1.0000 0.97958  0.63993  0.47849  Biso   1.000  S
  S144     1.0000 0.13874  0.74521  0.26825  Biso   1.000  S
  S145     1.0000 0.02789  0.71764  0.37500  Biso   1.000  S
  S146     1.0000 0.19273  0.77229  0.32762  Biso   1.000  S
  S147     1.0000 0.10690  0.66950  0.26838  Biso   1.000  S
  S148     1.0000 0.97210  0.70679  0.43287  Biso   1.000  S
  S149     1.0000 0.18370  0.64989  0.27371  Biso   1.000  S
  S150     1.0000 0.19488  0.80085  0.25982  Biso   1.000  S
  C669     1.0000 0.06360  0.75160  0.30620  Biso   1.000  C
  C670     1.0000 0.04510  0.77410  0.27090  Biso   1.000  C
  C671     1.0000 0.06630  0.75890  0.28160  Biso   1.000  C
  C672     1.0000 0.04850  0.73330  0.29340  Biso   1.000  C
  C673     1.0000 0.75510  0.22960  0.29100  Biso   1.000  C
  C674     1.0000 0.78010  0.23330  0.27670  Biso   1.000  C
  C675     1.0000 0.80690  0.23870  0.28750  Biso   1.000  C
  C676     1.0000 0.80850  0.24270  0.31310  Biso   1.000  C
  C677     1.0000 0.78490  0.24010  0.32800  Biso   1.000  C
  C678     1.0000 0.75880  0.23230  0.31700  Biso   1.000  C
  C679     1.0000 0.48160  0.24040  0.43440  Biso   1.000  C
  C680     1.0000 0.48270  0.25420  0.45680  Biso   1.000  C
  C681     1.0000 0.48870  0.28210  0.45690  Biso   1.000  C
  C682     1.0000 0.49250  0.29550  0.43670  Biso   1.000  C
  C683     1.0000 0.49080  0.28060  0.41520  Biso   1.000  C
  C684     1.0000 0.48460  0.25420  0.41410  Biso   1.000  C
  C685     1.0000 0.58830  0.25440  0.45080  Biso   1.000  C
  C686     1.0000 0.61480  0.26470  0.45330  Biso   1.000  C
  C687     1.0000 0.62390  0.28960  0.46650  Biso   1.000  C
  C688     1.0000 0.60190  0.30020  0.47890  Biso   1.000  C
  C689     1.0000 0.57270  0.29380  0.47540  Biso   1.000  C
  C690     1.0000 0.56610  0.27280  0.46050  Biso   1.000  C
  C691     1.0000 0.77110  0.15290  0.30820  Biso   1.000  C
  C692     1.0000 0.79400  0.17020  0.30250  Biso   1.000  C
  C693     1.0000 0.81470  0.16130  0.28520  Biso   1.000  C
  C694     1.0000 0.81360  0.13500  0.27350  Biso   1.000  C
  C695     1.0000 0.79000  0.11910  0.27900  Biso   1.000  C
  C696     1.0000 0.76870  0.12830  0.29740  Biso   1.000  C
  C697     1.0000 0.74330  0.23540  0.38740  Biso   1.000  C
  C698     1.0000 0.74030  0.26000  0.38150  Biso   1.000  C
  C699     1.0000 0.76330  0.27800  0.39180  Biso   1.000  C
  C700     1.0000 0.78520  0.26680  0.40850  Biso   1.000  C
  C701     1.0000 0.79030  0.23930  0.40890  Biso   1.000  C
  C702     1.0000 0.76840  0.22360  0.39400  Biso   1.000  C
  C703     1.0000 0.75970  0.18660  0.44870  Biso   1.000  C
  C704     1.0000 0.74440  0.20530  0.45840  Biso   1.000  C
  C705     1.0000 0.75560  0.22410  0.47370  Biso   1.000  C
  C706     1.0000 0.78500  0.22210  0.48290  Biso   1.000  C
  C707     1.0000 0.80360  0.20350  0.47230  Biso   1.000  C
  C708     1.0000 0.78970  0.18450  0.45410  Biso   1.000  C
  C709     1.0000 0.70540  0.16540  0.50300  Biso   1.000  C
  C710     1.0000 0.69160  0.18790  0.50840  Biso   1.000  C
  C711     1.0000 0.70340  0.20640  0.52360  Biso   1.000  C
  C712     1.0000 0.73040  0.20130  0.53540  Biso   1.000  C
  C713     1.0000 0.74250  0.17810  0.53070  Biso   1.000  C
  C714     1.0000 0.73310  0.16400  0.51300  Biso   1.000  C
  C715     1.0000 0.65590  0.27400  0.40160  Biso   1.000  C
  C716     1.0000 0.67750  0.26580  0.41700  Biso   1.000  C
  C717     1.0000 0.69440  0.28360  0.43350  Biso   1.000  C
  C718     1.0000 0.68630  0.31200  0.43110  Biso   1.000  C
  C719     1.0000 0.66060  0.31860  0.41420  Biso   1.000  C
  C720     1.0000 0.64730  0.29940  0.39750  Biso   1.000  C
  C721     1.0000 0.66530  0.29730  0.33180  Biso   1.000  C
  C722     1.0000 0.67800  0.32170  0.33830  Biso   1.000  C
  C723     1.0000 0.65600  0.33910  0.34340  Biso   1.000  C
  C724     1.0000 0.62810  0.33620  0.33610  Biso   1.000  C
  C725     1.0000 0.61720  0.31360  0.33200  Biso   1.000  C
  C726     1.0000 0.63740  0.29090  0.32870  Biso   1.000  C
  C727     1.0000 0.71336  0.13717  0.25344  Biso   1.000  C
  C728     1.0000 0.71970  0.11084  0.25350  Biso   1.000  C
  C729     1.0000 0.74190  0.10133  0.23858  Biso   1.000  C
  C730     1.0000 0.75770  0.11820  0.22359  Biso   1.000  C
  C731     1.0000 0.75130  0.14450  0.22353  Biso   1.000  C
  C732     1.0000 0.72918  0.15400  0.23845  Biso   1.000  C
  C733     1.0000 0.64150  0.23469  0.24000  Biso   1.000  C
  C734     1.0000 0.65870  0.21322  0.23510  Biso   1.000  C
  C735     1.0000 0.66280  0.20491  0.21063  Biso   1.000  C
  C736     1.0000 0.64970  0.21810  0.19100  Biso   1.000  C
  C737     1.0000 0.63250  0.23950  0.19580  Biso   1.000  C
  C738     1.0000 0.62830  0.24780  0.22030  Biso   1.000  C
  C739     1.0000 0.57500  0.18861  0.25390  Biso   1.000  C
  C740     1.0000 0.57770  0.19885  0.22990  Biso   1.000  C
  C741     1.0000 0.55400  0.21032  0.21840  Biso   1.000  C
  C742     1.0000 0.52770  0.21156  0.23080  Biso   1.000  C
  C743     1.0000 0.52500  0.20133  0.25470  Biso   1.000  C
  C744     1.0000 0.54870  0.18985  0.26630  Biso   1.000  C
  C745     1.0000 0.79390  0.10180  0.37170  Biso   1.000  C
  C746     1.0000 0.79140  0.12310  0.35590  Biso   1.000  C
  C747     1.0000 0.81420  0.12980  0.34030  Biso   1.000  C
  C748     1.0000 0.83930  0.11510  0.34030  Biso   1.000  C
  C749     1.0000 0.84180  0.09380  0.35610  Biso   1.000  C
  C750     1.0000 0.81900  0.08710  0.37170  Biso   1.000  C
  C751     1.0000 0.61630  0.19830  0.51040  Biso   1.000  C
  C752     1.0000 0.62560  0.22070  0.49830  Biso   1.000  C
  C753     1.0000 0.63500  0.24280  0.51540  Biso   1.000  C
  C754     1.0000 0.63290  0.24150  0.54080  Biso   1.000  C
  C755     1.0000 0.62390  0.21900  0.55050  Biso   1.000  C
  C756     1.0000 0.61300  0.19740  0.53540  Biso   1.000  C
  C757     1.0000 0.52650  0.18940  0.52240  Biso   1.000  C
  C758     1.0000 0.51430  0.20100  0.54280  Biso   1.000  C
  C759     1.0000 0.51470  0.18770  0.56720  Biso   1.000  C
  C760     1.0000 0.52570  0.16140  0.56900  Biso   1.000  C
  C761     1.0000 0.53470  0.14830  0.54520  Biso   1.000  C
  C762     1.0000 0.53630  0.16350  0.52390  Biso   1.000  C
  C763     1.0000 0.49980  0.22100  0.35290  Biso   1.000  C
  C764     1.0000 0.49100  0.24620  0.34770  Biso   1.000  C
  C765     1.0000 0.46850  0.25060  0.33100  Biso   1.000  C
  C766     1.0000 0.45480  0.22980  0.31960  Biso   1.000  C
  C767     1.0000 0.46360  0.20460  0.32480  Biso   1.000  C
  C768     1.0000 0.48600  0.20020  0.34150  Biso   1.000  C
  C769     1.0000 0.44670  0.13030  0.46650  Biso   1.000  C
  C770     1.0000 0.42450  0.12090  0.48300  Biso   1.000  C
  C771     1.0000 0.39580  0.11450  0.47400  Biso   1.000  C
  C772     1.0000 0.39110  0.11480  0.44580  Biso   1.000  C
  C773     1.0000 0.41470  0.12550  0.42810  Biso   1.000  C
  C774     1.0000 0.44150  0.13250  0.44040  Biso   1.000  C
  C775     1.0000 0.66120  0.30990  0.24710  Biso   1.000  C
  C776     1.0000 0.65530  0.30550  0.22040  Biso   1.000  C
  C777     1.0000 0.62720  0.31290  0.21170  Biso   1.000  C
  C778     1.0000 0.60680  0.32130  0.22740  Biso   1.000  C
  C779     1.0000 0.61240  0.32660  0.25370  Biso   1.000  C
  C780     1.0000 0.64030  0.31960  0.26430  Biso   1.000  C
  Cd97     1.0000 0.64359  0.16020  0.35400  Biso   1.000  Cd
  Cd98     1.0000 0.70075  0.18212  0.40800  Biso   1.000  Cd
  Cd99     1.0000 0.58586  0.14207  0.40674  Biso   1.000  Cd
  Cd100    1.0000 0.64755  0.16161  0.46000  Biso   1.000  Cd
  Cd101    1.0000 0.62325  0.21301  0.41043  Biso   1.000  Cd
  Cd102    1.0000 0.72343  0.12532  0.35291  Biso   1.000  Cd
  Cd103    1.0000 0.58212  0.13937  0.29957  Biso   1.000  Cd
  Cd104    1.0000 0.56694  0.19062  0.46597  Biso   1.000  Cd
  Cd105    1.0000 0.52004  0.12238  0.45255  Biso   1.000  Cd
  Cd106    1.0000 0.70681  0.18222  0.30359  Biso   1.000  Cd
  Cd107    1.0000 0.62381  0.20710  0.29471  Biso   1.000  Cd
  Cd108    1.0000 0.56542  0.19271  0.34955  Biso   1.000  Cd
  Cd109    1.0000 0.51034  0.18492  0.40576  Biso   1.000  Cd
  Cd110    1.0000 0.67411  0.23504  0.35397  Biso   1.000  Cd
  S151     1.0000 0.60401  0.17894  0.38030  Biso   1.000  S
  S152     1.0000 0.66216  0.19655  0.32662  Biso   1.000  S
  S153     1.0000 0.68429  0.14419  0.38070  Biso   1.000  S
  S154     1.0000 0.66453  0.20020  0.43716  Biso   1.000  S
  S155     1.0000 0.54554  0.16057  0.43315  Biso   1.000  S
  S156     1.0000 0.63561  0.25177  0.38251  Biso   1.000  S
  S157     1.0000 0.54239  0.15897  0.32358  Biso   1.000  S
  S158     1.0000 0.69013  0.14086  0.48279  Biso   1.000  S
  S159     1.0000 0.60703  0.17094  0.49166  Biso   1.000  S
  S160     1.0000 0.57843  0.22646  0.43524  Biso   1.000  S
  S161     1.0000 0.74772  0.16467  0.42669  Biso   1.000  S
  S162     1.0000 0.71768  0.21362  0.37386  Biso   1.000  S
  Cd111    1.0000 0.48135  0.18955  0.47596  Biso   1.000  Cd
  Cd112    1.0000 0.68875  0.25789  0.28198  Biso   1.000  Cd
  S163     1.0000 0.52764  0.20763  0.49463  Biso   1.000  S
  S164     1.0000 0.72359  0.22024  0.27631  Biso   1.000  S
  S165     1.0000 0.59002  0.22937  0.32542  Biso   1.000  S
  S166     1.0000 0.74641  0.16405  0.33051  Biso   1.000  S
  S167     1.0000 0.75776  0.10729  0.38632  Biso   1.000  S
  S168     1.0000 0.47958  0.13993  0.47849  Biso   1.000  S
  S169     1.0000 0.63874  0.24521  0.26825  Biso   1.000  S
  S170     1.0000 0.52789  0.21764  0.37500  Biso   1.000  S
  S171     1.0000 0.69273  0.27229  0.32762  Biso   1.000  S
  S172     1.0000 0.60690  0.16950  0.26838  Biso   1.000  S
  S173     1.0000 0.47210  0.20679  0.43287  Biso   1.000  S
  S174     1.0000 0.68370  0.14989  0.27371  Biso   1.000  S
  S175     1.0000 0.69488  0.30085  0.25982  Biso   1.000  S
  C781     1.0000 0.56360  0.25160  0.30620  Biso   1.000  C
  C782     1.0000 0.54510  0.27410  0.27090  Biso   1.000  C
  C783     1.0000 0.56630  0.25890  0.28160  Biso   1.000  C
  C784     1.0000 0.54850  0.23330  0.29340  Biso   1.000  C
  C785     1.0000 0.75510  0.72960  0.79100  Biso   1.000  C
  C786     1.0000 0.78010  0.73330  0.77670  Biso   1.000  C
  C787     1.0000 0.80690  0.73870  0.78750  Biso   1.000  C
  C788     1.0000 0.80850  0.74270  0.81310  Biso   1.000  C
  C789     1.0000 0.78490  0.74010  0.82800  Biso   1.000  C
  C790     1.0000 0.75880  0.73230  0.81700  Biso   1.000  C
  C791     1.0000 0.48160  0.74040  0.93440  Biso   1.000  C
  C792     1.0000 0.48270  0.75420  0.95680  Biso   1.000  C
  C793     1.0000 0.48870  0.78210  0.95690  Biso   1.000  C
  C794     1.0000 0.49250  0.79550  0.93670  Biso   1.000  C
  C795     1.0000 0.49080  0.78060  0.91520  Biso   1.000  C
  C796     1.0000 0.48460  0.75420  0.91410  Biso   1.000  C
  C797     1.0000 0.58830  0.75440  0.95080  Biso   1.000  C
  C798     1.0000 0.61480  0.76470  0.95330  Biso   1.000  C
  C799     1.0000 0.62390  0.78960  0.96650  Biso   1.000  C
  C800     1.0000 0.60190  0.80020  0.97890  Biso   1.000  C
  C801     1.0000 0.57270  0.79380  0.97540  Biso   1.000  C
  C802     1.0000 0.56610  0.77280  0.96050  Biso   1.000  C
  C803     1.0000 0.77110  0.65290  0.80820  Biso   1.000  C
  C804     1.0000 0.79400  0.67020  0.80250  Biso   1.000  C
  C805     1.0000 0.81470  0.66130  0.78520  Biso   1.000  C
  C806     1.0000 0.81360  0.63500  0.77350  Biso   1.000  C
  C807     1.0000 0.79000  0.61910  0.77900  Biso   1.000  C
  C808     1.0000 0.76870  0.62830  0.79740  Biso   1.000  C
  C809     1.0000 0.74330  0.73540  0.88740  Biso   1.000  C
  C810     1.0000 0.74030  0.76000  0.88150  Biso   1.000  C
  C811     1.0000 0.76330  0.77800  0.89180  Biso   1.000  C
  C812     1.0000 0.78520  0.76680  0.90850  Biso   1.000  C
  C813     1.0000 0.79030  0.73930  0.90890  Biso   1.000  C
  C814     1.0000 0.76840  0.72360  0.89400  Biso   1.000  C
  C815     1.0000 0.75970  0.68660  0.94870  Biso   1.000  C
  C816     1.0000 0.74440  0.70530  0.95840  Biso   1.000  C
  C817     1.0000 0.75560  0.72410  0.97370  Biso   1.000  C
  C818     1.0000 0.78500  0.72210  0.98290  Biso   1.000  C
  C819     1.0000 0.80360  0.70350  0.97230  Biso   1.000  C
  C820     1.0000 0.78970  0.68450  0.95410  Biso   1.000  C
  C821     1.0000 0.70540  0.66540  0.00300  Biso   1.000  C
  C822     1.0000 0.69160  0.68790  0.00840  Biso   1.000  C
  C823     1.0000 0.70340  0.70640  0.02360  Biso   1.000  C
  C824     1.0000 0.73040  0.70130  0.03540  Biso   1.000  C
  C825     1.0000 0.74250  0.67810  0.03070  Biso   1.000  C
  C826     1.0000 0.73310  0.66400  0.01300  Biso   1.000  C
  C827     1.0000 0.65590  0.77400  0.90160  Biso   1.000  C
  C828     1.0000 0.67750  0.76580  0.91700  Biso   1.000  C
  C829     1.0000 0.69440  0.78360  0.93350  Biso   1.000  C
  C830     1.0000 0.68630  0.81200  0.93110  Biso   1.000  C
  C831     1.0000 0.66060  0.81860  0.91420  Biso   1.000  C
  C832     1.0000 0.64730  0.79940  0.89750  Biso   1.000  C
  C833     1.0000 0.66530  0.79730  0.83180  Biso   1.000  C
  C834     1.0000 0.67800  0.82170  0.83830  Biso   1.000  C
  C835     1.0000 0.65600  0.83910  0.84340  Biso   1.000  C
  C836     1.0000 0.62810  0.83620  0.83610  Biso   1.000  C
  C837     1.0000 0.61720  0.81360  0.83200  Biso   1.000  C
  C838     1.0000 0.63740  0.79090  0.82870  Biso   1.000  C
  C839     1.0000 0.71336  0.63717  0.75344  Biso   1.000  C
  C840     1.0000 0.71970  0.61084  0.75350  Biso   1.000  C
  C841     1.0000 0.74190  0.60133  0.73858  Biso   1.000  C
  C842     1.0000 0.75770  0.61820  0.72359  Biso   1.000  C
  C843     1.0000 0.75130  0.64450  0.72353  Biso   1.000  C
  C844     1.0000 0.72918  0.65400  0.73845  Biso   1.000  C
  C845     1.0000 0.64150  0.73469  0.74000  Biso   1.000  C
  C846     1.0000 0.65870  0.71322  0.73510  Biso   1.000  C
  C847     1.0000 0.66280  0.70491  0.71063  Biso   1.000  C
  C848     1.0000 0.64970  0.71810  0.69100  Biso   1.000  C
  C849     1.0000 0.63250  0.73950  0.69580  Biso   1.000  C
  C850     1.0000 0.62830  0.74780  0.72030  Biso   1.000  C
  C851     1.0000 0.57500  0.68861  0.75390  Biso   1.000  C
  C852     1.0000 0.57770  0.69885  0.72990  Biso   1.000  C
  C853     1.0000 0.55400  0.71032  0.71840  Biso   1.000  C
  C854     1.0000 0.52770  0.71156  0.73080  Biso   1.000  C
  C855     1.0000 0.52500  0.70133  0.75470  Biso   1.000  C
  C856     1.0000 0.54870  0.68985  0.76630  Biso   1.000  C
  C857     1.0000 0.79390  0.60180  0.87170  Biso   1.000  C
  C858     1.0000 0.79140  0.62310  0.85590  Biso   1.000  C
  C859     1.0000 0.81420  0.62980  0.84030  Biso   1.000  C
  C860     1.0000 0.83930  0.61510  0.84030  Biso   1.000  C
  C861     1.0000 0.84180  0.59380  0.85610  Biso   1.000  C
  C862     1.0000 0.81900  0.58710  0.87170  Biso   1.000  C
  C863     1.0000 0.61630  0.69830  0.01040  Biso   1.000  C
  C864     1.0000 0.62560  0.72070  0.99830  Biso   1.000  C
  C865     1.0000 0.63500  0.74280  0.01540  Biso   1.000  C
  C866     1.0000 0.63290  0.74150  0.04080  Biso   1.000  C
  C867     1.0000 0.62390  0.71900  0.05050  Biso   1.000  C
  C868     1.0000 0.61300  0.69740  0.03540  Biso   1.000  C
  C869     1.0000 0.52650  0.68940  0.02240  Biso   1.000  C
  C870     1.0000 0.51430  0.70100  0.04280  Biso   1.000  C
  C871     1.0000 0.51470  0.68770  0.06720  Biso   1.000  C
  C872     1.0000 0.52570  0.66140  0.06900  Biso   1.000  C
  C873     1.0000 0.53470  0.64830  0.04520  Biso   1.000  C
  C874     1.0000 0.53630  0.66350  0.02390  Biso   1.000  C
  C875     1.0000 0.49980  0.72100  0.85290  Biso   1.000  C
  C876     1.0000 0.49100  0.74620  0.84770  Biso   1.000  C
  C877     1.0000 0.46850  0.75060  0.83100  Biso   1.000  C
  C878     1.0000 0.45480  0.72980  0.81960  Biso   1.000  C
  C879     1.0000 0.46360  0.70460  0.82480  Biso   1.000  C
  C880     1.0000 0.48600  0.70020  0.84150  Biso   1.000  C
  C881     1.0000 0.44670  0.63030  0.96650  Biso   1.000  C
  C882     1.0000 0.42450  0.62090  0.98300  Biso   1.000  C
  C883     1.0000 0.39580  0.61450  0.97400  Biso   1.000  C
  C884     1.0000 0.39110  0.61480  0.94580  Biso   1.000  C
  C885     1.0000 0.41470  0.62550  0.92810  Biso   1.000  C
  C886     1.0000 0.44150  0.63250  0.94040  Biso   1.000  C
  C887     1.0000 0.66120  0.80990  0.74710  Biso   1.000  C
  C888     1.0000 0.65530  0.80550  0.72040  Biso   1.000  C
  C889     1.0000 0.62720  0.81290  0.71170  Biso   1.000  C
  C890     1.0000 0.60680  0.82130  0.72740  Biso   1.000  C
  C891     1.0000 0.61240  0.82660  0.75370  Biso   1.000  C
  C892     1.0000 0.64030  0.81960  0.76430  Biso   1.000  C
  Cd113    1.0000 0.64359  0.66020  0.85400  Biso   1.000  Cd
  Cd114    1.0000 0.70075  0.68212  0.90800  Biso   1.000  Cd
  Cd115    1.0000 0.58586  0.64207  0.90674  Biso   1.000  Cd
  Cd116    1.0000 0.64755  0.66161  0.96000  Biso   1.000  Cd
  Cd117    1.0000 0.62325  0.71301  0.91043  Biso   1.000  Cd
  Cd118    1.0000 0.72343  0.62532  0.85291  Biso   1.000  Cd
  Cd119    1.0000 0.58212  0.63937  0.79957  Biso   1.000  Cd
  Cd120    1.0000 0.56694  0.69062  0.96597  Biso   1.000  Cd
  Cd121    1.0000 0.52004  0.62238  0.95255  Biso   1.000  Cd
  Cd122    1.0000 0.70681  0.68222  0.80359  Biso   1.000  Cd
  Cd123    1.0000 0.62381  0.70710  0.79471  Biso   1.000  Cd
  Cd124    1.0000 0.56542  0.69271  0.84955  Biso   1.000  Cd
  Cd125    1.0000 0.51034  0.68492  0.90576  Biso   1.000  Cd
  Cd126    1.0000 0.67411  0.73504  0.85397  Biso   1.000  Cd
  S176     1.0000 0.60401  0.67894  0.88030  Biso   1.000  S
  S177     1.0000 0.66216  0.69655  0.82662  Biso   1.000  S
  S178     1.0000 0.68429  0.64419  0.88070  Biso   1.000  S
  S179     1.0000 0.66453  0.70020  0.93716  Biso   1.000  S
  S180     1.0000 0.54554  0.66057  0.93315  Biso   1.000  S
  S181     1.0000 0.63561  0.75177  0.88251  Biso   1.000  S
  S182     1.0000 0.54239  0.65897  0.82358  Biso   1.000  S
  S183     1.0000 0.69013  0.64086  0.98279  Biso   1.000  S
  S184     1.0000 0.60703  0.67094  0.99166  Biso   1.000  S
  S185     1.0000 0.57843  0.72646  0.93524  Biso   1.000  S
  S186     1.0000 0.74772  0.66467  0.92669  Biso   1.000  S
  S187     1.0000 0.71768  0.71362  0.87386  Biso   1.000  S
  Cd127    1.0000 0.48135  0.68955  0.97596  Biso   1.000  Cd
  Cd128    1.0000 0.68875  0.75789  0.78198  Biso   1.000  Cd
  S188     1.0000 0.52764  0.70763  0.99463  Biso   1.000  S
  S189     1.0000 0.72359  0.72024  0.77631  Biso   1.000  S
  S190     1.0000 0.59002  0.72937  0.82542  Biso   1.000  S
  S191     1.0000 0.74641  0.66405  0.83051  Biso   1.000  S
  S192     1.0000 0.75776  0.60729  0.88632  Biso   1.000  S
  S193     1.0000 0.47958  0.63993  0.97849  Biso   1.000  S
  S194     1.0000 0.63874  0.74521  0.76825  Biso   1.000  S
  S195     1.0000 0.52789  0.71764  0.87500  Biso   1.000  S
  S196     1.0000 0.69273  0.77229  0.82762  Biso   1.000  S
  S197     1.0000 0.60690  0.66950  0.76838  Biso   1.000  S
  S198     1.0000 0.47210  0.70679  0.93287  Biso   1.000  S
  S199     1.0000 0.68370  0.64989  0.77371  Biso   1.000  S
  S200     1.0000 0.69488  0.80085  0.75982  Biso   1.000  S
  C893     1.0000 0.56360  0.75160  0.80620  Biso   1.000  C
  C894     1.0000 0.54510  0.77410  0.77090  Biso   1.000  C
  C895     1.0000 0.56630  0.75890  0.78160  Biso   1.000  C
  C896     1.0000 0.54850  0.73330  0.79340  Biso   1.000  C
  C897     1.0000 0.74490  0.47960  0.04100  Biso   1.000  C
  C898     1.0000 0.71990  0.48330  0.02670  Biso   1.000  C
  C899     1.0000 0.69310  0.48870  0.03750  Biso   1.000  C
  C900     1.0000 0.69150  0.49270  0.06310  Biso   1.000  C
  C901     1.0000 0.71510  0.49010  0.07800  Biso   1.000  C
  C902     1.0000 0.74120  0.48230  0.06700  Biso   1.000  C
  C903     1.0000 0.01840  0.49040  0.18440  Biso   1.000  C
  C904     1.0000 0.01730  0.50420  0.20680  Biso   1.000  C
  C905     1.0000 0.01130  0.53210  0.20690  Biso   1.000  C
  C906     1.0000 0.00750  0.54550  0.18670  Biso   1.000  C
  C907     1.0000 0.00920  0.53060  0.16520  Biso   1.000  C
  C908     1.0000 0.01540  0.50420  0.16410  Biso   1.000  C
  C909     1.0000 0.91170  0.50440  0.20080  Biso   1.000  C
  C910     1.0000 0.88520  0.51470  0.20330  Biso   1.000  C
  C911     1.0000 0.87610  0.53960  0.21650  Biso   1.000  C
  C912     1.0000 0.89810  0.55020  0.22890  Biso   1.000  C
  C913     1.0000 0.92730  0.54380  0.22540  Biso   1.000  C
  C914     1.0000 0.93390  0.52280  0.21050  Biso   1.000  C
  C915     1.0000 0.72890  0.40290  0.05820  Biso   1.000  C
  C916     1.0000 0.70600  0.42020  0.05250  Biso   1.000  C
  C917     1.0000 0.68530  0.41130  0.03520  Biso   1.000  C
  C918     1.0000 0.68640  0.38500  0.02350  Biso   1.000  C
  C919     1.0000 0.71000  0.36910  0.02900  Biso   1.000  C
  C920     1.0000 0.73130  0.37830  0.04740  Biso   1.000  C
  C921     1.0000 0.75670  0.48540  0.13740  Biso   1.000  C
  C922     1.0000 0.75970  0.51000  0.13150  Biso   1.000  C
  C923     1.0000 0.73670  0.52800  0.14180  Biso   1.000  C
  C924     1.0000 0.71480  0.51680  0.15850  Biso   1.000  C
  C925     1.0000 0.70970  0.48930  0.15890  Biso   1.000  C
  C926     1.0000 0.73160  0.47360  0.14400  Biso   1.000  C
  C927     1.0000 0.74030  0.43660  0.19870  Biso   1.000  C
  C928     1.0000 0.75560  0.45530  0.20840  Biso   1.000  C
  C929     1.0000 0.74440  0.47410  0.22370  Biso   1.000  C
  C930     1.0000 0.71500  0.47210  0.23290  Biso   1.000  C
  C931     1.0000 0.69640  0.45350  0.22230  Biso   1.000  C
  C932     1.0000 0.71030  0.43450  0.20410  Biso   1.000  C
  C933     1.0000 0.79460  0.41540  0.25300  Biso   1.000  C
  C934     1.0000 0.80840  0.43790  0.25840  Biso   1.000  C
  C935     1.0000 0.79660  0.45640  0.27360  Biso   1.000  C
  C936     1.0000 0.76960  0.45130  0.28540  Biso   1.000  C
  C937     1.0000 0.75750  0.42810  0.28070  Biso   1.000  C
  C938     1.0000 0.76690  0.41400  0.26300  Biso   1.000  C
  C939     1.0000 0.84410  0.52400  0.15160  Biso   1.000  C
  C940     1.0000 0.82250  0.51580  0.16700  Biso   1.000  C
  C941     1.0000 0.80560  0.53360  0.18350  Biso   1.000  C
  C942     1.0000 0.81370  0.56200  0.18110  Biso   1.000  C
  C943     1.0000 0.83940  0.56860  0.16420  Biso   1.000  C
  C944     1.0000 0.85270  0.54940  0.14750  Biso   1.000  C
  C945     1.0000 0.83470  0.54730  0.08180  Biso   1.000  C
  C946     1.0000 0.82200  0.57170  0.08830  Biso   1.000  C
  C947     1.0000 0.84400  0.58910  0.09340  Biso   1.000  C
  C948     1.0000 0.87190  0.58620  0.08610  Biso   1.000  C
  C949     1.0000 0.88280  0.56360  0.08200  Biso   1.000  C
  C950     1.0000 0.86260  0.54090  0.07870  Biso   1.000  C
  C951     1.0000 0.78664  0.38717  0.00344  Biso   1.000  C
  C952     1.0000 0.78030  0.36084  0.00350  Biso   1.000  C
  C953     1.0000 0.75810  0.35133  0.98858  Biso   1.000  C
  C954     1.0000 0.74230  0.36820  0.97359  Biso   1.000  C
  C955     1.0000 0.74870  0.39450  0.97353  Biso   1.000  C
  C956     1.0000 0.77082  0.40400  0.98845  Biso   1.000  C
  C957     1.0000 0.85850  0.48469  0.99000  Biso   1.000  C
  C958     1.0000 0.84130  0.46322  0.98510  Biso   1.000  C
  C959     1.0000 0.83720  0.45491  0.96063  Biso   1.000  C
  C960     1.0000 0.85030  0.46810  0.94100  Biso   1.000  C
  C961     1.0000 0.86750  0.48950  0.94580  Biso   1.000  C
  C962     1.0000 0.87170  0.49780  0.97030  Biso   1.000  C
  C963     1.0000 0.92500  0.43861  0.00390  Biso   1.000  C
  C964     1.0000 0.92230  0.44885  0.97990  Biso   1.000  C
  C965     1.0000 0.94600  0.46032  0.96840  Biso   1.000  C
  C966     1.0000 0.97230  0.46156  0.98080  Biso   1.000  C
  C967     1.0000 0.97500  0.45133  0.00470  Biso   1.000  C
  C968     1.0000 0.95130  0.43985  0.01630  Biso   1.000  C
  C969     1.0000 0.70610  0.35180  0.12170  Biso   1.000  C
  C970     1.0000 0.70860  0.37310  0.10590  Biso   1.000  C
  C971     1.0000 0.68580  0.37980  0.09030  Biso   1.000  C
  C972     1.0000 0.66070  0.36510  0.09030  Biso   1.000  C
  C973     1.0000 0.65820  0.34380  0.10610  Biso   1.000  C
  C974     1.0000 0.68100  0.33710  0.12170  Biso   1.000  C
  C975     1.0000 0.88370  0.44830  0.26040  Biso   1.000  C
  C976     1.0000 0.87440  0.47070  0.24830  Biso   1.000  C
  C977     1.0000 0.86500  0.49280  0.26540  Biso   1.000  C
  C978     1.0000 0.86710  0.49150  0.29080  Biso   1.000  C
  C979     1.0000 0.87610  0.46900  0.30050  Biso   1.000  C
  C980     1.0000 0.88700  0.44740  0.28540  Biso   1.000  C
  C981     1.0000 0.97350  0.43940  0.27240  Biso   1.000  C
  C982     1.0000 0.98570  0.45100  0.29280  Biso   1.000  C
  C983     1.0000 0.98530  0.43770  0.31720  Biso   1.000  C
  C984     1.0000 0.97430  0.41140  0.31900  Biso   1.000  C
  C985     1.0000 0.96530  0.39830  0.29520  Biso   1.000  C
  C986     1.0000 0.96370  0.41350  0.27390  Biso   1.000  C
  C987     1.0000 0.00020  0.47100  0.10290  Biso   1.000  C
  C988     1.0000 0.00900  0.49620  0.09770  Biso   1.000  C
  C989     1.0000 0.03150  0.50060  0.08100  Biso   1.000  C
  C990     1.0000 0.04520  0.47980  0.06960  Biso   1.000  C
  C991     1.0000 0.03640  0.45460  0.07480  Biso   1.000  C
  C992     1.0000 0.01400  0.45020  0.09150  Biso   1.000  C
  C993     1.0000 0.05330  0.38030  0.21650  Biso   1.000  C
  C994     1.0000 0.07550  0.37090  0.23300  Biso   1.000  C
  C995     1.0000 0.10420  0.36450  0.22400  Biso   1.000  C
  C996     1.0000 0.10890  0.36480  0.19580  Biso   1.000  C
  C997     1.0000 0.08530  0.37550  0.17810  Biso   1.000  C
  C998     1.0000 0.05850  0.38250  0.19040  Biso   1.000  C
  C999     1.0000 0.83880  0.55990  0.99710  Biso   1.000  C
  C1000    1.0000 0.84470  0.55550  0.97040  Biso   1.000  C
  C1001    1.0000 0.87280  0.56290  0.96170  Biso   1.000  C
  C1002    1.0000 0.89320  0.57130  0.97740  Biso   1.000  C
  C1003    1.0000 0.88760  0.57660  0.00370  Biso   1.000  C
  C1004    1.0000 0.85970  0.56960  0.01430  Biso   1.000  C
  Cd129    1.0000 0.85641  0.41020  0.10400  Biso   1.000  Cd
  Cd130    1.0000 0.79925  0.43212  0.15800  Biso   1.000  Cd
  Cd131    1.0000 0.91414  0.39207  0.15674  Biso   1.000  Cd
  Cd132    1.0000 0.85245  0.41161  0.21000  Biso   1.000  Cd
  Cd133    1.0000 0.87675  0.46301  0.16043  Biso   1.000  Cd
  Cd134    1.0000 0.77657  0.37532  0.10291  Biso   1.000  Cd
  Cd135    1.0000 0.91788  0.38937  0.04957  Biso   1.000  Cd
  Cd136    1.0000 0.93306  0.44062  0.21597  Biso   1.000  Cd
  Cd137    1.0000 0.97996  0.37238  0.20255  Biso   1.000  Cd
  Cd138    1.0000 0.79319  0.43222  0.05359  Biso   1.000  Cd
  Cd139    1.0000 0.87619  0.45710  0.04471  Biso   1.000  Cd
  Cd140    1.0000 0.93458  0.44271  0.09955  Biso   1.000  Cd
  Cd141    1.0000 0.98966  0.43492  0.15576  Biso   1.000  Cd
  Cd142    1.0000 0.82589  0.48504  0.10397  Biso   1.000  Cd
  S201     1.0000 0.89599  0.42894  0.13030  Biso   1.000  S
  S202     1.0000 0.83784  0.44655  0.07662  Biso   1.000  S
  S203     1.0000 0.81571  0.39419  0.13070  Biso   1.000  S
  S204     1.0000 0.83547  0.45020  0.18716  Biso   1.000  S
  S205     1.0000 0.95446  0.41057  0.18315  Biso   1.000  S
  S206     1.0000 0.86439  0.50177  0.13251  Biso   1.000  S
  S207     1.0000 0.95761  0.40897  0.07358  Biso   1.000  S
  S208     1.0000 0.80987  0.39086  0.23279  Biso   1.000  S
  S209     1.0000 0.89297  0.42094  0.24166  Biso   1.000  S
  S210     1.0000 0.92157  0.47646  0.18524  Biso   1.000  S
  S211     1.0000 0.75228  0.41467  0.17669  Biso   1.000  S
  S212     1.0000 0.78232  0.46362  0.12386  Biso   1.000  S
  Cd143    1.0000 0.01865  0.43955  0.22596  Biso   1.000  Cd
  Cd144    1.0000 0.81125  0.50789  0.03198  Biso   1.000  Cd
  S213     1.0000 0.97236  0.45763  0.24463  Biso   1.000  S
  S214     1.0000 0.77641  0.47024  0.02631  Biso   1.000  S
  S215     1.0000 0.90998  0.47937  0.07542  Biso   1.000  S
  S216     1.0000 0.75359  0.41405  0.08051  Biso   1.000  S
  S217     1.0000 0.74224  0.35729  0.13632  Biso   1.000  S
  S218     1.0000 0.02042  0.38993  0.22849  Biso   1.000  S
  S219     1.0000 0.86126  0.49521  0.01825  Biso   1.000  S
  S220     1.0000 0.97211  0.46764  0.12500  Biso   1.000  S
  S221     1.0000 0.80727  0.52229  0.07762  Biso   1.000  S
  S222     1.0000 0.89310  0.41950  0.01838  Biso   1.000  S
  S223     1.0000 0.02790  0.45679  0.18287  Biso   1.000  S
  S224     1.0000 0.81630  0.39989  0.02371  Biso   1.000  S
  S225     1.0000 0.80512  0.55085  0.00982  Biso   1.000  S
  C1005    1.0000 0.93640  0.50160  0.05620  Biso   1.000  C
  C1006    1.0000 0.95490  0.52410  0.02090  Biso   1.000  C
  C1007    1.0000 0.93370  0.50890  0.03160  Biso   1.000  C
  C1008    1.0000 0.95150  0.48330  0.04340  Biso   1.000  C
  C1009    1.0000 0.74490  0.97960  0.54100  Biso   1.000  C
  C1010    1.0000 0.71990  0.98330  0.52670  Biso   1.000  C
  C1011    1.0000 0.69310  0.98870  0.53750  Biso   1.000  C
  C1012    1.0000 0.69150  0.99270  0.56310  Biso   1.000  C
  C1013    1.0000 0.71510  0.99010  0.57800  Biso   1.000  C
  C1014    1.0000 0.74120  0.98230  0.56700  Biso   1.000  C
  C1015    1.0000 0.01840  0.99040  0.68440  Biso   1.000  C
  C1016    1.0000 0.01730  0.00420  0.70680  Biso   1.000  C
  C1017    1.0000 0.01130  0.03210  0.70690  Biso   1.000  C
  C1018    1.0000 0.00750  0.04550  0.68670  Biso   1.000  C
  C1019    1.0000 0.00920  0.03060  0.66520  Biso   1.000  C
  C1020    1.0000 0.01540  0.00420  0.66410  Biso   1.000  C
  C1021    1.0000 0.91170  0.00440  0.70080  Biso   1.000  C
  C1022    1.0000 0.88520  0.01470  0.70330  Biso   1.000  C
  C1023    1.0000 0.87610  0.03960  0.71650  Biso   1.000  C
  C1024    1.0000 0.89810  0.05020  0.72890  Biso   1.000  C
  C1025    1.0000 0.92730  0.04380  0.72540  Biso   1.000  C
  C1026    1.0000 0.93390  0.02280  0.71050  Biso   1.000  C
  C1027    1.0000 0.72890  0.90290  0.55820  Biso   1.000  C
  C1028    1.0000 0.70600  0.92020  0.55250  Biso   1.000  C
  C1029    1.0000 0.68530  0.91130  0.53520  Biso   1.000  C
  C1030    1.0000 0.68640  0.88500  0.52350  Biso   1.000  C
  C1031    1.0000 0.71000  0.86910  0.52900  Biso   1.000  C
  C1032    1.0000 0.73130  0.87830  0.54740  Biso   1.000  C
  C1033    1.0000 0.75670  0.98540  0.63740  Biso   1.000  C
  C1034    1.0000 0.75970  0.01000  0.63150  Biso   1.000  C
  C1035    1.0000 0.73670  0.02800  0.64180  Biso   1.000  C
  C1036    1.0000 0.71480  0.01680  0.65850  Biso   1.000  C
  C1037    1.0000 0.70970  0.98930  0.65890  Biso   1.000  C
  C1038    1.0000 0.73160  0.97360  0.64400  Biso   1.000  C
  C1039    1.0000 0.74030  0.93660  0.69870  Biso   1.000  C
  C1040    1.0000 0.75560  0.95530  0.70840  Biso   1.000  C
  C1041    1.0000 0.74440  0.97410  0.72370  Biso   1.000  C
  C1042    1.0000 0.71500  0.97210  0.73290  Biso   1.000  C
  C1043    1.0000 0.69640  0.95350  0.72230  Biso   1.000  C
  C1044    1.0000 0.71030  0.93450  0.70410  Biso   1.000  C
  C1045    1.0000 0.79460  0.91540  0.75300  Biso   1.000  C
  C1046    1.0000 0.80840  0.93790  0.75840  Biso   1.000  C
  C1047    1.0000 0.79660  0.95640  0.77360  Biso   1.000  C
  C1048    1.0000 0.76960  0.95130  0.78540  Biso   1.000  C
  C1049    1.0000 0.75750  0.92810  0.78070  Biso   1.000  C
  C1050    1.0000 0.76690  0.91400  0.76300  Biso   1.000  C
  C1051    1.0000 0.84410  0.02400  0.65160  Biso   1.000  C
  C1052    1.0000 0.82250  0.01580  0.66700  Biso   1.000  C
  C1053    1.0000 0.80560  0.03360  0.68350  Biso   1.000  C
  C1054    1.0000 0.81370  0.06200  0.68110  Biso   1.000  C
  C1055    1.0000 0.83940  0.06860  0.66420  Biso   1.000  C
  C1056    1.0000 0.85270  0.04940  0.64750  Biso   1.000  C
  C1057    1.0000 0.83470  0.04730  0.58180  Biso   1.000  C
  C1058    1.0000 0.82200  0.07170  0.58830  Biso   1.000  C
  C1059    1.0000 0.84400  0.08910  0.59340  Biso   1.000  C
  C1060    1.0000 0.87190  0.08620  0.58610  Biso   1.000  C
  C1061    1.0000 0.88280  0.06360  0.58200  Biso   1.000  C
  C1062    1.0000 0.86260  0.04090  0.57870  Biso   1.000  C
  C1063    1.0000 0.78664  0.88717  0.50344  Biso   1.000  C
  C1064    1.0000 0.78030  0.86084  0.50350  Biso   1.000  C
  C1065    1.0000 0.75810  0.85133  0.48858  Biso   1.000  C
  C1066    1.0000 0.74230  0.86820  0.47359  Biso   1.000  C
  C1067    1.0000 0.74870  0.89450  0.47353  Biso   1.000  C
  C1068    1.0000 0.77082  0.90400  0.48845  Biso   1.000  C
  C1069    1.0000 0.85850  0.98469  0.49000  Biso   1.000  C
  C1070    1.0000 0.84130  0.96322  0.48510  Biso   1.000  C
  C1071    1.0000 0.83720  0.95491  0.46063  Biso   1.000  C
  C1072    1.0000 0.85030  0.96810  0.44100  Biso   1.000  C
  C1073    1.0000 0.86750  0.98950  0.44580  Biso   1.000  C
  C1074    1.0000 0.87170  0.99780  0.47030  Biso   1.000  C
  C1075    1.0000 0.92500  0.93861  0.50390  Biso   1.000  C
  C1076    1.0000 0.92230  0.94885  0.47990  Biso   1.000  C
  C1077    1.0000 0.94600  0.96032  0.46840  Biso   1.000  C
  C1078    1.0000 0.97230  0.96156  0.48080  Biso   1.000  C
  C1079    1.0000 0.97500  0.95133  0.50470  Biso   1.000  C
  C1080    1.0000 0.95130  0.93985  0.51630  Biso   1.000  C
  C1081    1.0000 0.70610  0.85180  0.62170  Biso   1.000  C
  C1082    1.0000 0.70860  0.87310  0.60590  Biso   1.000  C
  C1083    1.0000 0.68580  0.87980  0.59030  Biso   1.000  C
  C1084    1.0000 0.66070  0.86510  0.59030  Biso   1.000  C
  C1085    1.0000 0.65820  0.84380  0.60610  Biso   1.000  C
  C1086    1.0000 0.68100  0.83710  0.62170  Biso   1.000  C
  C1087    1.0000 0.88370  0.94830  0.76040  Biso   1.000  C
  C1088    1.0000 0.87440  0.97070  0.74830  Biso   1.000  C
  C1089    1.0000 0.86500  0.99280  0.76540  Biso   1.000  C
  C1090    1.0000 0.86710  0.99150  0.79080  Biso   1.000  C
  C1091    1.0000 0.87610  0.96900  0.80050  Biso   1.000  C
  C1092    1.0000 0.88700  0.94740  0.78540  Biso   1.000  C
  C1093    1.0000 0.97350  0.93940  0.77240  Biso   1.000  C
  C1094    1.0000 0.98570  0.95100  0.79280  Biso   1.000  C
  C1095    1.0000 0.98530  0.93770  0.81720  Biso   1.000  C
  C1096    1.0000 0.97430  0.91140  0.81900  Biso   1.000  C
  C1097    1.0000 0.96530  0.89830  0.79520  Biso   1.000  C
  C1098    1.0000 0.96370  0.91350  0.77390  Biso   1.000  C
  C1099    1.0000 0.00020  0.97100  0.60290  Biso   1.000  C
  C1100    1.0000 0.00900  0.99620  0.59770  Biso   1.000  C
  C1101    1.0000 0.03150  0.00060  0.58100  Biso   1.000  C
  C1102    1.0000 0.04520  0.97980  0.56960  Biso   1.000  C
  C1103    1.0000 0.03640  0.95460  0.57480  Biso   1.000  C
  C1104    1.0000 0.01400  0.95020  0.59150  Biso   1.000  C
  C1105    1.0000 0.05330  0.88030  0.71650  Biso   1.000  C
  C1106    1.0000 0.07550  0.87090  0.73300  Biso   1.000  C
  C1107    1.0000 0.10420  0.86450  0.72400  Biso   1.000  C
  C1108    1.0000 0.10890  0.86480  0.69580  Biso   1.000  C
  C1109    1.0000 0.08530  0.87550  0.67810  Biso   1.000  C
  C1110    1.0000 0.05850  0.88250  0.69040  Biso   1.000  C
  C1111    1.0000 0.83880  0.05990  0.49710  Biso   1.000  C
  C1112    1.0000 0.84470  0.05550  0.47040  Biso   1.000  C
  C1113    1.0000 0.87280  0.06290  0.46170  Biso   1.000  C
  C1114    1.0000 0.89320  0.07130  0.47740  Biso   1.000  C
  C1115    1.0000 0.88760  0.07660  0.50370  Biso   1.000  C
  C1116    1.0000 0.85970  0.06960  0.51430  Biso   1.000  C
  Cd145    1.0000 0.85641  0.91020  0.60400  Biso   1.000  Cd
  Cd146    1.0000 0.79925  0.93212  0.65800  Biso   1.000  Cd
  Cd147    1.0000 0.91414  0.89207  0.65674  Biso   1.000  Cd
  Cd148    1.0000 0.85245  0.91161  0.71000  Biso   1.000  Cd
  Cd149    1.0000 0.87675  0.96301  0.66043  Biso   1.000  Cd
  Cd150    1.0000 0.77657  0.87532  0.60291  Biso   1.000  Cd
  Cd151    1.0000 0.91788  0.88937  0.54957  Biso   1.000  Cd
  Cd152    1.0000 0.93306  0.94062  0.71597  Biso   1.000  Cd
  Cd153    1.0000 0.97996  0.87238  0.70255  Biso   1.000  Cd
  Cd154    1.0000 0.79319  0.93222  0.55359  Biso   1.000  Cd
  Cd155    1.0000 0.87619  0.95710  0.54471  Biso   1.000  Cd
  Cd156    1.0000 0.93458  0.94271  0.59955  Biso   1.000  Cd
  Cd157    1.0000 0.98966  0.93492  0.65576  Biso   1.000  Cd
  Cd158    1.0000 0.82589  0.98504  0.60397  Biso   1.000  Cd
  S226     1.0000 0.89599  0.92894  0.63030  Biso   1.000  S
  S227     1.0000 0.83784  0.94655  0.57662  Biso   1.000  S
  S228     1.0000 0.81571  0.89419  0.63070  Biso   1.000  S
  S229     1.0000 0.83547  0.95020  0.68716  Biso   1.000  S
  S230     1.0000 0.95446  0.91057  0.68315  Biso   1.000  S
  S231     1.0000 0.86439  0.00177  0.63251  Biso   1.000  S
  S232     1.0000 0.95761  0.90897  0.57358  Biso   1.000  S
  S233     1.0000 0.80987  0.89086  0.73279  Biso   1.000  S
  S234     1.0000 0.89297  0.92094  0.74166  Biso   1.000  S
  S235     1.0000 0.92157  0.97646  0.68524  Biso   1.000  S
  S236     1.0000 0.75228  0.91467  0.67669  Biso   1.000  S
  S237     1.0000 0.78232  0.96362  0.62386  Biso   1.000  S
  Cd159    1.0000 0.01865  0.93955  0.72596  Biso   1.000  Cd
  Cd160    1.0000 0.81125  0.00789  0.53198  Biso   1.000  Cd
  S238     1.0000 0.97236  0.95763  0.74463  Biso   1.000  S
  S239     1.0000 0.77641  0.97024  0.52631  Biso   1.000  S
  S240     1.0000 0.90998  0.97937  0.57542  Biso   1.000  S
  S241     1.0000 0.75359  0.91405  0.58051  Biso   1.000  S
  S242     1.0000 0.74224  0.85729  0.63632  Biso   1.000  S
  S243     1.0000 0.02042  0.88993  0.72849  Biso   1.000  S
  S244     1.0000 0.86126  0.99521  0.51825  Biso   1.000  S
  S245     1.0000 0.97211  0.96764  0.62500  Biso   1.000  S
  S246     1.0000 0.80727  0.02229  0.57762  Biso   1.000  S
  S247     1.0000 0.89310  0.91950  0.51838  Biso   1.000  S
  S248     1.0000 0.02790  0.95679  0.68287  Biso   1.000  S
  S249     1.0000 0.81630  0.89989  0.52371  Biso   1.000  S
  S250     1.0000 0.80512  0.05085  0.50982  Biso   1.000  S
  C1117    1.0000 0.93640  0.00160  0.55620  Biso   1.000  C
  C1118    1.0000 0.95490  0.02410  0.52090  Biso   1.000  C
  C1119    1.0000 0.93370  0.00890  0.53160  Biso   1.000  C
  C1120    1.0000 0.95150  0.98330  0.54340  Biso   1.000  C
  C1121    1.0000 0.24490  0.47960  0.54100  Biso   1.000  C
  C1122    1.0000 0.21990  0.48330  0.52670  Biso   1.000  C
  C1123    1.0000 0.19310  0.48870  0.53750  Biso   1.000  C
  C1124    1.0000 0.19150  0.49270  0.56310  Biso   1.000  C
  C1125    1.0000 0.21510  0.49010  0.57800  Biso   1.000  C
  C1126    1.0000 0.24120  0.48230  0.56700  Biso   1.000  C
  C1127    1.0000 0.51840  0.49040  0.68440  Biso   1.000  C
  C1128    1.0000 0.51730  0.50420  0.70680  Biso   1.000  C
  C1129    1.0000 0.51130  0.53210  0.70690  Biso   1.000  C
  C1130    1.0000 0.50750  0.54550  0.68670  Biso   1.000  C
  C1131    1.0000 0.50920  0.53060  0.66520  Biso   1.000  C
  C1132    1.0000 0.51540  0.50420  0.66410  Biso   1.000  C
  C1133    1.0000 0.41170  0.50440  0.70080  Biso   1.000  C
  C1134    1.0000 0.38520  0.51470  0.70330  Biso   1.000  C
  C1135    1.0000 0.37610  0.53960  0.71650  Biso   1.000  C
  C1136    1.0000 0.39810  0.55020  0.72890  Biso   1.000  C
  C1137    1.0000 0.42730  0.54380  0.72540  Biso   1.000  C
  C1138    1.0000 0.43390  0.52280  0.71050  Biso   1.000  C
  C1139    1.0000 0.22890  0.40290  0.55820  Biso   1.000  C
  C1140    1.0000 0.20600  0.42020  0.55250  Biso   1.000  C
  C1141    1.0000 0.18530  0.41130  0.53520  Biso   1.000  C
  C1142    1.0000 0.18640  0.38500  0.52350  Biso   1.000  C
  C1143    1.0000 0.21000  0.36910  0.52900  Biso   1.000  C
  C1144    1.0000 0.23130  0.37830  0.54740  Biso   1.000  C
  C1145    1.0000 0.25670  0.48540  0.63740  Biso   1.000  C
  C1146    1.0000 0.25970  0.51000  0.63150  Biso   1.000  C
  C1147    1.0000 0.23670  0.52800  0.64180  Biso   1.000  C
  C1148    1.0000 0.21480  0.51680  0.65850  Biso   1.000  C
  C1149    1.0000 0.20970  0.48930  0.65890  Biso   1.000  C
  C1150    1.0000 0.23160  0.47360  0.64400  Biso   1.000  C
  C1151    1.0000 0.24030  0.43660  0.69870  Biso   1.000  C
  C1152    1.0000 0.25560  0.45530  0.70840  Biso   1.000  C
  C1153    1.0000 0.24440  0.47410  0.72370  Biso   1.000  C
  C1154    1.0000 0.21500  0.47210  0.73290  Biso   1.000  C
  C1155    1.0000 0.19640  0.45350  0.72230  Biso   1.000  C
  C1156    1.0000 0.21030  0.43450  0.70410  Biso   1.000  C
  C1157    1.0000 0.29460  0.41540  0.75300  Biso   1.000  C
  C1158    1.0000 0.30840  0.43790  0.75840  Biso   1.000  C
  C1159    1.0000 0.29660  0.45640  0.77360  Biso   1.000  C
  C1160    1.0000 0.26960  0.45130  0.78540  Biso   1.000  C
  C1161    1.0000 0.25750  0.42810  0.78070  Biso   1.000  C
  C1162    1.0000 0.26690  0.41400  0.76300  Biso   1.000  C
  C1163    1.0000 0.34410  0.52400  0.65160  Biso   1.000  C
  C1164    1.0000 0.32250  0.51580  0.66700  Biso   1.000  C
  C1165    1.0000 0.30560  0.53360  0.68350  Biso   1.000  C
  C1166    1.0000 0.31370  0.56200  0.68110  Biso   1.000  C
  C1167    1.0000 0.33940  0.56860  0.66420  Biso   1.000  C
  C1168    1.0000 0.35270  0.54940  0.64750  Biso   1.000  C
  C1169    1.0000 0.33470  0.54730  0.58180  Biso   1.000  C
  C1170    1.0000 0.32200  0.57170  0.58830  Biso   1.000  C
  C1171    1.0000 0.34400  0.58910  0.59340  Biso   1.000  C
  C1172    1.0000 0.37190  0.58620  0.58610  Biso   1.000  C
  C1173    1.0000 0.38280  0.56360  0.58200  Biso   1.000  C
  C1174    1.0000 0.36260  0.54090  0.57870  Biso   1.000  C
  C1175    1.0000 0.28664  0.38717  0.50344  Biso   1.000  C
  C1176    1.0000 0.28030  0.36084  0.50350  Biso   1.000  C
  C1177    1.0000 0.25810  0.35133  0.48858  Biso   1.000  C
  C1178    1.0000 0.24230  0.36820  0.47359  Biso   1.000  C
  C1179    1.0000 0.24870  0.39450  0.47353  Biso   1.000  C
  C1180    1.0000 0.27082  0.40400  0.48845  Biso   1.000  C
  C1181    1.0000 0.35850  0.48469  0.49000  Biso   1.000  C
  C1182    1.0000 0.34130  0.46322  0.48510  Biso   1.000  C
  C1183    1.0000 0.33720  0.45491  0.46063  Biso   1.000  C
  C1184    1.0000 0.35030  0.46810  0.44100  Biso   1.000  C
  C1185    1.0000 0.36750  0.48950  0.44580  Biso   1.000  C
  C1186    1.0000 0.37170  0.49780  0.47030  Biso   1.000  C
  C1187    1.0000 0.42500  0.43861  0.50390  Biso   1.000  C
  C1188    1.0000 0.42230  0.44885  0.47990  Biso   1.000  C
  C1189    1.0000 0.44600  0.46032  0.46840  Biso   1.000  C
  C1190    1.0000 0.47230  0.46156  0.48080  Biso   1.000  C
  C1191    1.0000 0.47500  0.45133  0.50470  Biso   1.000  C
  C1192    1.0000 0.45130  0.43985  0.51630  Biso   1.000  C
  C1193    1.0000 0.20610  0.35180  0.62170  Biso   1.000  C
  C1194    1.0000 0.20860  0.37310  0.60590  Biso   1.000  C
  C1195    1.0000 0.18580  0.37980  0.59030  Biso   1.000  C
  C1196    1.0000 0.16070  0.36510  0.59030  Biso   1.000  C
  C1197    1.0000 0.15820  0.34380  0.60610  Biso   1.000  C
  C1198    1.0000 0.18100  0.33710  0.62170  Biso   1.000  C
  C1199    1.0000 0.38370  0.44830  0.76040  Biso   1.000  C
  C1200    1.0000 0.37440  0.47070  0.74830  Biso   1.000  C
  C1201    1.0000 0.36500  0.49280  0.76540  Biso   1.000  C
  C1202    1.0000 0.36710  0.49150  0.79080  Biso   1.000  C
  C1203    1.0000 0.37610  0.46900  0.80050  Biso   1.000  C
  C1204    1.0000 0.38700  0.44740  0.78540  Biso   1.000  C
  C1205    1.0000 0.47350  0.43940  0.77240  Biso   1.000  C
  C1206    1.0000 0.48570  0.45100  0.79280  Biso   1.000  C
  C1207    1.0000 0.48530  0.43770  0.81720  Biso   1.000  C
  C1208    1.0000 0.47430  0.41140  0.81900  Biso   1.000  C
  C1209    1.0000 0.46530  0.39830  0.79520  Biso   1.000  C
  C1210    1.0000 0.46370  0.41350  0.77390  Biso   1.000  C
  C1211    1.0000 0.50020  0.47100  0.60290  Biso   1.000  C
  C1212    1.0000 0.50900  0.49620  0.59770  Biso   1.000  C
  C1213    1.0000 0.53150  0.50060  0.58100  Biso   1.000  C
  C1214    1.0000 0.54520  0.47980  0.56960  Biso   1.000  C
  C1215    1.0000 0.53640  0.45460  0.57480  Biso   1.000  C
  C1216    1.0000 0.51400  0.45020  0.59150  Biso   1.000  C
  C1217    1.0000 0.55330  0.38030  0.71650  Biso   1.000  C
  C1218    1.0000 0.57550  0.37090  0.73300  Biso   1.000  C
  C1219    1.0000 0.60420  0.36450  0.72400  Biso   1.000  C
  C1220    1.0000 0.60890  0.36480  0.69580  Biso   1.000  C
  C1221    1.0000 0.58530  0.37550  0.67810  Biso   1.000  C
  C1222    1.0000 0.55850  0.38250  0.69040  Biso   1.000  C
  C1223    1.0000 0.33880  0.55990  0.49710  Biso   1.000  C
  C1224    1.0000 0.34470  0.55550  0.47040  Biso   1.000  C
  C1225    1.0000 0.37280  0.56290  0.46170  Biso   1.000  C
  C1226    1.0000 0.39320  0.57130  0.47740  Biso   1.000  C
  C1227    1.0000 0.38760  0.57660  0.50370  Biso   1.000  C
  C1228    1.0000 0.35970  0.56960  0.51430  Biso   1.000  C
  Cd161    1.0000 0.35641  0.41020  0.60400  Biso   1.000  Cd
  Cd162    1.0000 0.29925  0.43212  0.65800  Biso   1.000  Cd
  Cd163    1.0000 0.41414  0.39207  0.65674  Biso   1.000  Cd
  Cd164    1.0000 0.35245  0.41161  0.71000  Biso   1.000  Cd
  Cd165    1.0000 0.37675  0.46301  0.66043  Biso   1.000  Cd
  Cd166    1.0000 0.27657  0.37532  0.60291  Biso   1.000  Cd
  Cd167    1.0000 0.41788  0.38937  0.54957  Biso   1.000  Cd
  Cd168    1.0000 0.43306  0.44062  0.71597  Biso   1.000  Cd
  Cd169    1.0000 0.47996  0.37238  0.70255  Biso   1.000  Cd
  Cd170    1.0000 0.29319  0.43222  0.55359  Biso   1.000  Cd
  Cd171    1.0000 0.37619  0.45710  0.54471  Biso   1.000  Cd
  Cd172    1.0000 0.43458  0.44271  0.59955  Biso   1.000  Cd
  Cd173    1.0000 0.48966  0.43492  0.65576  Biso   1.000  Cd
  Cd174    1.0000 0.32589  0.48504  0.60397  Biso   1.000  Cd
  S251     1.0000 0.39599  0.42894  0.63030  Biso   1.000  S
  S252     1.0000 0.33784  0.44655  0.57662  Biso   1.000  S
  S253     1.0000 0.31571  0.39419  0.63070  Biso   1.000  S
  S254     1.0000 0.33547  0.45020  0.68716  Biso   1.000  S
  S255     1.0000 0.45446  0.41057  0.68315  Biso   1.000  S
  S256     1.0000 0.36439  0.50177  0.63251  Biso   1.000  S
  S257     1.0000 0.45761  0.40897  0.57358  Biso   1.000  S
  S258     1.0000 0.30987  0.39086  0.73279  Biso   1.000  S
  S259     1.0000 0.39297  0.42094  0.74166  Biso   1.000  S
  S260     1.0000 0.42157  0.47646  0.68524  Biso   1.000  S
  S261     1.0000 0.25228  0.41467  0.67669  Biso   1.000  S
  S262     1.0000 0.28232  0.46362  0.62386  Biso   1.000  S
  Cd175    1.0000 0.51865  0.43955  0.72596  Biso   1.000  Cd
  Cd176    1.0000 0.31125  0.50789  0.53198  Biso   1.000  Cd
  S263     1.0000 0.47236  0.45763  0.74463  Biso   1.000  S
  S264     1.0000 0.27641  0.47024  0.52631  Biso   1.000  S
  S265     1.0000 0.40998  0.47937  0.57542  Biso   1.000  S
  S266     1.0000 0.25359  0.41405  0.58051  Biso   1.000  S
  S267     1.0000 0.24224  0.35729  0.63632  Biso   1.000  S
  S268     1.0000 0.52042  0.38993  0.72849  Biso   1.000  S
  S269     1.0000 0.36126  0.49521  0.51825  Biso   1.000  S
  S270     1.0000 0.47211  0.46764  0.62500  Biso   1.000  S
  S271     1.0000 0.30727  0.52229  0.57762  Biso   1.000  S
  S272     1.0000 0.39310  0.41950  0.51838  Biso   1.000  S
  S273     1.0000 0.52790  0.45679  0.68287  Biso   1.000  S
  S274     1.0000 0.31630  0.39989  0.52371  Biso   1.000  S
  S275     1.0000 0.30512  0.55085  0.50982  Biso   1.000  S
  C1229    1.0000 0.43640  0.50160  0.55620  Biso   1.000  C
  C1230    1.0000 0.45490  0.52410  0.52090  Biso   1.000  C
  C1231    1.0000 0.43370  0.50890  0.53160  Biso   1.000  C
  C1232    1.0000 0.45150  0.48330  0.54340  Biso   1.000  C
  C1233    1.0000 0.24490  0.97960  0.04100  Biso   1.000  C
  C1234    1.0000 0.21990  0.98330  0.02670  Biso   1.000  C
  C1235    1.0000 0.19310  0.98870  0.03750  Biso   1.000  C
  C1236    1.0000 0.19150  0.99270  0.06310  Biso   1.000  C
  C1237    1.0000 0.21510  0.99010  0.07800  Biso   1.000  C
  C1238    1.0000 0.24120  0.98230  0.06700  Biso   1.000  C
  C1239    1.0000 0.51840  0.99040  0.18440  Biso   1.000  C
  C1240    1.0000 0.51730  0.00420  0.20680  Biso   1.000  C
  C1241    1.0000 0.51130  0.03210  0.20690  Biso   1.000  C
  C1242    1.0000 0.50750  0.04550  0.18670  Biso   1.000  C
  C1243    1.0000 0.50920  0.03060  0.16520  Biso   1.000  C
  C1244    1.0000 0.51540  0.00420  0.16410  Biso   1.000  C
  C1245    1.0000 0.41170  0.00440  0.20080  Biso   1.000  C
  C1246    1.0000 0.38520  0.01470  0.20330  Biso   1.000  C
  C1247    1.0000 0.37610  0.03960  0.21650  Biso   1.000  C
  C1248    1.0000 0.39810  0.05020  0.22890  Biso   1.000  C
  C1249    1.0000 0.42730  0.04380  0.22540  Biso   1.000  C
  C1250    1.0000 0.43390  0.02280  0.21050  Biso   1.000  C
  C1251    1.0000 0.22890  0.90290  0.05820  Biso   1.000  C
  C1252    1.0000 0.20600  0.92020  0.05250  Biso   1.000  C
  C1253    1.0000 0.18530  0.91130  0.03520  Biso   1.000  C
  C1254    1.0000 0.18640  0.88500  0.02350  Biso   1.000  C
  C1255    1.0000 0.21000  0.86910  0.02900  Biso   1.000  C
  C1256    1.0000 0.23130  0.87830  0.04740  Biso   1.000  C
  C1257    1.0000 0.25670  0.98540  0.13740  Biso   1.000  C
  C1258    1.0000 0.25970  0.01000  0.13150  Biso   1.000  C
  C1259    1.0000 0.23670  0.02800  0.14180  Biso   1.000  C
  C1260    1.0000 0.21480  0.01680  0.15850  Biso   1.000  C
  C1261    1.0000 0.20970  0.98930  0.15890  Biso   1.000  C
  C1262    1.0000 0.23160  0.97360  0.14400  Biso   1.000  C
  C1263    1.0000 0.24030  0.93660  0.19870  Biso   1.000  C
  C1264    1.0000 0.25560  0.95530  0.20840  Biso   1.000  C
  C1265    1.0000 0.24440  0.97410  0.22370  Biso   1.000  C
  C1266    1.0000 0.21500  0.97210  0.23290  Biso   1.000  C
  C1267    1.0000 0.19640  0.95350  0.22230  Biso   1.000  C
  C1268    1.0000 0.21030  0.93450  0.20410  Biso   1.000  C
  C1269    1.0000 0.29460  0.91540  0.25300  Biso   1.000  C
  C1270    1.0000 0.30840  0.93790  0.25840  Biso   1.000  C
  C1271    1.0000 0.29660  0.95640  0.27360  Biso   1.000  C
  C1272    1.0000 0.26960  0.95130  0.28540  Biso   1.000  C
  C1273    1.0000 0.25750  0.92810  0.28070  Biso   1.000  C
  C1274    1.0000 0.26690  0.91400  0.26300  Biso   1.000  C
  C1275    1.0000 0.34410  0.02400  0.15160  Biso   1.000  C
  C1276    1.0000 0.32250  0.01580  0.16700  Biso   1.000  C
  C1277    1.0000 0.30560  0.03360  0.18350  Biso   1.000  C
  C1278    1.0000 0.31370  0.06200  0.18110  Biso   1.000  C
  C1279    1.0000 0.33940  0.06860  0.16420  Biso   1.000  C
  C1280    1.0000 0.35270  0.04940  0.14750  Biso   1.000  C
  C1281    1.0000 0.33470  0.04730  0.08180  Biso   1.000  C
  C1282    1.0000 0.32200  0.07170  0.08830  Biso   1.000  C
  C1283    1.0000 0.34400  0.08910  0.09340  Biso   1.000  C
  C1284    1.0000 0.37190  0.08620  0.08610  Biso   1.000  C
  C1285    1.0000 0.38280  0.06360  0.08200  Biso   1.000  C
  C1286    1.0000 0.36260  0.04090  0.07870  Biso   1.000  C
  C1287    1.0000 0.28664  0.88717  0.00344  Biso   1.000  C
  C1288    1.0000 0.28030  0.86084  0.00350  Biso   1.000  C
  C1289    1.0000 0.25810  0.85133  0.98858  Biso   1.000  C
  C1290    1.0000 0.24230  0.86820  0.97359  Biso   1.000  C
  C1291    1.0000 0.24870  0.89450  0.97353  Biso   1.000  C
  C1292    1.0000 0.27082  0.90400  0.98845  Biso   1.000  C
  C1293    1.0000 0.35850  0.98469  0.99000  Biso   1.000  C
  C1294    1.0000 0.34130  0.96322  0.98510  Biso   1.000  C
  C1295    1.0000 0.33720  0.95491  0.96063  Biso   1.000  C
  C1296    1.0000 0.35030  0.96810  0.94100  Biso   1.000  C
  C1297    1.0000 0.36750  0.98950  0.94580  Biso   1.000  C
  C1298    1.0000 0.37170  0.99780  0.97030  Biso   1.000  C
  C1299    1.0000 0.42500  0.93861  0.00390  Biso   1.000  C
  C1300    1.0000 0.42230  0.94885  0.97990  Biso   1.000  C
  C1301    1.0000 0.44600  0.96032  0.96840  Biso   1.000  C
  C1302    1.0000 0.47230  0.96156  0.98080  Biso   1.000  C
  C1303    1.0000 0.47500  0.95133  0.00470  Biso   1.000  C
  C1304    1.0000 0.45130  0.93985  0.01630  Biso   1.000  C
  C1305    1.0000 0.20610  0.85180  0.12170  Biso   1.000  C
  C1306    1.0000 0.20860  0.87310  0.10590  Biso   1.000  C
  C1307    1.0000 0.18580  0.87980  0.09030  Biso   1.000  C
  C1308    1.0000 0.16070  0.86510  0.09030  Biso   1.000  C
  C1309    1.0000 0.15820  0.84380  0.10610  Biso   1.000  C
  C1310    1.0000 0.18100  0.83710  0.12170  Biso   1.000  C
  C1311    1.0000 0.38370  0.94830  0.26040  Biso   1.000  C
  C1312    1.0000 0.37440  0.97070  0.24830  Biso   1.000  C
  C1313    1.0000 0.36500  0.99280  0.26540  Biso   1.000  C
  C1314    1.0000 0.36710  0.99150  0.29080  Biso   1.000  C
  C1315    1.0000 0.37610  0.96900  0.30050  Biso   1.000  C
  C1316    1.0000 0.38700  0.94740  0.28540  Biso   1.000  C
  C1317    1.0000 0.47350  0.93940  0.27240  Biso   1.000  C
  C1318    1.0000 0.48570  0.95100  0.29280  Biso   1.000  C
  C1319    1.0000 0.48530  0.93770  0.31720  Biso   1.000  C
  C1320    1.0000 0.47430  0.91140  0.31900  Biso   1.000  C
  C1321    1.0000 0.46530  0.89830  0.29520  Biso   1.000  C
  C1322    1.0000 0.46370  0.91350  0.27390  Biso   1.000  C
  C1323    1.0000 0.50020  0.97100  0.10290  Biso   1.000  C
  C1324    1.0000 0.50900  0.99620  0.09770  Biso   1.000  C
  C1325    1.0000 0.53150  0.00060  0.08100  Biso   1.000  C
  C1326    1.0000 0.54520  0.97980  0.06960  Biso   1.000  C
  C1327    1.0000 0.53640  0.95460  0.07480  Biso   1.000  C
  C1328    1.0000 0.51400  0.95020  0.09150  Biso   1.000  C
  C1329    1.0000 0.55330  0.88030  0.21650  Biso   1.000  C
  C1330    1.0000 0.57550  0.87090  0.23300  Biso   1.000  C
  C1331    1.0000 0.60420  0.86450  0.22400  Biso   1.000  C
  C1332    1.0000 0.60890  0.86480  0.19580  Biso   1.000  C
  C1333    1.0000 0.58530  0.87550  0.17810  Biso   1.000  C
  C1334    1.0000 0.55850  0.88250  0.19040  Biso   1.000  C
  C1335    1.0000 0.33880  0.05990  0.99710  Biso   1.000  C
  C1336    1.0000 0.34470  0.05550  0.97040  Biso   1.000  C
  C1337    1.0000 0.37280  0.06290  0.96170  Biso   1.000  C
  C1338    1.0000 0.39320  0.07130  0.97740  Biso   1.000  C
  C1339    1.0000 0.38760  0.07660  0.00370  Biso   1.000  C
  C1340    1.0000 0.35970  0.06960  0.01430  Biso   1.000  C
  Cd177    1.0000 0.35641  0.91020  0.10400  Biso   1.000  Cd
  Cd178    1.0000 0.29925  0.93212  0.15800  Biso   1.000  Cd
  Cd179    1.0000 0.41414  0.89207  0.15674  Biso   1.000  Cd
  Cd180    1.0000 0.35245  0.91161  0.21000  Biso   1.000  Cd
  Cd181    1.0000 0.37675  0.96301  0.16043  Biso   1.000  Cd
  Cd182    1.0000 0.27657  0.87532  0.10291  Biso   1.000  Cd
  Cd183    1.0000 0.41788  0.88937  0.04957  Biso   1.000  Cd
  Cd184    1.0000 0.43306  0.94062  0.21597  Biso   1.000  Cd
  Cd185    1.0000 0.47996  0.87238  0.20255  Biso   1.000  Cd
  Cd186    1.0000 0.29319  0.93222  0.05359  Biso   1.000  Cd
  Cd187    1.0000 0.37619  0.95710  0.04471  Biso   1.000  Cd
  Cd188    1.0000 0.43458  0.94271  0.09955  Biso   1.000  Cd
  Cd189    1.0000 0.48966  0.93492  0.15576  Biso   1.000  Cd
  Cd190    1.0000 0.32589  0.98504  0.10397  Biso   1.000  Cd
  S276     1.0000 0.39599  0.92894  0.13030  Biso   1.000  S
  S277     1.0000 0.33784  0.94655  0.07662  Biso   1.000  S
  S278     1.0000 0.31571  0.89419  0.13070  Biso   1.000  S
  S279     1.0000 0.33547  0.95020  0.18716  Biso   1.000  S
  S280     1.0000 0.45446  0.91057  0.18315  Biso   1.000  S
  S281     1.0000 0.36439  0.00177  0.13251  Biso   1.000  S
  S282     1.0000 0.45761  0.90897  0.07358  Biso   1.000  S
  S283     1.0000 0.30987  0.89086  0.23279  Biso   1.000  S
  S284     1.0000 0.39297  0.92094  0.24166  Biso   1.000  S
  S285     1.0000 0.42157  0.97646  0.18524  Biso   1.000  S
  S286     1.0000 0.25228  0.91467  0.17669  Biso   1.000  S
  S287     1.0000 0.28232  0.96362  0.12386  Biso   1.000  S
  Cd191    1.0000 0.51865  0.93955  0.22596  Biso   1.000  Cd
  Cd192    1.0000 0.31125  0.00789  0.03198  Biso   1.000  Cd
  S288     1.0000 0.47236  0.95763  0.24463  Biso   1.000  S
  S289     1.0000 0.27641  0.97024  0.02631  Biso   1.000  S
  S290     1.0000 0.40998  0.97937  0.07542  Biso   1.000  S
  S291     1.0000 0.25359  0.91405  0.08051  Biso   1.000  S
  S292     1.0000 0.24224  0.85729  0.13632  Biso   1.000  S
  S293     1.0000 0.52042  0.88993  0.22849  Biso   1.000  S
  S294     1.0000 0.36126  0.99521  0.01825  Biso   1.000  S
  S295     1.0000 0.47211  0.96764  0.12500  Biso   1.000  S
  S296     1.0000 0.30727  0.02229  0.07762  Biso   1.000  S
  S297     1.0000 0.39310  0.91950  0.01838  Biso   1.000  S
  S298     1.0000 0.52790  0.95679  0.18287  Biso   1.000  S
  S299     1.0000 0.31630  0.89989  0.02371  Biso   1.000  S
  S300     1.0000 0.30512  0.05085  0.00982  Biso   1.000  S
  C1341    1.0000 0.43640  0.00160  0.05620  Biso   1.000  C
  C1342    1.0000 0.45490  0.02410  0.02090  Biso   1.000  C
  C1343    1.0000 0.43370  0.00890  0.03160  Biso   1.000  C
  C1344    1.0000 0.45150  0.98330  0.04340  Biso   1.000  C
  C1345    1.0000 0.50510  0.77040  0.04100  Biso   1.000  C
  C1346    1.0000 0.53010  0.76670  0.02670  Biso   1.000  C
  C1347    1.0000 0.55690  0.76130  0.03750  Biso   1.000  C
  C1348    1.0000 0.55850  0.75730  0.06310  Biso   1.000  C
  C1349    1.0000 0.53490  0.75990  0.07800  Biso   1.000  C
  C1350    1.0000 0.50880  0.76770  0.06700  Biso   1.000  C
  C1351    1.0000 0.23160  0.75960  0.18440  Biso   1.000  C
  C1352    1.0000 0.23270  0.74580  0.20680  Biso   1.000  C
  C1353    1.0000 0.23870  0.71790  0.20690  Biso   1.000  C
  C1354    1.0000 0.24250  0.70450  0.18670  Biso   1.000  C
  C1355    1.0000 0.24080  0.71940  0.16520  Biso   1.000  C
  C1356    1.0000 0.23460  0.74580  0.16410  Biso   1.000  C
  C1357    1.0000 0.33830  0.74560  0.20080  Biso   1.000  C
  C1358    1.0000 0.36480  0.73530  0.20330  Biso   1.000  C
  C1359    1.0000 0.37390  0.71040  0.21650  Biso   1.000  C
  C1360    1.0000 0.35190  0.69980  0.22890  Biso   1.000  C
  C1361    1.0000 0.32270  0.70620  0.22540  Biso   1.000  C
  C1362    1.0000 0.31610  0.72720  0.21050  Biso   1.000  C
  C1363    1.0000 0.52110  0.84710  0.05820  Biso   1.000  C
  C1364    1.0000 0.54400  0.82980  0.05250  Biso   1.000  C
  C1365    1.0000 0.56470  0.83870  0.03520  Biso   1.000  C
  C1366    1.0000 0.56360  0.86500  0.02350  Biso   1.000  C
  C1367    1.0000 0.54000  0.88090  0.02900  Biso   1.000  C
  C1368    1.0000 0.51870  0.87170  0.04740  Biso   1.000  C
  C1369    1.0000 0.49330  0.76460  0.13740  Biso   1.000  C
  C1370    1.0000 0.49030  0.74000  0.13150  Biso   1.000  C
  C1371    1.0000 0.51330  0.72200  0.14180  Biso   1.000  C
  C1372    1.0000 0.53520  0.73320  0.15850  Biso   1.000  C
  C1373    1.0000 0.54030  0.76070  0.15890  Biso   1.000  C
  C1374    1.0000 0.51840  0.77640  0.14400  Biso   1.000  C
  C1375    1.0000 0.50970  0.81340  0.19870  Biso   1.000  C
  C1376    1.0000 0.49440  0.79470  0.20840  Biso   1.000  C
  C1377    1.0000 0.50560  0.77590  0.22370  Biso   1.000  C
  C1378    1.0000 0.53500  0.77790  0.23290  Biso   1.000  C
  C1379    1.0000 0.55360  0.79650  0.22230  Biso   1.000  C
  C1380    1.0000 0.53970  0.81550  0.20410  Biso   1.000  C
  C1381    1.0000 0.45540  0.83460  0.25300  Biso   1.000  C
  C1382    1.0000 0.44160  0.81210  0.25840  Biso   1.000  C
  C1383    1.0000 0.45340  0.79360  0.27360  Biso   1.000  C
  C1384    1.0000 0.48040  0.79870  0.28540  Biso   1.000  C
  C1385    1.0000 0.49250  0.82190  0.28070  Biso   1.000  C
  C1386    1.0000 0.48310  0.83600  0.26300  Biso   1.000  C
  C1387    1.0000 0.40590  0.72600  0.15160  Biso   1.000  C
  C1388    1.0000 0.42750  0.73420  0.16700  Biso   1.000  C
  C1389    1.0000 0.44440  0.71640  0.18350  Biso   1.000  C
  C1390    1.0000 0.43630  0.68800  0.18110  Biso   1.000  C
  C1391    1.0000 0.41060  0.68140  0.16420  Biso   1.000  C
  C1392    1.0000 0.39730  0.70060  0.14750  Biso   1.000  C
  C1393    1.0000 0.41530  0.70270  0.08180  Biso   1.000  C
  C1394    1.0000 0.42800  0.67830  0.08830  Biso   1.000  C
  C1395    1.0000 0.40600  0.66090  0.09340  Biso   1.000  C
  C1396    1.0000 0.37810  0.66380  0.08610  Biso   1.000  C
  C1397    1.0000 0.36720  0.68640  0.08200  Biso   1.000  C
  C1398    1.0000 0.38740  0.70910  0.07870  Biso   1.000  C
  C1399    1.0000 0.46336  0.86283  0.00344  Biso   1.000  C
  C1400    1.0000 0.46970  0.88916  0.00350  Biso   1.000  C
  C1401    1.0000 0.49190  0.89867  0.98858  Biso   1.000  C
  C1402    1.0000 0.50770  0.88180  0.97359  Biso   1.000  C
  C1403    1.0000 0.50130  0.85550  0.97353  Biso   1.000  C
  C1404    1.0000 0.47918  0.84600  0.98845  Biso   1.000  C
  C1405    1.0000 0.39150  0.76531  0.99000  Biso   1.000  C
  C1406    1.0000 0.40870  0.78678  0.98510  Biso   1.000  C
  C1407    1.0000 0.41280  0.79509  0.96063  Biso   1.000  C
  C1408    1.0000 0.39970  0.78190  0.94100  Biso   1.000  C
  C1409    1.0000 0.38250  0.76050  0.94580  Biso   1.000  C
  C1410    1.0000 0.37830  0.75220  0.97030  Biso   1.000  C
  C1411    1.0000 0.32500  0.81139  0.00390  Biso   1.000  C
  C1412    1.0000 0.32770  0.80115  0.97990  Biso   1.000  C
  C1413    1.0000 0.30400  0.78968  0.96840  Biso   1.000  C
  C1414    1.0000 0.27770  0.78844  0.98080  Biso   1.000  C
  C1415    1.0000 0.27500  0.79867  0.00470  Biso   1.000  C
  C1416    1.0000 0.29870  0.81015  0.01630  Biso   1.000  C
  C1417    1.0000 0.54390  0.89820  0.12170  Biso   1.000  C
  C1418    1.0000 0.54140  0.87690  0.10590  Biso   1.000  C
  C1419    1.0000 0.56420  0.87020  0.09030  Biso   1.000  C
  C1420    1.0000 0.58930  0.88490  0.09030  Biso   1.000  C
  C1421    1.0000 0.59180  0.90620  0.10610  Biso   1.000  C
  C1422    1.0000 0.56900  0.91290  0.12170  Biso   1.000  C
  C1423    1.0000 0.36630  0.80170  0.26040  Biso   1.000  C
  C1424    1.0000 0.37560  0.77930  0.24830  Biso   1.000  C
  C1425    1.0000 0.38500  0.75720  0.26540  Biso   1.000  C
  C1426    1.0000 0.38290  0.75850  0.29080  Biso   1.000  C
  C1427    1.0000 0.37390  0.78100  0.30050  Biso   1.000  C
  C1428    1.0000 0.36300  0.80260  0.28540  Biso   1.000  C
  C1429    1.0000 0.27650  0.81060  0.27240  Biso   1.000  C
  C1430    1.0000 0.26430  0.79900  0.29280  Biso   1.000  C
  C1431    1.0000 0.26470  0.81230  0.31720  Biso   1.000  C
  C1432    1.0000 0.27570  0.83860  0.31900  Biso   1.000  C
  C1433    1.0000 0.28470  0.85170  0.29520  Biso   1.000  C
  C1434    1.0000 0.28630  0.83650  0.27390  Biso   1.000  C
  C1435    1.0000 0.24980  0.77900  0.10290  Biso   1.000  C
  C1436    1.0000 0.24100  0.75380  0.09770  Biso   1.000  C
  C1437    1.0000 0.21850  0.74940  0.08100  Biso   1.000  C
  C1438    1.0000 0.20480  0.77020  0.06960  Biso   1.000  C
  C1439    1.0000 0.21360  0.79540  0.07480  Biso   1.000  C
  C1440    1.0000 0.23600  0.79980  0.09150  Biso   1.000  C
  C1441    1.0000 0.19670  0.86970  0.21650  Biso   1.000  C
  C1442    1.0000 0.17450  0.87910  0.23300  Biso   1.000  C
  C1443    1.0000 0.14580  0.88550  0.22400  Biso   1.000  C
  C1444    1.0000 0.14110  0.88520  0.19580  Biso   1.000  C
  C1445    1.0000 0.16470  0.87450  0.17810  Biso   1.000  C
  C1446    1.0000 0.19150  0.86750  0.19040  Biso   1.000  C
  C1447    1.0000 0.41120  0.69010  0.99710  Biso   1.000  C
  C1448    1.0000 0.40530  0.69450  0.97040  Biso   1.000  C
  C1449    1.0000 0.37720  0.68710  0.96170  Biso   1.000  C
  C1450    1.0000 0.35680  0.67870  0.97740  Biso   1.000  C
  C1451    1.0000 0.36240  0.67340  0.00370  Biso   1.000  C
  C1452    1.0000 0.39030  0.68040  0.01430  Biso   1.000  C
  Cd193    1.0000 0.39359  0.83980  0.10400  Biso   1.000  Cd
  Cd194    1.0000 0.45075  0.81788  0.15800  Biso   1.000  Cd
  Cd195    1.0000 0.33586  0.85793  0.15674  Biso   1.000  Cd
  Cd196    1.0000 0.39755  0.83839  0.21000  Biso   1.000  Cd
  Cd197    1.0000 0.37325  0.78699  0.16043  Biso   1.000  Cd
  Cd198    1.0000 0.47343  0.87468  0.10291  Biso   1.000  Cd
  Cd199    1.0000 0.33212  0.86063  0.04957  Biso   1.000  Cd
  Cd200    1.0000 0.31694  0.80938  0.21597  Biso   1.000  Cd
  Cd201    1.0000 0.27004  0.87762  0.20255  Biso   1.000  Cd
  Cd202    1.0000 0.45681  0.81778  0.05359  Biso   1.000  Cd
  Cd203    1.0000 0.37381  0.79290  0.04471  Biso   1.000  Cd
  Cd204    1.0000 0.31542  0.80729  0.09955  Biso   1.000  Cd
  Cd205    1.0000 0.26034  0.81508  0.15576  Biso   1.000  Cd
  Cd206    1.0000 0.42411  0.76496  0.10397  Biso   1.000  Cd
  S301     1.0000 0.35401  0.82106  0.13030  Biso   1.000  S
  S302     1.0000 0.41216  0.80345  0.07662  Biso   1.000  S
  S303     1.0000 0.43429  0.85581  0.13070  Biso   1.000  S
  S304     1.0000 0.41453  0.79980  0.18716  Biso   1.000  S
  S305     1.0000 0.29554  0.83943  0.18315  Biso   1.000  S
  S306     1.0000 0.38561  0.74823  0.13251  Biso   1.000  S
  S307     1.0000 0.29239  0.84103  0.07358  Biso   1.000  S
  S308     1.0000 0.44013  0.85914  0.23279  Biso   1.000  S
  S309     1.0000 0.35703  0.82906  0.24166  Biso   1.000  S
  S310     1.0000 0.32843  0.77354  0.18524  Biso   1.000  S
  S311     1.0000 0.49772  0.83533  0.17669  Biso   1.000  S
  S312     1.0000 0.46768  0.78638  0.12386  Biso   1.000  S
  Cd207    1.0000 0.23135  0.81045  0.22596  Biso   1.000  Cd
  Cd208    1.0000 0.43875  0.74211  0.03198  Biso   1.000  Cd
  S313     1.0000 0.27764  0.79237  0.24463  Biso   1.000  S
  S314     1.0000 0.47359  0.77976  0.02631  Biso   1.000  S
  S315     1.0000 0.34002  0.77063  0.07542  Biso   1.000  S
  S316     1.0000 0.49641  0.83595  0.08051  Biso   1.000  S
  S317     1.0000 0.50776  0.89271  0.13632  Biso   1.000  S
  S318     1.0000 0.22958  0.86007  0.22849  Biso   1.000  S
  S319     1.0000 0.38874  0.75479  0.01825  Biso   1.000  S
  S320     1.0000 0.27789  0.78236  0.12500  Biso   1.000  S
  S321     1.0000 0.44273  0.72771  0.07762  Biso   1.000  S
  S322     1.0000 0.35690  0.83050  0.01838  Biso   1.000  S
  S323     1.0000 0.22210  0.79321  0.18287  Biso   1.000  S
  S324     1.0000 0.43370  0.85011  0.02371  Biso   1.000  S
  S325     1.0000 0.44488  0.69915  0.00982  Biso   1.000  S
  C1453    1.0000 0.31360  0.74840  0.05620  Biso   1.000  C
  C1454    1.0000 0.29510  0.72590  0.02090  Biso   1.000  C
  C1455    1.0000 0.31630  0.74110  0.03160  Biso   1.000  C
  C1456    1.0000 0.29850  0.76670  0.04340  Biso   1.000  C
  C1457    1.0000 0.50510  0.27040  0.54100  Biso   1.000  C
  C1458    1.0000 0.53010  0.26670  0.52670  Biso   1.000  C
  C1459    1.0000 0.55690  0.26130  0.53750  Biso   1.000  C
  C1460    1.0000 0.55850  0.25730  0.56310  Biso   1.000  C
  C1461    1.0000 0.53490  0.25990  0.57800  Biso   1.000  C
  C1462    1.0000 0.50880  0.26770  0.56700  Biso   1.000  C
  C1463    1.0000 0.23160  0.25960  0.68440  Biso   1.000  C
  C1464    1.0000 0.23270  0.24580  0.70680  Biso   1.000  C
  C1465    1.0000 0.23870  0.21790  0.70690  Biso   1.000  C
  C1466    1.0000 0.24250  0.20450  0.68670  Biso   1.000  C
  C1467    1.0000 0.24080  0.21940  0.66520  Biso   1.000  C
  C1468    1.0000 0.23460  0.24580  0.66410  Biso   1.000  C
  C1469    1.0000 0.33830  0.24560  0.70080  Biso   1.000  C
  C1470    1.0000 0.36480  0.23530  0.70330  Biso   1.000  C
  C1471    1.0000 0.37390  0.21040  0.71650  Biso   1.000  C
  C1472    1.0000 0.35190  0.19980  0.72890  Biso   1.000  C
  C1473    1.0000 0.32270  0.20620  0.72540  Biso   1.000  C
  C1474    1.0000 0.31610  0.22720  0.71050  Biso   1.000  C
  C1475    1.0000 0.52110  0.34710  0.55820  Biso   1.000  C
  C1476    1.0000 0.54400  0.32980  0.55250  Biso   1.000  C
  C1477    1.0000 0.56470  0.33870  0.53520  Biso   1.000  C
  C1478    1.0000 0.56360  0.36500  0.52350  Biso   1.000  C
  C1479    1.0000 0.54000  0.38090  0.52900  Biso   1.000  C
  C1480    1.0000 0.51870  0.37170  0.54740  Biso   1.000  C
  C1481    1.0000 0.49330  0.26460  0.63740  Biso   1.000  C
  C1482    1.0000 0.49030  0.24000  0.63150  Biso   1.000  C
  C1483    1.0000 0.51330  0.22200  0.64180  Biso   1.000  C
  C1484    1.0000 0.53520  0.23320  0.65850  Biso   1.000  C
  C1485    1.0000 0.54030  0.26070  0.65890  Biso   1.000  C
  C1486    1.0000 0.51840  0.27640  0.64400  Biso   1.000  C
  C1487    1.0000 0.50970  0.31340  0.69870  Biso   1.000  C
  C1488    1.0000 0.49440  0.29470  0.70840  Biso   1.000  C
  C1489    1.0000 0.50560  0.27590  0.72370  Biso   1.000  C
  C1490    1.0000 0.53500  0.27790  0.73290  Biso   1.000  C
  C1491    1.0000 0.55360  0.29650  0.72230  Biso   1.000  C
  C1492    1.0000 0.53970  0.31550  0.70410  Biso   1.000  C
  C1493    1.0000 0.45540  0.33460  0.75300  Biso   1.000  C
  C1494    1.0000 0.44160  0.31210  0.75840  Biso   1.000  C
  C1495    1.0000 0.45340  0.29360  0.77360  Biso   1.000  C
  C1496    1.0000 0.48040  0.29870  0.78540  Biso   1.000  C
  C1497    1.0000 0.49250  0.32190  0.78070  Biso   1.000  C
  C1498    1.0000 0.48310  0.33600  0.76300  Biso   1.000  C
  C1499    1.0000 0.40590  0.22600  0.65160  Biso   1.000  C
  C1500    1.0000 0.42750  0.23420  0.66700  Biso   1.000  C
  C1501    1.0000 0.44440  0.21640  0.68350  Biso   1.000  C
  C1502    1.0000 0.43630  0.18800  0.68110  Biso   1.000  C
  C1503    1.0000 0.41060  0.18140  0.66420  Biso   1.000  C
  C1504    1.0000 0.39730  0.20060  0.64750  Biso   1.000  C
  C1505    1.0000 0.41530  0.20270  0.58180  Biso   1.000  C
  C1506    1.0000 0.42800  0.17830  0.58830  Biso   1.000  C
  C1507    1.0000 0.40600  0.16090  0.59340  Biso   1.000  C
  C1508    1.0000 0.37810  0.16380  0.58610  Biso   1.000  C
  C1509    1.0000 0.36720  0.18640  0.58200  Biso   1.000  C
  C1510    1.0000 0.38740  0.20910  0.57870  Biso   1.000  C
  C1511    1.0000 0.46336  0.36283  0.50344  Biso   1.000  C
  C1512    1.0000 0.46970  0.38916  0.50350  Biso   1.000  C
  C1513    1.0000 0.49190  0.39867  0.48858  Biso   1.000  C
  C1514    1.0000 0.50770  0.38180  0.47359  Biso   1.000  C
  C1515    1.0000 0.50130  0.35550  0.47353  Biso   1.000  C
  C1516    1.0000 0.47918  0.34600  0.48845  Biso   1.000  C
  C1517    1.0000 0.39150  0.26531  0.49000  Biso   1.000  C
  C1518    1.0000 0.40870  0.28678  0.48510  Biso   1.000  C
  C1519    1.0000 0.41280  0.29509  0.46063  Biso   1.000  C
  C1520    1.0000 0.39970  0.28190  0.44100  Biso   1.000  C
  C1521    1.0000 0.38250  0.26050  0.44580  Biso   1.000  C
  C1522    1.0000 0.37830  0.25220  0.47030  Biso   1.000  C
  C1523    1.0000 0.32500  0.31139  0.50390  Biso   1.000  C
  C1524    1.0000 0.32770  0.30115  0.47990  Biso   1.000  C
  C1525    1.0000 0.30400  0.28968  0.46840  Biso   1.000  C
  C1526    1.0000 0.27770  0.28844  0.48080  Biso   1.000  C
  C1527    1.0000 0.27500  0.29867  0.50470  Biso   1.000  C
  C1528    1.0000 0.29870  0.31015  0.51630  Biso   1.000  C
  C1529    1.0000 0.54390  0.39820  0.62170  Biso   1.000  C
  C1530    1.0000 0.54140  0.37690  0.60590  Biso   1.000  C
  C1531    1.0000 0.56420  0.37020  0.59030  Biso   1.000  C
  C1532    1.0000 0.58930  0.38490  0.59030  Biso   1.000  C
  C1533    1.0000 0.59180  0.40620  0.60610  Biso   1.000  C
  C1534    1.0000 0.56900  0.41290  0.62170  Biso   1.000  C
  C1535    1.0000 0.36630  0.30170  0.76040  Biso   1.000  C
  C1536    1.0000 0.37560  0.27930  0.74830  Biso   1.000  C
  C1537    1.0000 0.38500  0.25720  0.76540  Biso   1.000  C
  C1538    1.0000 0.38290  0.25850  0.79080  Biso   1.000  C
  C1539    1.0000 0.37390  0.28100  0.80050  Biso   1.000  C
  C1540    1.0000 0.36300  0.30260  0.78540  Biso   1.000  C
  C1541    1.0000 0.27650  0.31060  0.77240  Biso   1.000  C
  C1542    1.0000 0.26430  0.29900  0.79280  Biso   1.000  C
  C1543    1.0000 0.26470  0.31230  0.81720  Biso   1.000  C
  C1544    1.0000 0.27570  0.33860  0.81900  Biso   1.000  C
  C1545    1.0000 0.28470  0.35170  0.79520  Biso   1.000  C
  C1546    1.0000 0.28630  0.33650  0.77390  Biso   1.000  C
  C1547    1.0000 0.24980  0.27900  0.60290  Biso   1.000  C
  C1548    1.0000 0.24100  0.25380  0.59770  Biso   1.000  C
  C1549    1.0000 0.21850  0.24940  0.58100  Biso   1.000  C
  C1550    1.0000 0.20480  0.27020  0.56960  Biso   1.000  C
  C1551    1.0000 0.21360  0.29540  0.57480  Biso   1.000  C
  C1552    1.0000 0.23600  0.29980  0.59150  Biso   1.000  C
  C1553    1.0000 0.19670  0.36970  0.71650  Biso   1.000  C
  C1554    1.0000 0.17450  0.37910  0.73300  Biso   1.000  C
  C1555    1.0000 0.14580  0.38550  0.72400  Biso   1.000  C
  C1556    1.0000 0.14110  0.38520  0.69580  Biso   1.000  C
  C1557    1.0000 0.16470  0.37450  0.67810  Biso   1.000  C
  C1558    1.0000 0.19150  0.36750  0.69040  Biso   1.000  C
  C1559    1.0000 0.41120  0.19010  0.49710  Biso   1.000  C
  C1560    1.0000 0.40530  0.19450  0.47040  Biso   1.000  C
  C1561    1.0000 0.37720  0.18710  0.46170  Biso   1.000  C
  C1562    1.0000 0.35680  0.17870  0.47740  Biso   1.000  C
  C1563    1.0000 0.36240  0.17340  0.50370  Biso   1.000  C
  C1564    1.0000 0.39030  0.18040  0.51430  Biso   1.000  C
  Cd209    1.0000 0.39359  0.33980  0.60400  Biso   1.000  Cd
  Cd210    1.0000 0.45075  0.31788  0.65800  Biso   1.000  Cd
  Cd211    1.0000 0.33586  0.35793  0.65674  Biso   1.000  Cd
  Cd212    1.0000 0.39755  0.33839  0.71000  Biso   1.000  Cd
  Cd213    1.0000 0.37325  0.28699  0.66043  Biso   1.000  Cd
  Cd214    1.0000 0.47343  0.37468  0.60291  Biso   1.000  Cd
  Cd215    1.0000 0.33212  0.36063  0.54957  Biso   1.000  Cd
  Cd216    1.0000 0.31694  0.30938  0.71597  Biso   1.000  Cd
  Cd217    1.0000 0.27004  0.37762  0.70255  Biso   1.000  Cd
  Cd218    1.0000 0.45681  0.31778  0.55359  Biso   1.000  Cd
  Cd219    1.0000 0.37381  0.29290  0.54471  Biso   1.000  Cd
  Cd220    1.0000 0.31542  0.30729  0.59955  Biso   1.000  Cd
  Cd221    1.0000 0.26034  0.31508  0.65576  Biso   1.000  Cd
  Cd222    1.0000 0.42411  0.26496  0.60397  Biso   1.000  Cd
  S326     1.0000 0.35401  0.32106  0.63030  Biso   1.000  S
  S327     1.0000 0.41216  0.30345  0.57662  Biso   1.000  S
  S328     1.0000 0.43429  0.35581  0.63070  Biso   1.000  S
  S329     1.0000 0.41453  0.29980  0.68716  Biso   1.000  S
  S330     1.0000 0.29554  0.33943  0.68315  Biso   1.000  S
  S331     1.0000 0.38561  0.24823  0.63251  Biso   1.000  S
  S332     1.0000 0.29239  0.34103  0.57358  Biso   1.000  S
  S333     1.0000 0.44013  0.35914  0.73279  Biso   1.000  S
  S334     1.0000 0.35703  0.32906  0.74166  Biso   1.000  S
  S335     1.0000 0.32843  0.27354  0.68524  Biso   1.000  S
  S336     1.0000 0.49772  0.33533  0.67669  Biso   1.000  S
  S337     1.0000 0.46768  0.28638  0.62386  Biso   1.000  S
  Cd223    1.0000 0.23135  0.31045  0.72596  Biso   1.000  Cd
  Cd224    1.0000 0.43875  0.24211  0.53198  Biso   1.000  Cd
  S338     1.0000 0.27764  0.29237  0.74463  Biso   1.000  S
  S339     1.0000 0.47359  0.27976  0.52631  Biso   1.000  S
  S340     1.0000 0.34002  0.27063  0.57542  Biso   1.000  S
  S341     1.0000 0.49641  0.33595  0.58051  Biso   1.000  S
  S342     1.0000 0.50776  0.39271  0.63632  Biso   1.000  S
  S343     1.0000 0.22958  0.36007  0.72849  Biso   1.000  S
  S344     1.0000 0.38874  0.25479  0.51825  Biso   1.000  S
  S345     1.0000 0.27789  0.28236  0.62500  Biso   1.000  S
  S346     1.0000 0.44273  0.22771  0.57762  Biso   1.000  S
  S347     1.0000 0.35690  0.33050  0.51838  Biso   1.000  S
  S348     1.0000 0.22210  0.29321  0.68287  Biso   1.000  S
  S349     1.0000 0.43370  0.35011  0.52371  Biso   1.000  S
  S350     1.0000 0.44488  0.19915  0.50982  Biso   1.000  S
  C1565    1.0000 0.31360  0.24840  0.55620  Biso   1.000  C
  C1566    1.0000 0.29510  0.22590  0.52090  Biso   1.000  C
  C1567    1.0000 0.31630  0.24110  0.53160  Biso   1.000  C
  C1568    1.0000 0.29850  0.26670  0.54340  Biso   1.000  C
  C1569    1.0000 0.00510  0.77040  0.54100  Biso   1.000  C
  C1570    1.0000 0.03010  0.76670  0.52670  Biso   1.000  C
  C1571    1.0000 0.05690  0.76130  0.53750  Biso   1.000  C
  C1572    1.0000 0.05850  0.75730  0.56310  Biso   1.000  C
  C1573    1.0000 0.03490  0.75990  0.57800  Biso   1.000  C
  C1574    1.0000 0.00880  0.76770  0.56700  Biso   1.000  C
  C1575    1.0000 0.73160  0.75960  0.68440  Biso   1.000  C
  C1576    1.0000 0.73270  0.74580  0.70680  Biso   1.000  C
  C1577    1.0000 0.73870  0.71790  0.70690  Biso   1.000  C
  C1578    1.0000 0.74250  0.70450  0.68670  Biso   1.000  C
  C1579    1.0000 0.74080  0.71940  0.66520  Biso   1.000  C
  C1580    1.0000 0.73460  0.74580  0.66410  Biso   1.000  C
  C1581    1.0000 0.83830  0.74560  0.70080  Biso   1.000  C
  C1582    1.0000 0.86480  0.73530  0.70330  Biso   1.000  C
  C1583    1.0000 0.87390  0.71040  0.71650  Biso   1.000  C
  C1584    1.0000 0.85190  0.69980  0.72890  Biso   1.000  C
  C1585    1.0000 0.82270  0.70620  0.72540  Biso   1.000  C
  C1586    1.0000 0.81610  0.72720  0.71050  Biso   1.000  C
  C1587    1.0000 0.02110  0.84710  0.55820  Biso   1.000  C
  C1588    1.0000 0.04400  0.82980  0.55250  Biso   1.000  C
  C1589    1.0000 0.06470  0.83870  0.53520  Biso   1.000  C
  C1590    1.0000 0.06360  0.86500  0.52350  Biso   1.000  C
  C1591    1.0000 0.04000  0.88090  0.52900  Biso   1.000  C
  C1592    1.0000 0.01870  0.87170  0.54740  Biso   1.000  C
  C1593    1.0000 0.99330  0.76460  0.63740  Biso   1.000  C
  C1594    1.0000 0.99030  0.74000  0.63150  Biso   1.000  C
  C1595    1.0000 0.01330  0.72200  0.64180  Biso   1.000  C
  C1596    1.0000 0.03520  0.73320  0.65850  Biso   1.000  C
  C1597    1.0000 0.04030  0.76070  0.65890  Biso   1.000  C
  C1598    1.0000 0.01840  0.77640  0.64400  Biso   1.000  C
  C1599    1.0000 0.00970  0.81340  0.69870  Biso   1.000  C
  C1600    1.0000 0.99440  0.79470  0.70840  Biso   1.000  C
  C1601    1.0000 0.00560  0.77590  0.72370  Biso   1.000  C
  C1602    1.0000 0.03500  0.77790  0.73290  Biso   1.000  C
  C1603    1.0000 0.05360  0.79650  0.72230  Biso   1.000  C
  C1604    1.0000 0.03970  0.81550  0.70410  Biso   1.000  C
  C1605    1.0000 0.95540  0.83460  0.75300  Biso   1.000  C
  C1606    1.0000 0.94160  0.81210  0.75840  Biso   1.000  C
  C1607    1.0000 0.95340  0.79360  0.77360  Biso   1.000  C
  C1608    1.0000 0.98040  0.79870  0.78540  Biso   1.000  C
  C1609    1.0000 0.99250  0.82190  0.78070  Biso   1.000  C
  C1610    1.0000 0.98310  0.83600  0.76300  Biso   1.000  C
  C1611    1.0000 0.90590  0.72600  0.65160  Biso   1.000  C
  C1612    1.0000 0.92750  0.73420  0.66700  Biso   1.000  C
  C1613    1.0000 0.94440  0.71640  0.68350  Biso   1.000  C
  C1614    1.0000 0.93630  0.68800  0.68110  Biso   1.000  C
  C1615    1.0000 0.91060  0.68140  0.66420  Biso   1.000  C
  C1616    1.0000 0.89730  0.70060  0.64750  Biso   1.000  C
  C1617    1.0000 0.91530  0.70270  0.58180  Biso   1.000  C
  C1618    1.0000 0.92800  0.67830  0.58830  Biso   1.000  C
  C1619    1.0000 0.90600  0.66090  0.59340  Biso   1.000  C
  C1620    1.0000 0.87810  0.66380  0.58610  Biso   1.000  C
  C1621    1.0000 0.86720  0.68640  0.58200  Biso   1.000  C
  C1622    1.0000 0.88740  0.70910  0.57870  Biso   1.000  C
  C1623    1.0000 0.96336  0.86283  0.50344  Biso   1.000  C
  C1624    1.0000 0.96970  0.88916  0.50350  Biso   1.000  C
  C1625    1.0000 0.99190  0.89867  0.48858  Biso   1.000  C
  C1626    1.0000 0.00770  0.88180  0.47359  Biso   1.000  C
  C1627    1.0000 0.00130  0.85550  0.47353  Biso   1.000  C
  C1628    1.0000 0.97918  0.84600  0.48845  Biso   1.000  C
  C1629    1.0000 0.89150  0.76531  0.49000  Biso   1.000  C
  C1630    1.0000 0.90870  0.78678  0.48510  Biso   1.000  C
  C1631    1.0000 0.91280  0.79509  0.46063  Biso   1.000  C
  C1632    1.0000 0.89970  0.78190  0.44100  Biso   1.000  C
  C1633    1.0000 0.88250  0.76050  0.44580  Biso   1.000  C
  C1634    1.0000 0.87830  0.75220  0.47030  Biso   1.000  C
  C1635    1.0000 0.82500  0.81139  0.50390  Biso   1.000  C
  C1636    1.0000 0.82770  0.80115  0.47990  Biso   1.000  C
  C1637    1.0000 0.80400  0.78968  0.46840  Biso   1.000  C
  C1638    1.0000 0.77770  0.78844  0.48080  Biso   1.000  C
  C1639    1.0000 0.77500  0.79867  0.50470  Biso   1.000  C
  C1640    1.0000 0.79870  0.81015  0.51630  Biso   1.000  C
  C1641    1.0000 0.04390  0.89820  0.62170  Biso   1.000  C
  C1642    1.0000 0.04140  0.87690  0.60590  Biso   1.000  C
  C1643    1.0000 0.06420  0.87020  0.59030  Biso   1.000  C
  C1644    1.0000 0.08930  0.88490  0.59030  Biso   1.000  C
  C1645    1.0000 0.09180  0.90620  0.60610  Biso   1.000  C
  C1646    1.0000 0.06900  0.91290  0.62170  Biso   1.000  C
  C1647    1.0000 0.86630  0.80170  0.76040  Biso   1.000  C
  C1648    1.0000 0.87560  0.77930  0.74830  Biso   1.000  C
  C1649    1.0000 0.88500  0.75720  0.76540  Biso   1.000  C
  C1650    1.0000 0.88290  0.75850  0.79080  Biso   1.000  C
  C1651    1.0000 0.87390  0.78100  0.80050  Biso   1.000  C
  C1652    1.0000 0.86300  0.80260  0.78540  Biso   1.000  C
  C1653    1.0000 0.77650  0.81060  0.77240  Biso   1.000  C
  C1654    1.0000 0.76430  0.79900  0.79280  Biso   1.000  C
  C1655    1.0000 0.76470  0.81230  0.81720  Biso   1.000  C
  C1656    1.0000 0.77570  0.83860  0.81900  Biso   1.000  C
  C1657    1.0000 0.78470  0.85170  0.79520  Biso   1.000  C
  C1658    1.0000 0.78630  0.83650  0.77390  Biso   1.000  C
  C1659    1.0000 0.74980  0.77900  0.60290  Biso   1.000  C
  C1660    1.0000 0.74100  0.75380  0.59770  Biso   1.000  C
  C1661    1.0000 0.71850  0.74940  0.58100  Biso   1.000  C
  C1662    1.0000 0.70480  0.77020  0.56960  Biso   1.000  C
  C1663    1.0000 0.71360  0.79540  0.57480  Biso   1.000  C
  C1664    1.0000 0.73600  0.79980  0.59150  Biso   1.000  C
  C1665    1.0000 0.69670  0.86970  0.71650  Biso   1.000  C
  C1666    1.0000 0.67450  0.87910  0.73300  Biso   1.000  C
  C1667    1.0000 0.64580  0.88550  0.72400  Biso   1.000  C
  C1668    1.0000 0.64110  0.88520  0.69580  Biso   1.000  C
  C1669    1.0000 0.66470  0.87450  0.67810  Biso   1.000  C
  C1670    1.0000 0.69150  0.86750  0.69040  Biso   1.000  C
  C1671    1.0000 0.91120  0.69010  0.49710  Biso   1.000  C
  C1672    1.0000 0.90530  0.69450  0.47040  Biso   1.000  C
  C1673    1.0000 0.87720  0.68710  0.46170  Biso   1.000  C
  C1674    1.0000 0.85680  0.67870  0.47740  Biso   1.000  C
  C1675    1.0000 0.86240  0.67340  0.50370  Biso   1.000  C
  C1676    1.0000 0.89030  0.68040  0.51430  Biso   1.000  C
  Cd225    1.0000 0.89359  0.83980  0.60400  Biso   1.000  Cd
  Cd226    1.0000 0.95075  0.81788  0.65800  Biso   1.000  Cd
  Cd227    1.0000 0.83586  0.85793  0.65674  Biso   1.000  Cd
  Cd228    1.0000 0.89755  0.83839  0.71000  Biso   1.000  Cd
  Cd229    1.0000 0.87325  0.78699  0.66043  Biso   1.000  Cd
  Cd230    1.0000 0.97343  0.87468  0.60291  Biso   1.000  Cd
  Cd231    1.0000 0.83212  0.86063  0.54957  Biso   1.000  Cd
  Cd232    1.0000 0.81694  0.80938  0.71597  Biso   1.000  Cd
  Cd233    1.0000 0.77004  0.87762  0.70255  Biso   1.000  Cd
  Cd234    1.0000 0.95681  0.81778  0.55359  Biso   1.000  Cd
  Cd235    1.0000 0.87381  0.79290  0.54471  Biso   1.000  Cd
  Cd236    1.0000 0.81542  0.80729  0.59955  Biso   1.000  Cd
  Cd237    1.0000 0.76034  0.81508  0.65576  Biso   1.000  Cd
  Cd238    1.0000 0.92411  0.76496  0.60397  Biso   1.000  Cd
  S351     1.0000 0.85401  0.82106  0.63030  Biso   1.000  S
  S352     1.0000 0.91216  0.80345  0.57662  Biso   1.000  S
  S353     1.0000 0.93429  0.85581  0.63070  Biso   1.000  S
  S354     1.0000 0.91453  0.79980  0.68716  Biso   1.000  S
  S355     1.0000 0.79554  0.83943  0.68315  Biso   1.000  S
  S356     1.0000 0.88561  0.74823  0.63251  Biso   1.000  S
  S357     1.0000 0.79239  0.84103  0.57358  Biso   1.000  S
  S358     1.0000 0.94013  0.85914  0.73279  Biso   1.000  S
  S359     1.0000 0.85703  0.82906  0.74166  Biso   1.000  S
  S360     1.0000 0.82843  0.77354  0.68524  Biso   1.000  S
  S361     1.0000 0.99772  0.83533  0.67669  Biso   1.000  S
  S362     1.0000 0.96768  0.78638  0.62386  Biso   1.000  S
  Cd239    1.0000 0.73135  0.81045  0.72596  Biso   1.000  Cd
  Cd240    1.0000 0.93875  0.74211  0.53198  Biso   1.000  Cd
  S363     1.0000 0.77764  0.79237  0.74463  Biso   1.000  S
  S364     1.0000 0.97359  0.77976  0.52631  Biso   1.000  S
  S365     1.0000 0.84002  0.77063  0.57542  Biso   1.000  S
  S366     1.0000 0.99641  0.83595  0.58051  Biso   1.000  S
  S367     1.0000 0.00776  0.89271  0.63632  Biso   1.000  S
  S368     1.0000 0.72958  0.86007  0.72849  Biso   1.000  S
  S369     1.0000 0.88874  0.75479  0.51825  Biso   1.000  S
  S370     1.0000 0.77789  0.78236  0.62500  Biso   1.000  S
  S371     1.0000 0.94273  0.72771  0.57762  Biso   1.000  S
  S372     1.0000 0.85690  0.83050  0.51838  Biso   1.000  S
  S373     1.0000 0.72210  0.79321  0.68287  Biso   1.000  S
  S374     1.0000 0.93370  0.85011  0.52371  Biso   1.000  S
  S375     1.0000 0.94488  0.69915  0.50982  Biso   1.000  S
  C1677    1.0000 0.81360  0.74840  0.55620  Biso   1.000  C
  C1678    1.0000 0.79510  0.72590  0.52090  Biso   1.000  C
  C1679    1.0000 0.81630  0.74110  0.53160  Biso   1.000  C
  C1680    1.0000 0.79850  0.76670  0.54340  Biso   1.000  C
  C1681    1.0000 0.00510  0.27040  0.04100  Biso   1.000  C
  C1682    1.0000 0.03010  0.26670  0.02670  Biso   1.000  C
  C1683    1.0000 0.05690  0.26130  0.03750  Biso   1.000  C
  C1684    1.0000 0.05850  0.25730  0.06310  Biso   1.000  C
  C1685    1.0000 0.03490  0.25990  0.07800  Biso   1.000  C
  C1686    1.0000 0.00880  0.26770  0.06700  Biso   1.000  C
  C1687    1.0000 0.73160  0.25960  0.18440  Biso   1.000  C
  C1688    1.0000 0.73270  0.24580  0.20680  Biso   1.000  C
  C1689    1.0000 0.73870  0.21790  0.20690  Biso   1.000  C
  C1690    1.0000 0.74250  0.20450  0.18670  Biso   1.000  C
  C1691    1.0000 0.74080  0.21940  0.16520  Biso   1.000  C
  C1692    1.0000 0.73460  0.24580  0.16410  Biso   1.000  C
  C1693    1.0000 0.83830  0.24560  0.20080  Biso   1.000  C
  C1694    1.0000 0.86480  0.23530  0.20330  Biso   1.000  C
  C1695    1.0000 0.87390  0.21040  0.21650  Biso   1.000  C
  C1696    1.0000 0.85190  0.19980  0.22890  Biso   1.000  C
  C1697    1.0000 0.82270  0.20620  0.22540  Biso   1.000  C
  C1698    1.0000 0.81610  0.22720  0.21050  Biso   1.000  C
  C1699    1.0000 0.02110  0.34710  0.05820  Biso   1.000  C
  C1700    1.0000 0.04400  0.32980  0.05250  Biso   1.000  C
  C1701    1.0000 0.06470  0.33870  0.03520  Biso   1.000  C
  C1702    1.0000 0.06360  0.36500  0.02350  Biso   1.000  C
  C1703    1.0000 0.04000  0.38090  0.02900  Biso   1.000  C
  C1704    1.0000 0.01870  0.37170  0.04740  Biso   1.000  C
  C1705    1.0000 0.99330  0.26460  0.13740  Biso   1.000  C
  C1706    1.0000 0.99030  0.24000  0.13150  Biso   1.000  C
  C1707    1.0000 0.01330  0.22200  0.14180  Biso   1.000  C
  C1708    1.0000 0.03520  0.23320  0.15850  Biso   1.000  C
  C1709    1.0000 0.04030  0.26070  0.15890  Biso   1.000  C
  C1710    1.0000 0.01840  0.27640  0.14400  Biso   1.000  C
  C1711    1.0000 0.00970  0.31340  0.19870  Biso   1.000  C
  C1712    1.0000 0.99440  0.29470  0.20840  Biso   1.000  C
  C1713    1.0000 0.00560  0.27590  0.22370  Biso   1.000  C
  C1714    1.0000 0.03500  0.27790  0.23290  Biso   1.000  C
  C1715    1.0000 0.05360  0.29650  0.22230  Biso   1.000  C
  C1716    1.0000 0.03970  0.31550  0.20410  Biso   1.000  C
  C1717    1.0000 0.95540  0.33460  0.25300  Biso   1.000  C
  C1718    1.0000 0.94160  0.31210  0.25840  Biso   1.000  C
  C1719    1.0000 0.95340  0.29360  0.27360  Biso   1.000  C
  C1720    1.0000 0.98040  0.29870  0.28540  Biso   1.000  C
  C1721    1.0000 0.99250  0.32190  0.28070  Biso   1.000  C
  C1722    1.0000 0.98310  0.33600  0.26300  Biso   1.000  C
  C1723    1.0000 0.90590  0.22600  0.15160  Biso   1.000  C
  C1724    1.0000 0.92750  0.23420  0.16700  Biso   1.000  C
  C1725    1.0000 0.94440  0.21640  0.18350  Biso   1.000  C
  C1726    1.0000 0.93630  0.18800  0.18110  Biso   1.000  C
  C1727    1.0000 0.91060  0.18140  0.16420  Biso   1.000  C
  C1728    1.0000 0.89730  0.20060  0.14750  Biso   1.000  C
  C1729    1.0000 0.91530  0.20270  0.08180  Biso   1.000  C
  C1730    1.0000 0.92800  0.17830  0.08830  Biso   1.000  C
  C1731    1.0000 0.90600  0.16090  0.09340  Biso   1.000  C
  C1732    1.0000 0.87810  0.16380  0.08610  Biso   1.000  C
  C1733    1.0000 0.86720  0.18640  0.08200  Biso   1.000  C
  C1734    1.0000 0.88740  0.20910  0.07870  Biso   1.000  C
  C1735    1.0000 0.96336  0.36283  0.00344  Biso   1.000  C
  C1736    1.0000 0.96970  0.38916  0.00350  Biso   1.000  C
  C1737    1.0000 0.99190  0.39867  0.98858  Biso   1.000  C
  C1738    1.0000 0.00770  0.38180  0.97359  Biso   1.000  C
  C1739    1.0000 0.00130  0.35550  0.97353  Biso   1.000  C
  C1740    1.0000 0.97918  0.34600  0.98845  Biso   1.000  C
  C1741    1.0000 0.89150  0.26531  0.99000  Biso   1.000  C
  C1742    1.0000 0.90870  0.28678  0.98510  Biso   1.000  C
  C1743    1.0000 0.91280  0.29509  0.96063  Biso   1.000  C
  C1744    1.0000 0.89970  0.28190  0.94100  Biso   1.000  C
  C1745    1.0000 0.88250  0.26050  0.94580  Biso   1.000  C
  C1746    1.0000 0.87830  0.25220  0.97030  Biso   1.000  C
  C1747    1.0000 0.82500  0.31139  0.00390  Biso   1.000  C
  C1748    1.0000 0.82770  0.30115  0.97990  Biso   1.000  C
  C1749    1.0000 0.80400  0.28968  0.96840  Biso   1.000  C
  C1750    1.0000 0.77770  0.28844  0.98080  Biso   1.000  C
  C1751    1.0000 0.77500  0.29867  0.00470  Biso   1.000  C
  C1752    1.0000 0.79870  0.31015  0.01630  Biso   1.000  C
  C1753    1.0000 0.04390  0.39820  0.12170  Biso   1.000  C
  C1754    1.0000 0.04140  0.37690  0.10590  Biso   1.000  C
  C1755    1.0000 0.06420  0.37020  0.09030  Biso   1.000  C
  C1756    1.0000 0.08930  0.38490  0.09030  Biso   1.000  C
  C1757    1.0000 0.09180  0.40620  0.10610  Biso   1.000  C
  C1758    1.0000 0.06900  0.41290  0.12170  Biso   1.000  C
  C1759    1.0000 0.86630  0.30170  0.26040  Biso   1.000  C
  C1760    1.0000 0.87560  0.27930  0.24830  Biso   1.000  C
  C1761    1.0000 0.88500  0.25720  0.26540  Biso   1.000  C
  C1762    1.0000 0.88290  0.25850  0.29080  Biso   1.000  C
  C1763    1.0000 0.87390  0.28100  0.30050  Biso   1.000  C
  C1764    1.0000 0.86300  0.30260  0.28540  Biso   1.000  C
  C1765    1.0000 0.77650  0.31060  0.27240  Biso   1.000  C
  C1766    1.0000 0.76430  0.29900  0.29280  Biso   1.000  C
  C1767    1.0000 0.76470  0.31230  0.31720  Biso   1.000  C
  C1768    1.0000 0.77570  0.33860  0.31900  Biso   1.000  C
  C1769    1.0000 0.78470  0.35170  0.29520  Biso   1.000  C
  C1770    1.0000 0.78630  0.33650  0.27390  Biso   1.000  C
  C1771    1.0000 0.74980  0.27900  0.10290  Biso   1.000  C
  C1772    1.0000 0.74100  0.25380  0.09770  Biso   1.000  C
  C1773    1.0000 0.71850  0.24940  0.08100  Biso   1.000  C
  C1774    1.0000 0.70480  0.27020  0.06960  Biso   1.000  C
  C1775    1.0000 0.71360  0.29540  0.07480  Biso   1.000  C
  C1776    1.0000 0.73600  0.29980  0.09150  Biso   1.000  C
  C1777    1.0000 0.69670  0.36970  0.21650  Biso   1.000  C
  C1778    1.0000 0.67450  0.37910  0.23300  Biso   1.000  C
  C1779    1.0000 0.64580  0.38550  0.22400  Biso   1.000  C
  C1780    1.0000 0.64110  0.38520  0.19580  Biso   1.000  C
  C1781    1.0000 0.66470  0.37450  0.17810  Biso   1.000  C
  C1782    1.0000 0.69150  0.36750  0.19040  Biso   1.000  C
  C1783    1.0000 0.91120  0.19010  0.99710  Biso   1.000  C
  C1784    1.0000 0.90530  0.19450  0.97040  Biso   1.000  C
  C1785    1.0000 0.87720  0.18710  0.96170  Biso   1.000  C
  C1786    1.0000 0.85680  0.17870  0.97740  Biso   1.000  C
  C1787    1.0000 0.86240  0.17340  0.00370  Biso   1.000  C
  C1788    1.0000 0.89030  0.18040  0.01430  Biso   1.000  C
  Cd241    1.0000 0.89359  0.33980  0.10400  Biso   1.000  Cd
  Cd242    1.0000 0.95075  0.31788  0.15800  Biso   1.000  Cd
  Cd243    1.0000 0.83586  0.35793  0.15674  Biso   1.000  Cd
  Cd244    1.0000 0.89755  0.33839  0.21000  Biso   1.000  Cd
  Cd245    1.0000 0.87325  0.28699  0.16043  Biso   1.000  Cd
  Cd246    1.0000 0.97343  0.37468  0.10291  Biso   1.000  Cd
  Cd247    1.0000 0.83212  0.36063  0.04957  Biso   1.000  Cd
  Cd248    1.0000 0.81694  0.30938  0.21597  Biso   1.000  Cd
  Cd249    1.0000 0.77004  0.37762  0.20255  Biso   1.000  Cd
  Cd250    1.0000 0.95681  0.31778  0.05359  Biso   1.000  Cd
  Cd251    1.0000 0.87381  0.29290  0.04471  Biso   1.000  Cd
  Cd252    1.0000 0.81542  0.30729  0.09955  Biso   1.000  Cd
  Cd253    1.0000 0.76034  0.31508  0.15576  Biso   1.000  Cd
  Cd254    1.0000 0.92411  0.26496  0.10397  Biso   1.000  Cd
  S376     1.0000 0.85401  0.32106  0.13030  Biso   1.000  S
  S377     1.0000 0.91216  0.30345  0.07662  Biso   1.000  S
  S378     1.0000 0.93429  0.35581  0.13070  Biso   1.000  S
  S379     1.0000 0.91453  0.29980  0.18716  Biso   1.000  S
  S380     1.0000 0.79554  0.33943  0.18315  Biso   1.000  S
  S381     1.0000 0.88561  0.24823  0.13251  Biso   1.000  S
  S382     1.0000 0.79239  0.34103  0.07358  Biso   1.000  S
  S383     1.0000 0.94013  0.35914  0.23279  Biso   1.000  S
  S384     1.0000 0.85703  0.32906  0.24166  Biso   1.000  S
  S385     1.0000 0.82843  0.27354  0.18524  Biso   1.000  S
  S386     1.0000 0.99772  0.33533  0.17669  Biso   1.000  S
  S387     1.0000 0.96768  0.28638  0.12386  Biso   1.000  S
  Cd255    1.0000 0.73135  0.31045  0.22596  Biso   1.000  Cd
  Cd256    1.0000 0.93875  0.24211  0.03198  Biso   1.000  Cd
  S388     1.0000 0.77764  0.29237  0.24463  Biso   1.000  S
  S389     1.0000 0.97359  0.27976  0.02631  Biso   1.000  S
  S390     1.0000 0.84002  0.27063  0.07542  Biso   1.000  S
  S391     1.0000 0.99641  0.33595  0.08051  Biso   1.000  S
  S392     1.0000 0.00776  0.39271  0.13632  Biso   1.000  S
  S393     1.0000 0.72958  0.36007  0.22849  Biso   1.000  S
  S394     1.0000 0.88874  0.25479  0.01825  Biso   1.000  S
  S395     1.0000 0.77789  0.28236  0.12500  Biso   1.000  S
  S396     1.0000 0.94273  0.22771  0.07762  Biso   1.000  S
  S397     1.0000 0.85690  0.33050  0.01838  Biso   1.000  S
  S398     1.0000 0.72210  0.29321  0.18287  Biso   1.000  S
  S399     1.0000 0.93370  0.35011  0.02371  Biso   1.000  S
  S400     1.0000 0.94488  0.19915  0.00982  Biso   1.000  S
  C1789    1.0000 0.81360  0.24840  0.05620  Biso   1.000  C
  C1790    1.0000 0.79510  0.22590  0.02090  Biso   1.000  C
  C1791    1.0000 0.81630  0.24110  0.03160  Biso   1.000  C
  C1792    1.0000 0.79850  0.26670  0.04340  Biso   1.000  C
  S401     1.0000 0.62500  0.62500  0.93506  Biso   1.000  S
  S402     1.0000 0.62500  0.62500  0.82562  Biso   1.000  S
  S403     1.0000 0.62500  0.12500  0.43506  Biso   1.000  S
  S404     1.0000 0.62500  0.12500  0.32562  Biso   1.000  S
  S405     1.0000 0.12500  0.12500  0.93506  Biso   1.000  S
  S406     1.0000 0.12500  0.12500  0.82562  Biso   1.000  S
  S407     1.0000 0.12500  0.62500  0.43506  Biso   1.000  S
  S408     1.0000 0.12500  0.62500  0.32562  Biso   1.000  S
  S409     1.0000 0.87500  0.37500  0.18506  Biso   1.000  S
  S410     1.0000 0.87500  0.37500  0.07562  Biso   1.000  S
  S411     1.0000 0.87500  0.87500  0.68506  Biso   1.000  S
  S412     1.0000 0.87500  0.87500  0.57562  Biso   1.000  S
  S413     1.0000 0.37500  0.87500  0.18506  Biso   1.000  S
  S414     1.0000 0.37500  0.87500  0.07562  Biso   1.000  S
  S415     1.0000 0.37500  0.37500  0.68506  Biso   1.000  S
  S416     1.0000 0.37500  0.37500  0.57562  Biso   1.000  S
  C1793    1.0000 0.25510  0.52040  0.95900  Biso   1.000  C
  C1794    1.0000 0.28010  0.51670  0.97330  Biso   1.000  C
  C1795    1.0000 0.30690  0.51130  0.96250  Biso   1.000  C
  C1796    1.0000 0.30850  0.50730  0.93690  Biso   1.000  C
  C1797    1.0000 0.28490  0.50990  0.92200  Biso   1.000  C
  C1798    1.0000 0.25880  0.51770  0.93300  Biso   1.000  C
  C1799    1.0000 0.98160  0.50960  0.81560  Biso   1.000  C
  C1800    1.0000 0.98270  0.49580  0.79320  Biso   1.000  C
  C1801    1.0000 0.98870  0.46790  0.79310  Biso   1.000  C
  C1802    1.0000 0.99250  0.45450  0.81330  Biso   1.000  C
  C1803    1.0000 0.99080  0.46940  0.83480  Biso   1.000  C
  C1804    1.0000 0.98460  0.49580  0.83590  Biso   1.000  C
  C1805    1.0000 0.08830  0.49560  0.79920  Biso   1.000  C
  C1806    1.0000 0.11480  0.48530  0.79670  Biso   1.000  C
  C1807    1.0000 0.12390  0.46040  0.78350  Biso   1.000  C
  C1808    1.0000 0.10190  0.44980  0.77110  Biso   1.000  C
  C1809    1.0000 0.07270  0.45620  0.77460  Biso   1.000  C
  C1810    1.0000 0.06610  0.47720  0.78950  Biso   1.000  C
  C1811    1.0000 0.27110  0.59710  0.94180  Biso   1.000  C
  C1812    1.0000 0.29400  0.57980  0.94750  Biso   1.000  C
  C1813    1.0000 0.31470  0.58870  0.96480  Biso   1.000  C
  C1814    1.0000 0.31360  0.61500  0.97650  Biso   1.000  C
  C1815    1.0000 0.29000  0.63090  0.97100  Biso   1.000  C
  C1816    1.0000 0.26870  0.62170  0.95260  Biso   1.000  C
  C1817    1.0000 0.24330  0.51460  0.86260  Biso   1.000  C
  C1818    1.0000 0.24030  0.49000  0.86850  Biso   1.000  C
  C1819    1.0000 0.26330  0.47200  0.85820  Biso   1.000  C
  C1820    1.0000 0.28520  0.48320  0.84150  Biso   1.000  C
  C1821    1.0000 0.29030  0.51070  0.84110  Biso   1.000  C
  C1822    1.0000 0.26840  0.52640  0.85600  Biso   1.000  C
  C1823    1.0000 0.25970  0.56340  0.80130  Biso   1.000  C
  C1824    1.0000 0.24440  0.54470  0.79160  Biso   1.000  C
  C1825    1.0000 0.25560  0.52590  0.77630  Biso   1.000  C
  C1826    1.0000 0.28500  0.52790  0.76710  Biso   1.000  C
  C1827    1.0000 0.30360  0.54650  0.77770  Biso   1.000  C
  C1828    1.0000 0.28970  0.56550  0.79590  Biso   1.000  C
  C1829    1.0000 0.20540  0.58460  0.74700  Biso   1.000  C
  C1830    1.0000 0.19160  0.56210  0.74160  Biso   1.000  C
  C1831    1.0000 0.20340  0.54360  0.72640  Biso   1.000  C
  C1832    1.0000 0.23040  0.54870  0.71460  Biso   1.000  C
  C1833    1.0000 0.24250  0.57190  0.71930  Biso   1.000  C
  C1834    1.0000 0.23310  0.58600  0.73700  Biso   1.000  C
  C1835    1.0000 0.15590  0.47600  0.84840  Biso   1.000  C
  C1836    1.0000 0.17750  0.48420  0.83300  Biso   1.000  C
  C1837    1.0000 0.19440  0.46640  0.81650  Biso   1.000  C
  C1838    1.0000 0.18630  0.43800  0.81890  Biso   1.000  C
  C1839    1.0000 0.16060  0.43140  0.83580  Biso   1.000  C
  C1840    1.0000 0.14730  0.45060  0.85250  Biso   1.000  C
  C1841    1.0000 0.16530  0.45270  0.91820  Biso   1.000  C
  C1842    1.0000 0.17800  0.42830  0.91170  Biso   1.000  C
  C1843    1.0000 0.15600  0.41090  0.90660  Biso   1.000  C
  C1844    1.0000 0.12810  0.41380  0.91390  Biso   1.000  C
  C1845    1.0000 0.11720  0.43640  0.91800  Biso   1.000  C
  C1846    1.0000 0.13740  0.45910  0.92130  Biso   1.000  C
  C1847    1.0000 0.21336  0.61283  0.99656  Biso   1.000  C
  C1848    1.0000 0.21970  0.63916  0.99650  Biso   1.000  C
  C1849    1.0000 0.24190  0.64867  0.01142  Biso   1.000  C
  C1850    1.0000 0.25770  0.63180  0.02641  Biso   1.000  C
  C1851    1.0000 0.25130  0.60550  0.02647  Biso   1.000  C
  C1852    1.0000 0.22918  0.59600  0.01155  Biso   1.000  C
  C1853    1.0000 0.14150  0.51531  0.01000  Biso   1.000  C
  C1854    1.0000 0.15870  0.53678  0.01490  Biso   1.000  C
  C1855    1.0000 0.16280  0.54509  0.03937  Biso   1.000  C
  C1856    1.0000 0.14970  0.53190  0.05900  Biso   1.000  C
  C1857    1.0000 0.13250  0.51050  0.05420  Biso   1.000  C
  C1858    1.0000 0.12830  0.50220  0.02970  Biso   1.000  C
  C1859    1.0000 0.07500  0.56139  0.99610  Biso   1.000  C
  C1860    1.0000 0.07770  0.55115  0.02010  Biso   1.000  C
  C1861    1.0000 0.05400  0.53968  0.03160  Biso   1.000  C
  C1862    1.0000 0.02770  0.53844  0.01920  Biso   1.000  C
  C1863    1.0000 0.02500  0.54867  0.99530  Biso   1.000  C
  C1864    1.0000 0.04870  0.56015  0.98370  Biso   1.000  C
  C1865    1.0000 0.29390  0.64820  0.87830  Biso   1.000  C
  C1866    1.0000 0.29140  0.62690  0.89410  Biso   1.000  C
  C1867    1.0000 0.31420  0.62020  0.90970  Biso   1.000  C
  C1868    1.0000 0.33930  0.63490  0.90970  Biso   1.000  C
  C1869    1.0000 0.34180  0.65620  0.89390  Biso   1.000  C
  C1870    1.0000 0.31900  0.66290  0.87830  Biso   1.000  C
  C1871    1.0000 0.11630  0.55170  0.73960  Biso   1.000  C
  C1872    1.0000 0.12560  0.52930  0.75170  Biso   1.000  C
  C1873    1.0000 0.13500  0.50720  0.73460  Biso   1.000  C
  C1874    1.0000 0.13290  0.50850  0.70920  Biso   1.000  C
  C1875    1.0000 0.12390  0.53100  0.69950  Biso   1.000  C
  C1876    1.0000 0.11300  0.55260  0.71460  Biso   1.000  C
  C1877    1.0000 0.02650  0.56060  0.72760  Biso   1.000  C
  C1878    1.0000 0.01430  0.54900  0.70720  Biso   1.000  C
  C1879    1.0000 0.01470  0.56230  0.68280  Biso   1.000  C
  C1880    1.0000 0.02570  0.58860  0.68100  Biso   1.000  C
  C1881    1.0000 0.03470  0.60170  0.70480  Biso   1.000  C
  C1882    1.0000 0.03630  0.58650  0.72610  Biso   1.000  C
  C1883    1.0000 0.99980  0.52900  0.89710  Biso   1.000  C
  C1884    1.0000 0.99100  0.50380  0.90230  Biso   1.000  C
  C1885    1.0000 0.96850  0.49940  0.91900  Biso   1.000  C
  C1886    1.0000 0.95480  0.52020  0.93040  Biso   1.000  C
  C1887    1.0000 0.96360  0.54540  0.92520  Biso   1.000  C
  C1888    1.0000 0.98600  0.54980  0.90850  Biso   1.000  C
  C1889    1.0000 0.94670  0.61970  0.78350  Biso   1.000  C
  C1890    1.0000 0.92450  0.62910  0.76700  Biso   1.000  C
  C1891    1.0000 0.89580  0.63550  0.77600  Biso   1.000  C
  C1892    1.0000 0.89110  0.63520  0.80420  Biso   1.000  C
  C1893    1.0000 0.91470  0.62450  0.82190  Biso   1.000  C
  C1894    1.0000 0.94150  0.61750  0.80960  Biso   1.000  C
  C1895    1.0000 0.16120  0.44010  0.00290  Biso   1.000  C
  C1896    1.0000 0.15530  0.44450  0.02960  Biso   1.000  C
  C1897    1.0000 0.12720  0.43710  0.03830  Biso   1.000  C
  C1898    1.0000 0.10680  0.42870  0.02260  Biso   1.000  C
  C1899    1.0000 0.11240  0.42340  0.99630  Biso   1.000  C
  C1900    1.0000 0.14030  0.43040  0.98570  Biso   1.000  C
  Cd257    1.0000 0.14359  0.58980  0.89600  Biso   1.000  Cd
  Cd258    1.0000 0.20075  0.56788  0.84200  Biso   1.000  Cd
  Cd259    1.0000 0.08586  0.60793  0.84326  Biso   1.000  Cd
  Cd260    1.0000 0.14755  0.58839  0.79000  Biso   1.000  Cd
  Cd261    1.0000 0.12325  0.53699  0.83957  Biso   1.000  Cd
  Cd262    1.0000 0.22343  0.62468  0.89709  Biso   1.000  Cd
  Cd263    1.0000 0.08212  0.61063  0.95043  Biso   1.000  Cd
  Cd264    1.0000 0.06694  0.55938  0.78403  Biso   1.000  Cd
  Cd265    1.0000 0.02004  0.62762  0.79745  Biso   1.000  Cd
  Cd266    1.0000 0.20681  0.56778  0.94641  Biso   1.000  Cd
  Cd267    1.0000 0.12381  0.54290  0.95529  Biso   1.000  Cd
  Cd268    1.0000 0.06542  0.55729  0.90045  Biso   1.000  Cd
  Cd269    1.0000 0.01034  0.56508  0.84424  Biso   1.000  Cd
  Cd270    1.0000 0.17411  0.51496  0.89603  Biso   1.000  Cd
  S417     1.0000 0.10401  0.57106  0.86970  Biso   1.000  S
  S418     1.0000 0.16216  0.55345  0.92338  Biso   1.000  S
  S419     1.0000 0.18429  0.60581  0.86930  Biso   1.000  S
  S420     1.0000 0.16453  0.54980  0.81284  Biso   1.000  S
  S421     1.0000 0.04554  0.58943  0.81685  Biso   1.000  S
  S422     1.0000 0.13561  0.49823  0.86749  Biso   1.000  S
  S423     1.0000 0.04239  0.59103  0.92642  Biso   1.000  S
  S424     1.0000 0.19013  0.60914  0.76721  Biso   1.000  S
  S425     1.0000 0.10703  0.57906  0.75834  Biso   1.000  S
  S426     1.0000 0.07843  0.52354  0.81476  Biso   1.000  S
  S427     1.0000 0.24772  0.58533  0.82331  Biso   1.000  S
  S428     1.0000 0.21768  0.53638  0.87614  Biso   1.000  S
  Cd271    1.0000 0.98135  0.56045  0.77404  Biso   1.000  Cd
  Cd272    1.0000 0.18875  0.49211  0.96802  Biso   1.000  Cd
  S429     1.0000 0.02764  0.54237  0.75537  Biso   1.000  S
  S430     1.0000 0.22359  0.52976  0.97369  Biso   1.000  S
  S431     1.0000 0.09002  0.52063  0.92458  Biso   1.000  S
  S432     1.0000 0.24641  0.58595  0.91949  Biso   1.000  S
  S433     1.0000 0.25776  0.64271  0.86368  Biso   1.000  S
  S434     1.0000 0.97958  0.61007  0.77151  Biso   1.000  S
  S435     1.0000 0.13874  0.50479  0.98175  Biso   1.000  S
  S436     1.0000 0.02789  0.53236  0.87500  Biso   1.000  S
  S437     1.0000 0.19273  0.47771  0.92238  Biso   1.000  S
  S438     1.0000 0.10690  0.58050  0.98162  Biso   1.000  S
  S439     1.0000 0.97210  0.54321  0.81713  Biso   1.000  S
  S440     1.0000 0.18370  0.60011  0.97629  Biso   1.000  S
  S441     1.0000 0.19488  0.44915  0.99018  Biso   1.000  S
  C1901    1.0000 0.06360  0.49840  0.94380  Biso   1.000  C
  C1902    1.0000 0.04510  0.47590  0.97910  Biso   1.000  C
  C1903    1.0000 0.06630  0.49110  0.96840  Biso   1.000  C
  C1904    1.0000 0.04850  0.51670  0.95660  Biso   1.000  C
  C1905    1.0000 0.25510  0.02040  0.45900  Biso   1.000  C
  C1906    1.0000 0.28010  0.01670  0.47330  Biso   1.000  C
  C1907    1.0000 0.30690  0.01130  0.46250  Biso   1.000  C
  C1908    1.0000 0.30850  0.00730  0.43690  Biso   1.000  C
  C1909    1.0000 0.28490  0.00990  0.42200  Biso   1.000  C
  C1910    1.0000 0.25880  0.01770  0.43300  Biso   1.000  C
  C1911    1.0000 0.98160  0.00960  0.31560  Biso   1.000  C
  C1912    1.0000 0.98270  0.99580  0.29320  Biso   1.000  C
  C1913    1.0000 0.98870  0.96790  0.29310  Biso   1.000  C
  C1914    1.0000 0.99250  0.95450  0.31330  Biso   1.000  C
  C1915    1.0000 0.99080  0.96940  0.33480  Biso   1.000  C
  C1916    1.0000 0.98460  0.99580  0.33590  Biso   1.000  C
  C1917    1.0000 0.08830  0.99560  0.29920  Biso   1.000  C
  C1918    1.0000 0.11480  0.98530  0.29670  Biso   1.000  C
  C1919    1.0000 0.12390  0.96040  0.28350  Biso   1.000  C
  C1920    1.0000 0.10190  0.94980  0.27110  Biso   1.000  C
  C1921    1.0000 0.07270  0.95620  0.27460  Biso   1.000  C
  C1922    1.0000 0.06610  0.97720  0.28950  Biso   1.000  C
  C1923    1.0000 0.27110  0.09710  0.44180  Biso   1.000  C
  C1924    1.0000 0.29400  0.07980  0.44750  Biso   1.000  C
  C1925    1.0000 0.31470  0.08870  0.46480  Biso   1.000  C
  C1926    1.0000 0.31360  0.11500  0.47650  Biso   1.000  C
  C1927    1.0000 0.29000  0.13090  0.47100  Biso   1.000  C
  C1928    1.0000 0.26870  0.12170  0.45260  Biso   1.000  C
  C1929    1.0000 0.24330  0.01460  0.36260  Biso   1.000  C
  C1930    1.0000 0.24030  0.99000  0.36850  Biso   1.000  C
  C1931    1.0000 0.26330  0.97200  0.35820  Biso   1.000  C
  C1932    1.0000 0.28520  0.98320  0.34150  Biso   1.000  C
  C1933    1.0000 0.29030  0.01070  0.34110  Biso   1.000  C
  C1934    1.0000 0.26840  0.02640  0.35600  Biso   1.000  C
  C1935    1.0000 0.25970  0.06340  0.30130  Biso   1.000  C
  C1936    1.0000 0.24440  0.04470  0.29160  Biso   1.000  C
  C1937    1.0000 0.25560  0.02590  0.27630  Biso   1.000  C
  C1938    1.0000 0.28500  0.02790  0.26710  Biso   1.000  C
  C1939    1.0000 0.30360  0.04650  0.27770  Biso   1.000  C
  C1940    1.0000 0.28970  0.06550  0.29590  Biso   1.000  C
  C1941    1.0000 0.20540  0.08460  0.24700  Biso   1.000  C
  C1942    1.0000 0.19160  0.06210  0.24160  Biso   1.000  C
  C1943    1.0000 0.20340  0.04360  0.22640  Biso   1.000  C
  C1944    1.0000 0.23040  0.04870  0.21460  Biso   1.000  C
  C1945    1.0000 0.24250  0.07190  0.21930  Biso   1.000  C
  C1946    1.0000 0.23310  0.08600  0.23700  Biso   1.000  C
  C1947    1.0000 0.15590  0.97600  0.34840  Biso   1.000  C
  C1948    1.0000 0.17750  0.98420  0.33300  Biso   1.000  C
  C1949    1.0000 0.19440  0.96640  0.31650  Biso   1.000  C
  C1950    1.0000 0.18630  0.93800  0.31890  Biso   1.000  C
  C1951    1.0000 0.16060  0.93140  0.33580  Biso   1.000  C
  C1952    1.0000 0.14730  0.95060  0.35250  Biso   1.000  C
  C1953    1.0000 0.16530  0.95270  0.41820  Biso   1.000  C
  C1954    1.0000 0.17800  0.92830  0.41170  Biso   1.000  C
  C1955    1.0000 0.15600  0.91090  0.40660  Biso   1.000  C
  C1956    1.0000 0.12810  0.91380  0.41390  Biso   1.000  C
  C1957    1.0000 0.11720  0.93640  0.41800  Biso   1.000  C
  C1958    1.0000 0.13740  0.95910  0.42130  Biso   1.000  C
  C1959    1.0000 0.21336  0.11283  0.49656  Biso   1.000  C
  C1960    1.0000 0.21970  0.13916  0.49650  Biso   1.000  C
  C1961    1.0000 0.24190  0.14867  0.51142  Biso   1.000  C
  C1962    1.0000 0.25770  0.13180  0.52641  Biso   1.000  C
  C1963    1.0000 0.25130  0.10550  0.52647  Biso   1.000  C
  C1964    1.0000 0.22918  0.09600  0.51155  Biso   1.000  C
  C1965    1.0000 0.14150  0.01531  0.51000  Biso   1.000  C
  C1966    1.0000 0.15870  0.03678  0.51490  Biso   1.000  C
  C1967    1.0000 0.16280  0.04509  0.53937  Biso   1.000  C
  C1968    1.0000 0.14970  0.03190  0.55900  Biso   1.000  C
  C1969    1.0000 0.13250  0.01050  0.55420  Biso   1.000  C
  C1970    1.0000 0.12830  0.00220  0.52970  Biso   1.000  C
  C1971    1.0000 0.07500  0.06139  0.49610  Biso   1.000  C
  C1972    1.0000 0.07770  0.05115  0.52010  Biso   1.000  C
  C1973    1.0000 0.05400  0.03968  0.53160  Biso   1.000  C
  C1974    1.0000 0.02770  0.03844  0.51920  Biso   1.000  C
  C1975    1.0000 0.02500  0.04867  0.49530  Biso   1.000  C
  C1976    1.0000 0.04870  0.06015  0.48370  Biso   1.000  C
  C1977    1.0000 0.29390  0.14820  0.37830  Biso   1.000  C
  C1978    1.0000 0.29140  0.12690  0.39410  Biso   1.000  C
  C1979    1.0000 0.31420  0.12020  0.40970  Biso   1.000  C
  C1980    1.0000 0.33930  0.13490  0.40970  Biso   1.000  C
  C1981    1.0000 0.34180  0.15620  0.39390  Biso   1.000  C
  C1982    1.0000 0.31900  0.16290  0.37830  Biso   1.000  C
  C1983    1.0000 0.11630  0.05170  0.23960  Biso   1.000  C
  C1984    1.0000 0.12560  0.02930  0.25170  Biso   1.000  C
  C1985    1.0000 0.13500  0.00720  0.23460  Biso   1.000  C
  C1986    1.0000 0.13290  0.00850  0.20920  Biso   1.000  C
  C1987    1.0000 0.12390  0.03100  0.19950  Biso   1.000  C
  C1988    1.0000 0.11300  0.05260  0.21460  Biso   1.000  C
  C1989    1.0000 0.02650  0.06060  0.22760  Biso   1.000  C
  C1990    1.0000 0.01430  0.04900  0.20720  Biso   1.000  C
  C1991    1.0000 0.01470  0.06230  0.18280  Biso   1.000  C
  C1992    1.0000 0.02570  0.08860  0.18100  Biso   1.000  C
  C1993    1.0000 0.03470  0.10170  0.20480  Biso   1.000  C
  C1994    1.0000 0.03630  0.08650  0.22610  Biso   1.000  C
  C1995    1.0000 0.99980  0.02900  0.39710  Biso   1.000  C
  C1996    1.0000 0.99100  0.00380  0.40230  Biso   1.000  C
  C1997    1.0000 0.96850  0.99940  0.41900  Biso   1.000  C
  C1998    1.0000 0.95480  0.02020  0.43040  Biso   1.000  C
  C1999    1.0000 0.96360  0.04540  0.42520  Biso   1.000  C
  C2000    1.0000 0.98600  0.04980  0.40850  Biso   1.000  C
  C2001    1.0000 0.94670  0.11970  0.28350  Biso   1.000  C
  C2002    1.0000 0.92450  0.12910  0.26700  Biso   1.000  C
  C2003    1.0000 0.89580  0.13550  0.27600  Biso   1.000  C
  C2004    1.0000 0.89110  0.13520  0.30420  Biso   1.000  C
  C2005    1.0000 0.91470  0.12450  0.32190  Biso   1.000  C
  C2006    1.0000 0.94150  0.11750  0.30960  Biso   1.000  C
  C2007    1.0000 0.16120  0.94010  0.50290  Biso   1.000  C
  C2008    1.0000 0.15530  0.94450  0.52960  Biso   1.000  C
  C2009    1.0000 0.12720  0.93710  0.53830  Biso   1.000  C
  C2010    1.0000 0.10680  0.92870  0.52260  Biso   1.000  C
  C2011    1.0000 0.11240  0.92340  0.49630  Biso   1.000  C
  C2012    1.0000 0.14030  0.93040  0.48570  Biso   1.000  C
  Cd273    1.0000 0.14359  0.08980  0.39600  Biso   1.000  Cd
  Cd274    1.0000 0.20075  0.06788  0.34200  Biso   1.000  Cd
  Cd275    1.0000 0.08586  0.10793  0.34326  Biso   1.000  Cd
  Cd276    1.0000 0.14755  0.08839  0.29000  Biso   1.000  Cd
  Cd277    1.0000 0.12325  0.03699  0.33957  Biso   1.000  Cd
  Cd278    1.0000 0.22343  0.12468  0.39709  Biso   1.000  Cd
  Cd279    1.0000 0.08212  0.11063  0.45043  Biso   1.000  Cd
  Cd280    1.0000 0.06694  0.05938  0.28403  Biso   1.000  Cd
  Cd281    1.0000 0.02004  0.12762  0.29745  Biso   1.000  Cd
  Cd282    1.0000 0.20681  0.06778  0.44641  Biso   1.000  Cd
  Cd283    1.0000 0.12381  0.04290  0.45529  Biso   1.000  Cd
  Cd284    1.0000 0.06542  0.05729  0.40045  Biso   1.000  Cd
  Cd285    1.0000 0.01034  0.06508  0.34424  Biso   1.000  Cd
  Cd286    1.0000 0.17411  0.01496  0.39603  Biso   1.000  Cd
  S442     1.0000 0.10401  0.07106  0.36970  Biso   1.000  S
  S443     1.0000 0.16216  0.05345  0.42338  Biso   1.000  S
  S444     1.0000 0.18429  0.10581  0.36930  Biso   1.000  S
  S445     1.0000 0.16453  0.04980  0.31284  Biso   1.000  S
  S446     1.0000 0.04554  0.08943  0.31685  Biso   1.000  S
  S447     1.0000 0.13561  0.99823  0.36749  Biso   1.000  S
  S448     1.0000 0.04239  0.09103  0.42642  Biso   1.000  S
  S449     1.0000 0.19013  0.10914  0.26721  Biso   1.000  S
  S450     1.0000 0.10703  0.07906  0.25834  Biso   1.000  S
  S451     1.0000 0.07843  0.02354  0.31476  Biso   1.000  S
  S452     1.0000 0.24772  0.08533  0.32331  Biso   1.000  S
  S453     1.0000 0.21768  0.03638  0.37614  Biso   1.000  S
  Cd287    1.0000 0.98135  0.06045  0.27404  Biso   1.000  Cd
  Cd288    1.0000 0.18875  0.99211  0.46802  Biso   1.000  Cd
  S454     1.0000 0.02764  0.04237  0.25537  Biso   1.000  S
  S455     1.0000 0.22359  0.02976  0.47369  Biso   1.000  S
  S456     1.0000 0.09002  0.02063  0.42458  Biso   1.000  S
  S457     1.0000 0.24641  0.08595  0.41949  Biso   1.000  S
  S458     1.0000 0.25776  0.14271  0.36368  Biso   1.000  S
  S459     1.0000 0.97958  0.11007  0.27151  Biso   1.000  S
  S460     1.0000 0.13874  0.00479  0.48175  Biso   1.000  S
  S461     1.0000 0.02789  0.03236  0.37500  Biso   1.000  S
  S462     1.0000 0.19273  0.97771  0.42238  Biso   1.000  S
  S463     1.0000 0.10690  0.08050  0.48162  Biso   1.000  S
  S464     1.0000 0.97210  0.04321  0.31713  Biso   1.000  S
  S465     1.0000 0.18370  0.10011  0.47629  Biso   1.000  S
  S466     1.0000 0.19488  0.94915  0.49018  Biso   1.000  S
  C2013    1.0000 0.06360  0.99840  0.44380  Biso   1.000  C
  C2014    1.0000 0.04510  0.97590  0.47910  Biso   1.000  C
  C2015    1.0000 0.06630  0.99110  0.46840  Biso   1.000  C
  C2016    1.0000 0.04850  0.01670  0.45660  Biso   1.000  C
  C2017    1.0000 0.75510  0.52040  0.45900  Biso   1.000  C
  C2018    1.0000 0.78010  0.51670  0.47330  Biso   1.000  C
  C2019    1.0000 0.80690  0.51130  0.46250  Biso   1.000  C
  C2020    1.0000 0.80850  0.50730  0.43690  Biso   1.000  C
  C2021    1.0000 0.78490  0.50990  0.42200  Biso   1.000  C
  C2022    1.0000 0.75880  0.51770  0.43300  Biso   1.000  C
  C2023    1.0000 0.48160  0.50960  0.31560  Biso   1.000  C
  C2024    1.0000 0.48270  0.49580  0.29320  Biso   1.000  C
  C2025    1.0000 0.48870  0.46790  0.29310  Biso   1.000  C
  C2026    1.0000 0.49250  0.45450  0.31330  Biso   1.000  C
  C2027    1.0000 0.49080  0.46940  0.33480  Biso   1.000  C
  C2028    1.0000 0.48460  0.49580  0.33590  Biso   1.000  C
  C2029    1.0000 0.58830  0.49560  0.29920  Biso   1.000  C
  C2030    1.0000 0.61480  0.48530  0.29670  Biso   1.000  C
  C2031    1.0000 0.62390  0.46040  0.28350  Biso   1.000  C
  C2032    1.0000 0.60190  0.44980  0.27110  Biso   1.000  C
  C2033    1.0000 0.57270  0.45620  0.27460  Biso   1.000  C
  C2034    1.0000 0.56610  0.47720  0.28950  Biso   1.000  C
  C2035    1.0000 0.77110  0.59710  0.44180  Biso   1.000  C
  C2036    1.0000 0.79400  0.57980  0.44750  Biso   1.000  C
  C2037    1.0000 0.81470  0.58870  0.46480  Biso   1.000  C
  C2038    1.0000 0.81360  0.61500  0.47650  Biso   1.000  C
  C2039    1.0000 0.79000  0.63090  0.47100  Biso   1.000  C
  C2040    1.0000 0.76870  0.62170  0.45260  Biso   1.000  C
  C2041    1.0000 0.74330  0.51460  0.36260  Biso   1.000  C
  C2042    1.0000 0.74030  0.49000  0.36850  Biso   1.000  C
  C2043    1.0000 0.76330  0.47200  0.35820  Biso   1.000  C
  C2044    1.0000 0.78520  0.48320  0.34150  Biso   1.000  C
  C2045    1.0000 0.79030  0.51070  0.34110  Biso   1.000  C
  C2046    1.0000 0.76840  0.52640  0.35600  Biso   1.000  C
  C2047    1.0000 0.75970  0.56340  0.30130  Biso   1.000  C
  C2048    1.0000 0.74440  0.54470  0.29160  Biso   1.000  C
  C2049    1.0000 0.75560  0.52590  0.27630  Biso   1.000  C
  C2050    1.0000 0.78500  0.52790  0.26710  Biso   1.000  C
  C2051    1.0000 0.80360  0.54650  0.27770  Biso   1.000  C
  C2052    1.0000 0.78970  0.56550  0.29590  Biso   1.000  C
  C2053    1.0000 0.70540  0.58460  0.24700  Biso   1.000  C
  C2054    1.0000 0.69160  0.56210  0.24160  Biso   1.000  C
  C2055    1.0000 0.70340  0.54360  0.22640  Biso   1.000  C
  C2056    1.0000 0.73040  0.54870  0.21460  Biso   1.000  C
  C2057    1.0000 0.74250  0.57190  0.21930  Biso   1.000  C
  C2058    1.0000 0.73310  0.58600  0.23700  Biso   1.000  C
  C2059    1.0000 0.65590  0.47600  0.34840  Biso   1.000  C
  C2060    1.0000 0.67750  0.48420  0.33300  Biso   1.000  C
  C2061    1.0000 0.69440  0.46640  0.31650  Biso   1.000  C
  C2062    1.0000 0.68630  0.43800  0.31890  Biso   1.000  C
  C2063    1.0000 0.66060  0.43140  0.33580  Biso   1.000  C
  C2064    1.0000 0.64730  0.45060  0.35250  Biso   1.000  C
  C2065    1.0000 0.66530  0.45270  0.41820  Biso   1.000  C
  C2066    1.0000 0.67800  0.42830  0.41170  Biso   1.000  C
  C2067    1.0000 0.65600  0.41090  0.40660  Biso   1.000  C
  C2068    1.0000 0.62810  0.41380  0.41390  Biso   1.000  C
  C2069    1.0000 0.61720  0.43640  0.41800  Biso   1.000  C
  C2070    1.0000 0.63740  0.45910  0.42130  Biso   1.000  C
  C2071    1.0000 0.71336  0.61283  0.49656  Biso   1.000  C
  C2072    1.0000 0.71970  0.63916  0.49650  Biso   1.000  C
  C2073    1.0000 0.74190  0.64867  0.51142  Biso   1.000  C
  C2074    1.0000 0.75770  0.63180  0.52641  Biso   1.000  C
  C2075    1.0000 0.75130  0.60550  0.52647  Biso   1.000  C
  C2076    1.0000 0.72918  0.59600  0.51155  Biso   1.000  C
  C2077    1.0000 0.64150  0.51531  0.51000  Biso   1.000  C
  C2078    1.0000 0.65870  0.53678  0.51490  Biso   1.000  C
  C2079    1.0000 0.66280  0.54509  0.53937  Biso   1.000  C
  C2080    1.0000 0.64970  0.53190  0.55900  Biso   1.000  C
  C2081    1.0000 0.63250  0.51050  0.55420  Biso   1.000  C
  C2082    1.0000 0.62830  0.50220  0.52970  Biso   1.000  C
  C2083    1.0000 0.57500  0.56139  0.49610  Biso   1.000  C
  C2084    1.0000 0.57770  0.55115  0.52010  Biso   1.000  C
  C2085    1.0000 0.55400  0.53968  0.53160  Biso   1.000  C
  C2086    1.0000 0.52770  0.53844  0.51920  Biso   1.000  C
  C2087    1.0000 0.52500  0.54867  0.49530  Biso   1.000  C
  C2088    1.0000 0.54870  0.56015  0.48370  Biso   1.000  C
  C2089    1.0000 0.79390  0.64820  0.37830  Biso   1.000  C
  C2090    1.0000 0.79140  0.62690  0.39410  Biso   1.000  C
  C2091    1.0000 0.81420  0.62020  0.40970  Biso   1.000  C
  C2092    1.0000 0.83930  0.63490  0.40970  Biso   1.000  C
  C2093    1.0000 0.84180  0.65620  0.39390  Biso   1.000  C
  C2094    1.0000 0.81900  0.66290  0.37830  Biso   1.000  C
  C2095    1.0000 0.61630  0.55170  0.23960  Biso   1.000  C
  C2096    1.0000 0.62560  0.52930  0.25170  Biso   1.000  C
  C2097    1.0000 0.63500  0.50720  0.23460  Biso   1.000  C
  C2098    1.0000 0.63290  0.50850  0.20920  Biso   1.000  C
  C2099    1.0000 0.62390  0.53100  0.19950  Biso   1.000  C
  C2100    1.0000 0.61300  0.55260  0.21460  Biso   1.000  C
  C2101    1.0000 0.52650  0.56060  0.22760  Biso   1.000  C
  C2102    1.0000 0.51430  0.54900  0.20720  Biso   1.000  C
  C2103    1.0000 0.51470  0.56230  0.18280  Biso   1.000  C
  C2104    1.0000 0.52570  0.58860  0.18100  Biso   1.000  C
  C2105    1.0000 0.53470  0.60170  0.20480  Biso   1.000  C
  C2106    1.0000 0.53630  0.58650  0.22610  Biso   1.000  C
  C2107    1.0000 0.49980  0.52900  0.39710  Biso   1.000  C
  C2108    1.0000 0.49100  0.50380  0.40230  Biso   1.000  C
  C2109    1.0000 0.46850  0.49940  0.41900  Biso   1.000  C
  C2110    1.0000 0.45480  0.52020  0.43040  Biso   1.000  C
  C2111    1.0000 0.46360  0.54540  0.42520  Biso   1.000  C
  C2112    1.0000 0.48600  0.54980  0.40850  Biso   1.000  C
  C2113    1.0000 0.44670  0.61970  0.28350  Biso   1.000  C
  C2114    1.0000 0.42450  0.62910  0.26700  Biso   1.000  C
  C2115    1.0000 0.39580  0.63550  0.27600  Biso   1.000  C
  C2116    1.0000 0.39110  0.63520  0.30420  Biso   1.000  C
  C2117    1.0000 0.41470  0.62450  0.32190  Biso   1.000  C
  C2118    1.0000 0.44150  0.61750  0.30960  Biso   1.000  C
  C2119    1.0000 0.66120  0.44010  0.50290  Biso   1.000  C
  C2120    1.0000 0.65530  0.44450  0.52960  Biso   1.000  C
  C2121    1.0000 0.62720  0.43710  0.53830  Biso   1.000  C
  C2122    1.0000 0.60680  0.42870  0.52260  Biso   1.000  C
  C2123    1.0000 0.61240  0.42340  0.49630  Biso   1.000  C
  C2124    1.0000 0.64030  0.43040  0.48570  Biso   1.000  C
  Cd289    1.0000 0.64359  0.58980  0.39600  Biso   1.000  Cd
  Cd290    1.0000 0.70075  0.56788  0.34200  Biso   1.000  Cd
  Cd291    1.0000 0.58586  0.60793  0.34326  Biso   1.000  Cd
  Cd292    1.0000 0.64755  0.58839  0.29000  Biso   1.000  Cd
  Cd293    1.0000 0.62325  0.53699  0.33957  Biso   1.000  Cd
  Cd294    1.0000 0.72343  0.62468  0.39709  Biso   1.000  Cd
  Cd295    1.0000 0.58212  0.61063  0.45043  Biso   1.000  Cd
  Cd296    1.0000 0.56694  0.55938  0.28403  Biso   1.000  Cd
  Cd297    1.0000 0.52004  0.62762  0.29745  Biso   1.000  Cd
  Cd298    1.0000 0.70681  0.56778  0.44641  Biso   1.000  Cd
  Cd299    1.0000 0.62381  0.54290  0.45529  Biso   1.000  Cd
  Cd300    1.0000 0.56542  0.55729  0.40045  Biso   1.000  Cd
  Cd301    1.0000 0.51034  0.56508  0.34424  Biso   1.000  Cd
  Cd302    1.0000 0.67411  0.51496  0.39603  Biso   1.000  Cd
  S467     1.0000 0.60401  0.57106  0.36970  Biso   1.000  S
  S468     1.0000 0.66216  0.55345  0.42338  Biso   1.000  S
  S469     1.0000 0.68429  0.60581  0.36930  Biso   1.000  S
  S470     1.0000 0.66453  0.54980  0.31284  Biso   1.000  S
  S471     1.0000 0.54554  0.58943  0.31685  Biso   1.000  S
  S472     1.0000 0.63561  0.49823  0.36749  Biso   1.000  S
  S473     1.0000 0.54239  0.59103  0.42642  Biso   1.000  S
  S474     1.0000 0.69013  0.60914  0.26721  Biso   1.000  S
  S475     1.0000 0.60703  0.57906  0.25834  Biso   1.000  S
  S476     1.0000 0.57843  0.52354  0.31476  Biso   1.000  S
  S477     1.0000 0.74772  0.58533  0.32331  Biso   1.000  S
  S478     1.0000 0.71768  0.53638  0.37614  Biso   1.000  S
  Cd303    1.0000 0.48135  0.56045  0.27404  Biso   1.000  Cd
  Cd304    1.0000 0.68875  0.49211  0.46802  Biso   1.000  Cd
  S479     1.0000 0.52764  0.54237  0.25537  Biso   1.000  S
  S480     1.0000 0.72359  0.52976  0.47369  Biso   1.000  S
  S481     1.0000 0.59002  0.52063  0.42458  Biso   1.000  S
  S482     1.0000 0.74641  0.58595  0.41949  Biso   1.000  S
  S483     1.0000 0.75776  0.64271  0.36368  Biso   1.000  S
  S484     1.0000 0.47958  0.61007  0.27151  Biso   1.000  S
  S485     1.0000 0.63874  0.50479  0.48175  Biso   1.000  S
  S486     1.0000 0.52789  0.53236  0.37500  Biso   1.000  S
  S487     1.0000 0.69273  0.47771  0.42238  Biso   1.000  S
  S488     1.0000 0.60690  0.58050  0.48162  Biso   1.000  S
  S489     1.0000 0.47210  0.54321  0.31713  Biso   1.000  S
  S490     1.0000 0.68370  0.60011  0.47629  Biso   1.000  S
  S491     1.0000 0.69488  0.44915  0.49018  Biso   1.000  S
  C2125    1.0000 0.56360  0.49840  0.44380  Biso   1.000  C
  C2126    1.0000 0.54510  0.47590  0.47910  Biso   1.000  C
  C2127    1.0000 0.56630  0.49110  0.46840  Biso   1.000  C
  C2128    1.0000 0.54850  0.51670  0.45660  Biso   1.000  C
  C2129    1.0000 0.75510  0.02040  0.95900  Biso   1.000  C
  C2130    1.0000 0.78010  0.01670  0.97330  Biso   1.000  C
  C2131    1.0000 0.80690  0.01130  0.96250  Biso   1.000  C
  C2132    1.0000 0.80850  0.00730  0.93690  Biso   1.000  C
  C2133    1.0000 0.78490  0.00990  0.92200  Biso   1.000  C
  C2134    1.0000 0.75880  0.01770  0.93300  Biso   1.000  C
  C2135    1.0000 0.48160  0.00960  0.81560  Biso   1.000  C
  C2136    1.0000 0.48270  0.99580  0.79320  Biso   1.000  C
  C2137    1.0000 0.48870  0.96790  0.79310  Biso   1.000  C
  C2138    1.0000 0.49250  0.95450  0.81330  Biso   1.000  C
  C2139    1.0000 0.49080  0.96940  0.83480  Biso   1.000  C
  C2140    1.0000 0.48460  0.99580  0.83590  Biso   1.000  C
  C2141    1.0000 0.58830  0.99560  0.79920  Biso   1.000  C
  C2142    1.0000 0.61480  0.98530  0.79670  Biso   1.000  C
  C2143    1.0000 0.62390  0.96040  0.78350  Biso   1.000  C
  C2144    1.0000 0.60190  0.94980  0.77110  Biso   1.000  C
  C2145    1.0000 0.57270  0.95620  0.77460  Biso   1.000  C
  C2146    1.0000 0.56610  0.97720  0.78950  Biso   1.000  C
  C2147    1.0000 0.77110  0.09710  0.94180  Biso   1.000  C
  C2148    1.0000 0.79400  0.07980  0.94750  Biso   1.000  C
  C2149    1.0000 0.81470  0.08870  0.96480  Biso   1.000  C
  C2150    1.0000 0.81360  0.11500  0.97650  Biso   1.000  C
  C2151    1.0000 0.79000  0.13090  0.97100  Biso   1.000  C
  C2152    1.0000 0.76870  0.12170  0.95260  Biso   1.000  C
  C2153    1.0000 0.74330  0.01460  0.86260  Biso   1.000  C
  C2154    1.0000 0.74030  0.99000  0.86850  Biso   1.000  C
  C2155    1.0000 0.76330  0.97200  0.85820  Biso   1.000  C
  C2156    1.0000 0.78520  0.98320  0.84150  Biso   1.000  C
  C2157    1.0000 0.79030  0.01070  0.84110  Biso   1.000  C
  C2158    1.0000 0.76840  0.02640  0.85600  Biso   1.000  C
  C2159    1.0000 0.75970  0.06340  0.80130  Biso   1.000  C
  C2160    1.0000 0.74440  0.04470  0.79160  Biso   1.000  C
  C2161    1.0000 0.75560  0.02590  0.77630  Biso   1.000  C
  C2162    1.0000 0.78500  0.02790  0.76710  Biso   1.000  C
  C2163    1.0000 0.80360  0.04650  0.77770  Biso   1.000  C
  C2164    1.0000 0.78970  0.06550  0.79590  Biso   1.000  C
  C2165    1.0000 0.70540  0.08460  0.74700  Biso   1.000  C
  C2166    1.0000 0.69160  0.06210  0.74160  Biso   1.000  C
  C2167    1.0000 0.70340  0.04360  0.72640  Biso   1.000  C
  C2168    1.0000 0.73040  0.04870  0.71460  Biso   1.000  C
  C2169    1.0000 0.74250  0.07190  0.71930  Biso   1.000  C
  C2170    1.0000 0.73310  0.08600  0.73700  Biso   1.000  C
  C2171    1.0000 0.65590  0.97600  0.84840  Biso   1.000  C
  C2172    1.0000 0.67750  0.98420  0.83300  Biso   1.000  C
  C2173    1.0000 0.69440  0.96640  0.81650  Biso   1.000  C
  C2174    1.0000 0.68630  0.93800  0.81890  Biso   1.000  C
  C2175    1.0000 0.66060  0.93140  0.83580  Biso   1.000  C
  C2176    1.0000 0.64730  0.95060  0.85250  Biso   1.000  C
  C2177    1.0000 0.66530  0.95270  0.91820  Biso   1.000  C
  C2178    1.0000 0.67800  0.92830  0.91170  Biso   1.000  C
  C2179    1.0000 0.65600  0.91090  0.90660  Biso   1.000  C
  C2180    1.0000 0.62810  0.91380  0.91390  Biso   1.000  C
  C2181    1.0000 0.61720  0.93640  0.91800  Biso   1.000  C
  C2182    1.0000 0.63740  0.95910  0.92130  Biso   1.000  C
  C2183    1.0000 0.71336  0.11283  0.99656  Biso   1.000  C
  C2184    1.0000 0.71970  0.13916  0.99650  Biso   1.000  C
  C2185    1.0000 0.74190  0.14867  0.01142  Biso   1.000  C
  C2186    1.0000 0.75770  0.13180  0.02641  Biso   1.000  C
  C2187    1.0000 0.75130  0.10550  0.02647  Biso   1.000  C
  C2188    1.0000 0.72918  0.09600  0.01155  Biso   1.000  C
  C2189    1.0000 0.64150  0.01531  0.01000  Biso   1.000  C
  C2190    1.0000 0.65870  0.03678  0.01490  Biso   1.000  C
  C2191    1.0000 0.66280  0.04509  0.03937  Biso   1.000  C
  C2192    1.0000 0.64970  0.03190  0.05900  Biso   1.000  C
  C2193    1.0000 0.63250  0.01050  0.05420  Biso   1.000  C
  C2194    1.0000 0.62830  0.00220  0.02970  Biso   1.000  C
  C2195    1.0000 0.57500  0.06139  0.99610  Biso   1.000  C
  C2196    1.0000 0.57770  0.05115  0.02010  Biso   1.000  C
  C2197    1.0000 0.55400  0.03968  0.03160  Biso   1.000  C
  C2198    1.0000 0.52770  0.03844  0.01920  Biso   1.000  C
  C2199    1.0000 0.52500  0.04867  0.99530  Biso   1.000  C
  C2200    1.0000 0.54870  0.06015  0.98370  Biso   1.000  C
  C2201    1.0000 0.79390  0.14820  0.87830  Biso   1.000  C
  C2202    1.0000 0.79140  0.12690  0.89410  Biso   1.000  C
  C2203    1.0000 0.81420  0.12020  0.90970  Biso   1.000  C
  C2204    1.0000 0.83930  0.13490  0.90970  Biso   1.000  C
  C2205    1.0000 0.84180  0.15620  0.89390  Biso   1.000  C
  C2206    1.0000 0.81900  0.16290  0.87830  Biso   1.000  C
  C2207    1.0000 0.61630  0.05170  0.73960  Biso   1.000  C
  C2208    1.0000 0.62560  0.02930  0.75170  Biso   1.000  C
  C2209    1.0000 0.63500  0.00720  0.73460  Biso   1.000  C
  C2210    1.0000 0.63290  0.00850  0.70920  Biso   1.000  C
  C2211    1.0000 0.62390  0.03100  0.69950  Biso   1.000  C
  C2212    1.0000 0.61300  0.05260  0.71460  Biso   1.000  C
  C2213    1.0000 0.52650  0.06060  0.72760  Biso   1.000  C
  C2214    1.0000 0.51430  0.04900  0.70720  Biso   1.000  C
  C2215    1.0000 0.51470  0.06230  0.68280  Biso   1.000  C
  C2216    1.0000 0.52570  0.08860  0.68100  Biso   1.000  C
  C2217    1.0000 0.53470  0.10170  0.70480  Biso   1.000  C
  C2218    1.0000 0.53630  0.08650  0.72610  Biso   1.000  C
  C2219    1.0000 0.49980  0.02900  0.89710  Biso   1.000  C
  C2220    1.0000 0.49100  0.00380  0.90230  Biso   1.000  C
  C2221    1.0000 0.46850  0.99940  0.91900  Biso   1.000  C
  C2222    1.0000 0.45480  0.02020  0.93040  Biso   1.000  C
  C2223    1.0000 0.46360  0.04540  0.92520  Biso   1.000  C
  C2224    1.0000 0.48600  0.04980  0.90850  Biso   1.000  C
  C2225    1.0000 0.44670  0.11970  0.78350  Biso   1.000  C
  C2226    1.0000 0.42450  0.12910  0.76700  Biso   1.000  C
  C2227    1.0000 0.39580  0.13550  0.77600  Biso   1.000  C
  C2228    1.0000 0.39110  0.13520  0.80420  Biso   1.000  C
  C2229    1.0000 0.41470  0.12450  0.82190  Biso   1.000  C
  C2230    1.0000 0.44150  0.11750  0.80960  Biso   1.000  C
  C2231    1.0000 0.66120  0.94010  0.00290  Biso   1.000  C
  C2232    1.0000 0.65530  0.94450  0.02960  Biso   1.000  C
  C2233    1.0000 0.62720  0.93710  0.03830  Biso   1.000  C
  C2234    1.0000 0.60680  0.92870  0.02260  Biso   1.000  C
  C2235    1.0000 0.61240  0.92340  0.99630  Biso   1.000  C
  C2236    1.0000 0.64030  0.93040  0.98570  Biso   1.000  C
  Cd305    1.0000 0.64359  0.08980  0.89600  Biso   1.000  Cd
  Cd306    1.0000 0.70075  0.06788  0.84200  Biso   1.000  Cd
  Cd307    1.0000 0.58586  0.10793  0.84326  Biso   1.000  Cd
  Cd308    1.0000 0.64755  0.08839  0.79000  Biso   1.000  Cd
  Cd309    1.0000 0.62325  0.03699  0.83957  Biso   1.000  Cd
  Cd310    1.0000 0.72343  0.12468  0.89709  Biso   1.000  Cd
  Cd311    1.0000 0.58212  0.11063  0.95043  Biso   1.000  Cd
  Cd312    1.0000 0.56694  0.05938  0.78403  Biso   1.000  Cd
  Cd313    1.0000 0.52004  0.12762  0.79745  Biso   1.000  Cd
  Cd314    1.0000 0.70681  0.06778  0.94641  Biso   1.000  Cd
  Cd315    1.0000 0.62381  0.04290  0.95529  Biso   1.000  Cd
  Cd316    1.0000 0.56542  0.05729  0.90045  Biso   1.000  Cd
  Cd317    1.0000 0.51034  0.06508  0.84424  Biso   1.000  Cd
  Cd318    1.0000 0.67411  0.01496  0.89603  Biso   1.000  Cd
  S492     1.0000 0.60401  0.07106  0.86970  Biso   1.000  S
  S493     1.0000 0.66216  0.05345  0.92338  Biso   1.000  S
  S494     1.0000 0.68429  0.10581  0.86930  Biso   1.000  S
  S495     1.0000 0.66453  0.04980  0.81284  Biso   1.000  S
  S496     1.0000 0.54554  0.08943  0.81685  Biso   1.000  S
  S497     1.0000 0.63561  0.99823  0.86749  Biso   1.000  S
  S498     1.0000 0.54239  0.09103  0.92642  Biso   1.000  S
  S499     1.0000 0.69013  0.10914  0.76721  Biso   1.000  S
  S500     1.0000 0.60703  0.07906  0.75834  Biso   1.000  S
  S501     1.0000 0.57843  0.02354  0.81476  Biso   1.000  S
  S502     1.0000 0.74772  0.08533  0.82331  Biso   1.000  S
  S503     1.0000 0.71768  0.03638  0.87614  Biso   1.000  S
  Cd319    1.0000 0.48135  0.06045  0.77404  Biso   1.000  Cd
  Cd320    1.0000 0.68875  0.99211  0.96802  Biso   1.000  Cd
  S504     1.0000 0.52764  0.04237  0.75537  Biso   1.000  S
  S505     1.0000 0.72359  0.02976  0.97369  Biso   1.000  S
  S506     1.0000 0.59002  0.02063  0.92458  Biso   1.000  S
  S507     1.0000 0.74641  0.08595  0.91949  Biso   1.000  S
  S508     1.0000 0.75776  0.14271  0.86368  Biso   1.000  S
  S509     1.0000 0.47958  0.11007  0.77151  Biso   1.000  S
  S510     1.0000 0.63874  0.00479  0.98175  Biso   1.000  S
  S511     1.0000 0.52789  0.03236  0.87500  Biso   1.000  S
  S512     1.0000 0.69273  0.97771  0.92238  Biso   1.000  S
  S513     1.0000 0.60690  0.08050  0.98162  Biso   1.000  S
  S514     1.0000 0.47210  0.04321  0.81713  Biso   1.000  S
  S515     1.0000 0.68370  0.10011  0.97629  Biso   1.000  S
  S516     1.0000 0.69488  0.94915  0.99018  Biso   1.000  S
  C2237    1.0000 0.56360  0.99840  0.94380  Biso   1.000  C
  C2238    1.0000 0.54510  0.97590  0.97910  Biso   1.000  C
  C2239    1.0000 0.56630  0.99110  0.96840  Biso   1.000  C
  C2240    1.0000 0.54850  0.01670  0.95660  Biso   1.000  C
  C2241    1.0000 0.49490  0.22960  0.95900  Biso   1.000  C
  C2242    1.0000 0.46990  0.23330  0.97330  Biso   1.000  C
  C2243    1.0000 0.44310  0.23870  0.96250  Biso   1.000  C
  C2244    1.0000 0.44150  0.24270  0.93690  Biso   1.000  C
  C2245    1.0000 0.46510  0.24010  0.92200  Biso   1.000  C
  C2246    1.0000 0.49120  0.23230  0.93300  Biso   1.000  C
  C2247    1.0000 0.76840  0.24040  0.81560  Biso   1.000  C
  C2248    1.0000 0.76730  0.25420  0.79320  Biso   1.000  C
  C2249    1.0000 0.76130  0.28210  0.79310  Biso   1.000  C
  C2250    1.0000 0.75750  0.29550  0.81330  Biso   1.000  C
  C2251    1.0000 0.75920  0.28060  0.83480  Biso   1.000  C
  C2252    1.0000 0.76540  0.25420  0.83590  Biso   1.000  C
  C2253    1.0000 0.66170  0.25440  0.79920  Biso   1.000  C
  C2254    1.0000 0.63520  0.26470  0.79670  Biso   1.000  C
  C2255    1.0000 0.62610  0.28960  0.78350  Biso   1.000  C
  C2256    1.0000 0.64810  0.30020  0.77110  Biso   1.000  C
  C2257    1.0000 0.67730  0.29380  0.77460  Biso   1.000  C
  C2258    1.0000 0.68390  0.27280  0.78950  Biso   1.000  C
  C2259    1.0000 0.47890  0.15290  0.94180  Biso   1.000  C
  C2260    1.0000 0.45600  0.17020  0.94750  Biso   1.000  C
  C2261    1.0000 0.43530  0.16130  0.96480  Biso   1.000  C
  C2262    1.0000 0.43640  0.13500  0.97650  Biso   1.000  C
  C2263    1.0000 0.46000  0.11910  0.97100  Biso   1.000  C
  C2264    1.0000 0.48130  0.12830  0.95260  Biso   1.000  C
  C2265    1.0000 0.50670  0.23540  0.86260  Biso   1.000  C
  C2266    1.0000 0.50970  0.26000  0.86850  Biso   1.000  C
  C2267    1.0000 0.48670  0.27800  0.85820  Biso   1.000  C
  C2268    1.0000 0.46480  0.26680  0.84150  Biso   1.000  C
  C2269    1.0000 0.45970  0.23930  0.84110  Biso   1.000  C
  C2270    1.0000 0.48160  0.22360  0.85600  Biso   1.000  C
  C2271    1.0000 0.49030  0.18660  0.80130  Biso   1.000  C
  C2272    1.0000 0.50560  0.20530  0.79160  Biso   1.000  C
  C2273    1.0000 0.49440  0.22410  0.77630  Biso   1.000  C
  C2274    1.0000 0.46500  0.22210  0.76710  Biso   1.000  C
  C2275    1.0000 0.44640  0.20350  0.77770  Biso   1.000  C
  C2276    1.0000 0.46030  0.18450  0.79590  Biso   1.000  C
  C2277    1.0000 0.54460  0.16540  0.74700  Biso   1.000  C
  C2278    1.0000 0.55840  0.18790  0.74160  Biso   1.000  C
  C2279    1.0000 0.54660  0.20640  0.72640  Biso   1.000  C
  C2280    1.0000 0.51960  0.20130  0.71460  Biso   1.000  C
  C2281    1.0000 0.50750  0.17810  0.71930  Biso   1.000  C
  C2282    1.0000 0.51690  0.16400  0.73700  Biso   1.000  C
  C2283    1.0000 0.59410  0.27400  0.84840  Biso   1.000  C
  C2284    1.0000 0.57250  0.26580  0.83300  Biso   1.000  C
  C2285    1.0000 0.55560  0.28360  0.81650  Biso   1.000  C
  C2286    1.0000 0.56370  0.31200  0.81890  Biso   1.000  C
  C2287    1.0000 0.58940  0.31860  0.83580  Biso   1.000  C
  C2288    1.0000 0.60270  0.29940  0.85250  Biso   1.000  C
  C2289    1.0000 0.58470  0.29730  0.91820  Biso   1.000  C
  C2290    1.0000 0.57200  0.32170  0.91170  Biso   1.000  C
  C2291    1.0000 0.59400  0.33910  0.90660  Biso   1.000  C
  C2292    1.0000 0.62190  0.33620  0.91390  Biso   1.000  C
  C2293    1.0000 0.63280  0.31360  0.91800  Biso   1.000  C
  C2294    1.0000 0.61260  0.29090  0.92130  Biso   1.000  C
  C2295    1.0000 0.53664  0.13717  0.99656  Biso   1.000  C
  C2296    1.0000 0.53030  0.11084  0.99650  Biso   1.000  C
  C2297    1.0000 0.50810  0.10133  0.01142  Biso   1.000  C
  C2298    1.0000 0.49230  0.11820  0.02641  Biso   1.000  C
  C2299    1.0000 0.49870  0.14450  0.02647  Biso   1.000  C
  C2300    1.0000 0.52082  0.15400  0.01155  Biso   1.000  C
  C2301    1.0000 0.60850  0.23469  0.01000  Biso   1.000  C
  C2302    1.0000 0.59130  0.21322  0.01490  Biso   1.000  C
  C2303    1.0000 0.58720  0.20491  0.03937  Biso   1.000  C
  C2304    1.0000 0.60030  0.21810  0.05900  Biso   1.000  C
  C2305    1.0000 0.61750  0.23950  0.05420  Biso   1.000  C
  C2306    1.0000 0.62170  0.24780  0.02970  Biso   1.000  C
  C2307    1.0000 0.67500  0.18861  0.99610  Biso   1.000  C
  C2308    1.0000 0.67230  0.19885  0.02010  Biso   1.000  C
  C2309    1.0000 0.69600  0.21032  0.03160  Biso   1.000  C
  C2310    1.0000 0.72230  0.21156  0.01920  Biso   1.000  C
  C2311    1.0000 0.72500  0.20133  0.99530  Biso   1.000  C
  C2312    1.0000 0.70130  0.18985  0.98370  Biso   1.000  C
  C2313    1.0000 0.45610  0.10180  0.87830  Biso   1.000  C
  C2314    1.0000 0.45860  0.12310  0.89410  Biso   1.000  C
  C2315    1.0000 0.43580  0.12980  0.90970  Biso   1.000  C
  C2316    1.0000 0.41070  0.11510  0.90970  Biso   1.000  C
  C2317    1.0000 0.40820  0.09380  0.89390  Biso   1.000  C
  C2318    1.0000 0.43100  0.08710  0.87830  Biso   1.000  C
  C2319    1.0000 0.63370  0.19830  0.73960  Biso   1.000  C
  C2320    1.0000 0.62440  0.22070  0.75170  Biso   1.000  C
  C2321    1.0000 0.61500  0.24280  0.73460  Biso   1.000  C
  C2322    1.0000 0.61710  0.24150  0.70920  Biso   1.000  C
  C2323    1.0000 0.62610  0.21900  0.69950  Biso   1.000  C
  C2324    1.0000 0.63700  0.19740  0.71460  Biso   1.000  C
  C2325    1.0000 0.72350  0.18940  0.72760  Biso   1.000  C
  C2326    1.0000 0.73570  0.20100  0.70720  Biso   1.000  C
  C2327    1.0000 0.73530  0.18770  0.68280  Biso   1.000  C
  C2328    1.0000 0.72430  0.16140  0.68100  Biso   1.000  C
  C2329    1.0000 0.71530  0.14830  0.70480  Biso   1.000  C
  C2330    1.0000 0.71370  0.16350  0.72610  Biso   1.000  C
  C2331    1.0000 0.75020  0.22100  0.89710  Biso   1.000  C
  C2332    1.0000 0.75900  0.24620  0.90230  Biso   1.000  C
  C2333    1.0000 0.78150  0.25060  0.91900  Biso   1.000  C
  C2334    1.0000 0.79520  0.22980  0.93040  Biso   1.000  C
  C2335    1.0000 0.78640  0.20460  0.92520  Biso   1.000  C
  C2336    1.0000 0.76400  0.20020  0.90850  Biso   1.000  C
  C2337    1.0000 0.80330  0.13030  0.78350  Biso   1.000  C
  C2338    1.0000 0.82550  0.12090  0.76700  Biso   1.000  C
  C2339    1.0000 0.85420  0.11450  0.77600  Biso   1.000  C
  C2340    1.0000 0.85890  0.11480  0.80420  Biso   1.000  C
  C2341    1.0000 0.83530  0.12550  0.82190  Biso   1.000  C
  C2342    1.0000 0.80850  0.13250  0.80960  Biso   1.000  C
  C2343    1.0000 0.58880  0.30990  0.00290  Biso   1.000  C
  C2344    1.0000 0.59470  0.30550  0.02960  Biso   1.000  C
  C2345    1.0000 0.62280  0.31290  0.03830  Biso   1.000  C
  C2346    1.0000 0.64320  0.32130  0.02260  Biso   1.000  C
  C2347    1.0000 0.63760  0.32660  0.99630  Biso   1.000  C
  C2348    1.0000 0.60970  0.31960  0.98570  Biso   1.000  C
  Cd321    1.0000 0.60641  0.16020  0.89600  Biso   1.000  Cd
  Cd322    1.0000 0.54925  0.18212  0.84200  Biso   1.000  Cd
  Cd323    1.0000 0.66414  0.14207  0.84326  Biso   1.000  Cd
  Cd324    1.0000 0.60245  0.16161  0.79000  Biso   1.000  Cd
  Cd325    1.0000 0.62675  0.21301  0.83957  Biso   1.000  Cd
  Cd326    1.0000 0.52657  0.12532  0.89709  Biso   1.000  Cd
  Cd327    1.0000 0.66788  0.13937  0.95043  Biso   1.000  Cd
  Cd328    1.0000 0.68306  0.19062  0.78403  Biso   1.000  Cd
  Cd329    1.0000 0.72996  0.12238  0.79745  Biso   1.000  Cd
  Cd330    1.0000 0.54319  0.18222  0.94641  Biso   1.000  Cd
  Cd331    1.0000 0.62619  0.20710  0.95529  Biso   1.000  Cd
  Cd332    1.0000 0.68458  0.19271  0.90045  Biso   1.000  Cd
  Cd333    1.0000 0.73966  0.18492  0.84424  Biso   1.000  Cd
  Cd334    1.0000 0.57589  0.23504  0.89603  Biso   1.000  Cd
  S517     1.0000 0.64599  0.17894  0.86970  Biso   1.000  S
  S518     1.0000 0.58784  0.19655  0.92338  Biso   1.000  S
  S519     1.0000 0.56571  0.14419  0.86930  Biso   1.000  S
  S520     1.0000 0.58547  0.20020  0.81284  Biso   1.000  S
  S521     1.0000 0.70446  0.16057  0.81685  Biso   1.000  S
  S522     1.0000 0.61439  0.25177  0.86749  Biso   1.000  S
  S523     1.0000 0.70761  0.15897  0.92642  Biso   1.000  S
  S524     1.0000 0.55987  0.14086  0.76721  Biso   1.000  S
  S525     1.0000 0.64297  0.17094  0.75834  Biso   1.000  S
  S526     1.0000 0.67157  0.22646  0.81476  Biso   1.000  S
  S527     1.0000 0.50228  0.16467  0.82331  Biso   1.000  S
  S528     1.0000 0.53232  0.21362  0.87614  Biso   1.000  S
  Cd335    1.0000 0.76865  0.18955  0.77404  Biso   1.000  Cd
  Cd336    1.0000 0.56125  0.25789  0.96802  Biso   1.000  Cd
  S529     1.0000 0.72236  0.20763  0.75537  Biso   1.000  S
  S530     1.0000 0.52641  0.22024  0.97369  Biso   1.000  S
  S531     1.0000 0.65998  0.22937  0.92458  Biso   1.000  S
  S532     1.0000 0.50359  0.16405  0.91949  Biso   1.000  S
  S533     1.0000 0.49224  0.10729  0.86368  Biso   1.000  S
  S534     1.0000 0.77042  0.13993  0.77151  Biso   1.000  S
  S535     1.0000 0.61126  0.24521  0.98175  Biso   1.000  S
  S536     1.0000 0.72211  0.21764  0.87500  Biso   1.000  S
  S537     1.0000 0.55727  0.27229  0.92238  Biso   1.000  S
  S538     1.0000 0.64310  0.16950  0.98162  Biso   1.000  S
  S539     1.0000 0.77790  0.20679  0.81713  Biso   1.000  S
  S540     1.0000 0.56630  0.14989  0.97629  Biso   1.000  S
  S541     1.0000 0.55512  0.30085  0.99018  Biso   1.000  S
  C2349    1.0000 0.68640  0.25160  0.94380  Biso   1.000  C
  C2350    1.0000 0.70490  0.27410  0.97910  Biso   1.000  C
  C2351    1.0000 0.68370  0.25890  0.96840  Biso   1.000  C
  C2352    1.0000 0.70150  0.23330  0.95660  Biso   1.000  C
  C2353    1.0000 0.49490  0.72960  0.45900  Biso   1.000  C
  C2354    1.0000 0.46990  0.73330  0.47330  Biso   1.000  C
  C2355    1.0000 0.44310  0.73870  0.46250  Biso   1.000  C
  C2356    1.0000 0.44150  0.74270  0.43690  Biso   1.000  C
  C2357    1.0000 0.46510  0.74010  0.42200  Biso   1.000  C
  C2358    1.0000 0.49120  0.73230  0.43300  Biso   1.000  C
  C2359    1.0000 0.76840  0.74040  0.31560  Biso   1.000  C
  C2360    1.0000 0.76730  0.75420  0.29320  Biso   1.000  C
  C2361    1.0000 0.76130  0.78210  0.29310  Biso   1.000  C
  C2362    1.0000 0.75750  0.79550  0.31330  Biso   1.000  C
  C2363    1.0000 0.75920  0.78060  0.33480  Biso   1.000  C
  C2364    1.0000 0.76540  0.75420  0.33590  Biso   1.000  C
  C2365    1.0000 0.66170  0.75440  0.29920  Biso   1.000  C
  C2366    1.0000 0.63520  0.76470  0.29670  Biso   1.000  C
  C2367    1.0000 0.62610  0.78960  0.28350  Biso   1.000  C
  C2368    1.0000 0.64810  0.80020  0.27110  Biso   1.000  C
  C2369    1.0000 0.67730  0.79380  0.27460  Biso   1.000  C
  C2370    1.0000 0.68390  0.77280  0.28950  Biso   1.000  C
  C2371    1.0000 0.47890  0.65290  0.44180  Biso   1.000  C
  C2372    1.0000 0.45600  0.67020  0.44750  Biso   1.000  C
  C2373    1.0000 0.43530  0.66130  0.46480  Biso   1.000  C
  C2374    1.0000 0.43640  0.63500  0.47650  Biso   1.000  C
  C2375    1.0000 0.46000  0.61910  0.47100  Biso   1.000  C
  C2376    1.0000 0.48130  0.62830  0.45260  Biso   1.000  C
  C2377    1.0000 0.50670  0.73540  0.36260  Biso   1.000  C
  C2378    1.0000 0.50970  0.76000  0.36850  Biso   1.000  C
  C2379    1.0000 0.48670  0.77800  0.35820  Biso   1.000  C
  C2380    1.0000 0.46480  0.76680  0.34150  Biso   1.000  C
  C2381    1.0000 0.45970  0.73930  0.34110  Biso   1.000  C
  C2382    1.0000 0.48160  0.72360  0.35600  Biso   1.000  C
  C2383    1.0000 0.49030  0.68660  0.30130  Biso   1.000  C
  C2384    1.0000 0.50560  0.70530  0.29160  Biso   1.000  C
  C2385    1.0000 0.49440  0.72410  0.27630  Biso   1.000  C
  C2386    1.0000 0.46500  0.72210  0.26710  Biso   1.000  C
  C2387    1.0000 0.44640  0.70350  0.27770  Biso   1.000  C
  C2388    1.0000 0.46030  0.68450  0.29590  Biso   1.000  C
  C2389    1.0000 0.54460  0.66540  0.24700  Biso   1.000  C
  C2390    1.0000 0.55840  0.68790  0.24160  Biso   1.000  C
  C2391    1.0000 0.54660  0.70640  0.22640  Biso   1.000  C
  C2392    1.0000 0.51960  0.70130  0.21460  Biso   1.000  C
  C2393    1.0000 0.50750  0.67810  0.21930  Biso   1.000  C
  C2394    1.0000 0.51690  0.66400  0.23700  Biso   1.000  C
  C2395    1.0000 0.59410  0.77400  0.34840  Biso   1.000  C
  C2396    1.0000 0.57250  0.76580  0.33300  Biso   1.000  C
  C2397    1.0000 0.55560  0.78360  0.31650  Biso   1.000  C
  C2398    1.0000 0.56370  0.81200  0.31890  Biso   1.000  C
  C2399    1.0000 0.58940  0.81860  0.33580  Biso   1.000  C
  C2400    1.0000 0.60270  0.79940  0.35250  Biso   1.000  C
  C2401    1.0000 0.58470  0.79730  0.41820  Biso   1.000  C
  C2402    1.0000 0.57200  0.82170  0.41170  Biso   1.000  C
  C2403    1.0000 0.59400  0.83910  0.40660  Biso   1.000  C
  C2404    1.0000 0.62190  0.83620  0.41390  Biso   1.000  C
  C2405    1.0000 0.63280  0.81360  0.41800  Biso   1.000  C
  C2406    1.0000 0.61260  0.79090  0.42130  Biso   1.000  C
  C2407    1.0000 0.53664  0.63717  0.49656  Biso   1.000  C
  C2408    1.0000 0.53030  0.61084  0.49650  Biso   1.000  C
  C2409    1.0000 0.50810  0.60133  0.51142  Biso   1.000  C
  C2410    1.0000 0.49230  0.61820  0.52641  Biso   1.000  C
  C2411    1.0000 0.49870  0.64450  0.52647  Biso   1.000  C
  C2412    1.0000 0.52082  0.65400  0.51155  Biso   1.000  C
  C2413    1.0000 0.60850  0.73469  0.51000  Biso   1.000  C
  C2414    1.0000 0.59130  0.71322  0.51490  Biso   1.000  C
  C2415    1.0000 0.58720  0.70491  0.53937  Biso   1.000  C
  C2416    1.0000 0.60030  0.71810  0.55900  Biso   1.000  C
  C2417    1.0000 0.61750  0.73950  0.55420  Biso   1.000  C
  C2418    1.0000 0.62170  0.74780  0.52970  Biso   1.000  C
  C2419    1.0000 0.67500  0.68861  0.49610  Biso   1.000  C
  C2420    1.0000 0.67230  0.69885  0.52010  Biso   1.000  C
  C2421    1.0000 0.69600  0.71032  0.53160  Biso   1.000  C
  C2422    1.0000 0.72230  0.71156  0.51920  Biso   1.000  C
  C2423    1.0000 0.72500  0.70133  0.49530  Biso   1.000  C
  C2424    1.0000 0.70130  0.68985  0.48370  Biso   1.000  C
  C2425    1.0000 0.45610  0.60180  0.37830  Biso   1.000  C
  C2426    1.0000 0.45860  0.62310  0.39410  Biso   1.000  C
  C2427    1.0000 0.43580  0.62980  0.40970  Biso   1.000  C
  C2428    1.0000 0.41070  0.61510  0.40970  Biso   1.000  C
  C2429    1.0000 0.40820  0.59380  0.39390  Biso   1.000  C
  C2430    1.0000 0.43100  0.58710  0.37830  Biso   1.000  C
  C2431    1.0000 0.63370  0.69830  0.23960  Biso   1.000  C
  C2432    1.0000 0.62440  0.72070  0.25170  Biso   1.000  C
  C2433    1.0000 0.61500  0.74280  0.23460  Biso   1.000  C
  C2434    1.0000 0.61710  0.74150  0.20920  Biso   1.000  C
  C2435    1.0000 0.62610  0.71900  0.19950  Biso   1.000  C
  C2436    1.0000 0.63700  0.69740  0.21460  Biso   1.000  C
  C2437    1.0000 0.72350  0.68940  0.22760  Biso   1.000  C
  C2438    1.0000 0.73570  0.70100  0.20720  Biso   1.000  C
  C2439    1.0000 0.73530  0.68770  0.18280  Biso   1.000  C
  C2440    1.0000 0.72430  0.66140  0.18100  Biso   1.000  C
  C2441    1.0000 0.71530  0.64830  0.20480  Biso   1.000  C
  C2442    1.0000 0.71370  0.66350  0.22610  Biso   1.000  C
  C2443    1.0000 0.75020  0.72100  0.39710  Biso   1.000  C
  C2444    1.0000 0.75900  0.74620  0.40230  Biso   1.000  C
  C2445    1.0000 0.78150  0.75060  0.41900  Biso   1.000  C
  C2446    1.0000 0.79520  0.72980  0.43040  Biso   1.000  C
  C2447    1.0000 0.78640  0.70460  0.42520  Biso   1.000  C
  C2448    1.0000 0.76400  0.70020  0.40850  Biso   1.000  C
  C2449    1.0000 0.80330  0.63030  0.28350  Biso   1.000  C
  C2450    1.0000 0.82550  0.62090  0.26700  Biso   1.000  C
  C2451    1.0000 0.85420  0.61450  0.27600  Biso   1.000  C
  C2452    1.0000 0.85890  0.61480  0.30420  Biso   1.000  C
  C2453    1.0000 0.83530  0.62550  0.32190  Biso   1.000  C
  C2454    1.0000 0.80850  0.63250  0.30960  Biso   1.000  C
  C2455    1.0000 0.58880  0.80990  0.50290  Biso   1.000  C
  C2456    1.0000 0.59470  0.80550  0.52960  Biso   1.000  C
  C2457    1.0000 0.62280  0.81290  0.53830  Biso   1.000  C
  C2458    1.0000 0.64320  0.82130  0.52260  Biso   1.000  C
  C2459    1.0000 0.63760  0.82660  0.49630  Biso   1.000  C
  C2460    1.0000 0.60970  0.81960  0.48570  Biso   1.000  C
  Cd337    1.0000 0.60641  0.66020  0.39600  Biso   1.000  Cd
  Cd338    1.0000 0.54925  0.68212  0.34200  Biso   1.000  Cd
  Cd339    1.0000 0.66414  0.64207  0.34326  Biso   1.000  Cd
  Cd340    1.0000 0.60245  0.66161  0.29000  Biso   1.000  Cd
  Cd341    1.0000 0.62675  0.71301  0.33957  Biso   1.000  Cd
  Cd342    1.0000 0.52657  0.62532  0.39709  Biso   1.000  Cd
  Cd343    1.0000 0.66788  0.63937  0.45043  Biso   1.000  Cd
  Cd344    1.0000 0.68306  0.69062  0.28403  Biso   1.000  Cd
  Cd345    1.0000 0.72996  0.62238  0.29745  Biso   1.000  Cd
  Cd346    1.0000 0.54319  0.68222  0.44641  Biso   1.000  Cd
  Cd347    1.0000 0.62619  0.70710  0.45529  Biso   1.000  Cd
  Cd348    1.0000 0.68458  0.69271  0.40045  Biso   1.000  Cd
  Cd349    1.0000 0.73966  0.68492  0.34424  Biso   1.000  Cd
  Cd350    1.0000 0.57589  0.73504  0.39603  Biso   1.000  Cd
  S542     1.0000 0.64599  0.67894  0.36970  Biso   1.000  S
  S543     1.0000 0.58784  0.69655  0.42338  Biso   1.000  S
  S544     1.0000 0.56571  0.64419  0.36930  Biso   1.000  S
  S545     1.0000 0.58547  0.70020  0.31284  Biso   1.000  S
  S546     1.0000 0.70446  0.66057  0.31685  Biso   1.000  S
  S547     1.0000 0.61439  0.75177  0.36749  Biso   1.000  S
  S548     1.0000 0.70761  0.65897  0.42642  Biso   1.000  S
  S549     1.0000 0.55987  0.64086  0.26721  Biso   1.000  S
  S550     1.0000 0.64297  0.67094  0.25834  Biso   1.000  S
  S551     1.0000 0.67157  0.72646  0.31476  Biso   1.000  S
  S552     1.0000 0.50228  0.66467  0.32331  Biso   1.000  S
  S553     1.0000 0.53232  0.71362  0.37614  Biso   1.000  S
  Cd351    1.0000 0.76865  0.68955  0.27404  Biso   1.000  Cd
  Cd352    1.0000 0.56125  0.75789  0.46802  Biso   1.000  Cd
  S554     1.0000 0.72236  0.70763  0.25537  Biso   1.000  S
  S555     1.0000 0.52641  0.72024  0.47369  Biso   1.000  S
  S556     1.0000 0.65998  0.72937  0.42458  Biso   1.000  S
  S557     1.0000 0.50359  0.66405  0.41949  Biso   1.000  S
  S558     1.0000 0.49224  0.60729  0.36368  Biso   1.000  S
  S559     1.0000 0.77042  0.63993  0.27151  Biso   1.000  S
  S560     1.0000 0.61126  0.74521  0.48175  Biso   1.000  S
  S561     1.0000 0.72211  0.71764  0.37500  Biso   1.000  S
  S562     1.0000 0.55727  0.77229  0.42238  Biso   1.000  S
  S563     1.0000 0.64310  0.66950  0.48162  Biso   1.000  S
  S564     1.0000 0.77790  0.70679  0.31713  Biso   1.000  S
  S565     1.0000 0.56630  0.64989  0.47629  Biso   1.000  S
  S566     1.0000 0.55512  0.80085  0.49018  Biso   1.000  S
  C2461    1.0000 0.68640  0.75160  0.44380  Biso   1.000  C
  C2462    1.0000 0.70490  0.77410  0.47910  Biso   1.000  C
  C2463    1.0000 0.68370  0.75890  0.46840  Biso   1.000  C
  C2464    1.0000 0.70150  0.73330  0.45660  Biso   1.000  C
  C2465    1.0000 0.99490  0.22960  0.45900  Biso   1.000  C
  C2466    1.0000 0.96990  0.23330  0.47330  Biso   1.000  C
  C2467    1.0000 0.94310  0.23870  0.46250  Biso   1.000  C
  C2468    1.0000 0.94150  0.24270  0.43690  Biso   1.000  C
  C2469    1.0000 0.96510  0.24010  0.42200  Biso   1.000  C
  C2470    1.0000 0.99120  0.23230  0.43300  Biso   1.000  C
  C2471    1.0000 0.26840  0.24040  0.31560  Biso   1.000  C
  C2472    1.0000 0.26730  0.25420  0.29320  Biso   1.000  C
  C2473    1.0000 0.26130  0.28210  0.29310  Biso   1.000  C
  C2474    1.0000 0.25750  0.29550  0.31330  Biso   1.000  C
  C2475    1.0000 0.25920  0.28060  0.33480  Biso   1.000  C
  C2476    1.0000 0.26540  0.25420  0.33590  Biso   1.000  C
  C2477    1.0000 0.16170  0.25440  0.29920  Biso   1.000  C
  C2478    1.0000 0.13520  0.26470  0.29670  Biso   1.000  C
  C2479    1.0000 0.12610  0.28960  0.28350  Biso   1.000  C
  C2480    1.0000 0.14810  0.30020  0.27110  Biso   1.000  C
  C2481    1.0000 0.17730  0.29380  0.27460  Biso   1.000  C
  C2482    1.0000 0.18390  0.27280  0.28950  Biso   1.000  C
  C2483    1.0000 0.97890  0.15290  0.44180  Biso   1.000  C
  C2484    1.0000 0.95600  0.17020  0.44750  Biso   1.000  C
  C2485    1.0000 0.93530  0.16130  0.46480  Biso   1.000  C
  C2486    1.0000 0.93640  0.13500  0.47650  Biso   1.000  C
  C2487    1.0000 0.96000  0.11910  0.47100  Biso   1.000  C
  C2488    1.0000 0.98130  0.12830  0.45260  Biso   1.000  C
  C2489    1.0000 0.00670  0.23540  0.36260  Biso   1.000  C
  C2490    1.0000 0.00970  0.26000  0.36850  Biso   1.000  C
  C2491    1.0000 0.98670  0.27800  0.35820  Biso   1.000  C
  C2492    1.0000 0.96480  0.26680  0.34150  Biso   1.000  C
  C2493    1.0000 0.95970  0.23930  0.34110  Biso   1.000  C
  C2494    1.0000 0.98160  0.22360  0.35600  Biso   1.000  C
  C2495    1.0000 0.99030  0.18660  0.30130  Biso   1.000  C
  C2496    1.0000 0.00560  0.20530  0.29160  Biso   1.000  C
  C2497    1.0000 0.99440  0.22410  0.27630  Biso   1.000  C
  C2498    1.0000 0.96500  0.22210  0.26710  Biso   1.000  C
  C2499    1.0000 0.94640  0.20350  0.27770  Biso   1.000  C
  C2500    1.0000 0.96030  0.18450  0.29590  Biso   1.000  C
  C2501    1.0000 0.04460  0.16540  0.24700  Biso   1.000  C
  C2502    1.0000 0.05840  0.18790  0.24160  Biso   1.000  C
  C2503    1.0000 0.04660  0.20640  0.22640  Biso   1.000  C
  C2504    1.0000 0.01960  0.20130  0.21460  Biso   1.000  C
  C2505    1.0000 0.00750  0.17810  0.21930  Biso   1.000  C
  C2506    1.0000 0.01690  0.16400  0.23700  Biso   1.000  C
  C2507    1.0000 0.09410  0.27400  0.34840  Biso   1.000  C
  C2508    1.0000 0.07250  0.26580  0.33300  Biso   1.000  C
  C2509    1.0000 0.05560  0.28360  0.31650  Biso   1.000  C
  C2510    1.0000 0.06370  0.31200  0.31890  Biso   1.000  C
  C2511    1.0000 0.08940  0.31860  0.33580  Biso   1.000  C
  C2512    1.0000 0.10270  0.29940  0.35250  Biso   1.000  C
  C2513    1.0000 0.08470  0.29730  0.41820  Biso   1.000  C
  C2514    1.0000 0.07200  0.32170  0.41170  Biso   1.000  C
  C2515    1.0000 0.09400  0.33910  0.40660  Biso   1.000  C
  C2516    1.0000 0.12190  0.33620  0.41390  Biso   1.000  C
  C2517    1.0000 0.13280  0.31360  0.41800  Biso   1.000  C
  C2518    1.0000 0.11260  0.29090  0.42130  Biso   1.000  C
  C2519    1.0000 0.03664  0.13717  0.49656  Biso   1.000  C
  C2520    1.0000 0.03030  0.11084  0.49650  Biso   1.000  C
  C2521    1.0000 0.00810  0.10133  0.51142  Biso   1.000  C
  C2522    1.0000 0.99230  0.11820  0.52641  Biso   1.000  C
  C2523    1.0000 0.99870  0.14450  0.52647  Biso   1.000  C
  C2524    1.0000 0.02082  0.15400  0.51155  Biso   1.000  C
  C2525    1.0000 0.10850  0.23469  0.51000  Biso   1.000  C
  C2526    1.0000 0.09130  0.21322  0.51490  Biso   1.000  C
  C2527    1.0000 0.08720  0.20491  0.53937  Biso   1.000  C
  C2528    1.0000 0.10030  0.21810  0.55900  Biso   1.000  C
  C2529    1.0000 0.11750  0.23950  0.55420  Biso   1.000  C
  C2530    1.0000 0.12170  0.24780  0.52970  Biso   1.000  C
  C2531    1.0000 0.17500  0.18861  0.49610  Biso   1.000  C
  C2532    1.0000 0.17230  0.19885  0.52010  Biso   1.000  C
  C2533    1.0000 0.19600  0.21032  0.53160  Biso   1.000  C
  C2534    1.0000 0.22230  0.21156  0.51920  Biso   1.000  C
  C2535    1.0000 0.22500  0.20133  0.49530  Biso   1.000  C
  C2536    1.0000 0.20130  0.18985  0.48370  Biso   1.000  C
  C2537    1.0000 0.95610  0.10180  0.37830  Biso   1.000  C
  C2538    1.0000 0.95860  0.12310  0.39410  Biso   1.000  C
  C2539    1.0000 0.93580  0.12980  0.40970  Biso   1.000  C
  C2540    1.0000 0.91070  0.11510  0.40970  Biso   1.000  C
  C2541    1.0000 0.90820  0.09380  0.39390  Biso   1.000  C
  C2542    1.0000 0.93100  0.08710  0.37830  Biso   1.000  C
  C2543    1.0000 0.13370  0.19830  0.23960  Biso   1.000  C
  C2544    1.0000 0.12440  0.22070  0.25170  Biso   1.000  C
  C2545    1.0000 0.11500  0.24280  0.23460  Biso   1.000  C
  C2546    1.0000 0.11710  0.24150  0.20920  Biso   1.000  C
  C2547    1.0000 0.12610  0.21900  0.19950  Biso   1.000  C
  C2548    1.0000 0.13700  0.19740  0.21460  Biso   1.000  C
  C2549    1.0000 0.22350  0.18940  0.22760  Biso   1.000  C
  C2550    1.0000 0.23570  0.20100  0.20720  Biso   1.000  C
  C2551    1.0000 0.23530  0.18770  0.18280  Biso   1.000  C
  C2552    1.0000 0.22430  0.16140  0.18100  Biso   1.000  C
  C2553    1.0000 0.21530  0.14830  0.20480  Biso   1.000  C
  C2554    1.0000 0.21370  0.16350  0.22610  Biso   1.000  C
  C2555    1.0000 0.25020  0.22100  0.39710  Biso   1.000  C
  C2556    1.0000 0.25900  0.24620  0.40230  Biso   1.000  C
  C2557    1.0000 0.28150  0.25060  0.41900  Biso   1.000  C
  C2558    1.0000 0.29520  0.22980  0.43040  Biso   1.000  C
  C2559    1.0000 0.28640  0.20460  0.42520  Biso   1.000  C
  C2560    1.0000 0.26400  0.20020  0.40850  Biso   1.000  C
  C2561    1.0000 0.30330  0.13030  0.28350  Biso   1.000  C
  C2562    1.0000 0.32550  0.12090  0.26700  Biso   1.000  C
  C2563    1.0000 0.35420  0.11450  0.27600  Biso   1.000  C
  C2564    1.0000 0.35890  0.11480  0.30420  Biso   1.000  C
  C2565    1.0000 0.33530  0.12550  0.32190  Biso   1.000  C
  C2566    1.0000 0.30850  0.13250  0.30960  Biso   1.000  C
  C2567    1.0000 0.08880  0.30990  0.50290  Biso   1.000  C
  C2568    1.0000 0.09470  0.30550  0.52960  Biso   1.000  C
  C2569    1.0000 0.12280  0.31290  0.53830  Biso   1.000  C
  C2570    1.0000 0.14320  0.32130  0.52260  Biso   1.000  C
  C2571    1.0000 0.13760  0.32660  0.49630  Biso   1.000  C
  C2572    1.0000 0.10970  0.31960  0.48570  Biso   1.000  C
  Cd353    1.0000 0.10641  0.16020  0.39600  Biso   1.000  Cd
  Cd354    1.0000 0.04925  0.18212  0.34200  Biso   1.000  Cd
  Cd355    1.0000 0.16414  0.14207  0.34326  Biso   1.000  Cd
  Cd356    1.0000 0.10245  0.16161  0.29000  Biso   1.000  Cd
  Cd357    1.0000 0.12675  0.21301  0.33957  Biso   1.000  Cd
  Cd358    1.0000 0.02657  0.12532  0.39709  Biso   1.000  Cd
  Cd359    1.0000 0.16788  0.13937  0.45043  Biso   1.000  Cd
  Cd360    1.0000 0.18306  0.19062  0.28403  Biso   1.000  Cd
  Cd361    1.0000 0.22996  0.12238  0.29745  Biso   1.000  Cd
  Cd362    1.0000 0.04319  0.18222  0.44641  Biso   1.000  Cd
  Cd363    1.0000 0.12619  0.20710  0.45529  Biso   1.000  Cd
  Cd364    1.0000 0.18458  0.19271  0.40045  Biso   1.000  Cd
  Cd365    1.0000 0.23966  0.18492  0.34424  Biso   1.000  Cd
  Cd366    1.0000 0.07589  0.23504  0.39603  Biso   1.000  Cd
  S567     1.0000 0.14599  0.17894  0.36970  Biso   1.000  S
  S568     1.0000 0.08784  0.19655  0.42338  Biso   1.000  S
  S569     1.0000 0.06571  0.14419  0.36930  Biso   1.000  S
  S570     1.0000 0.08547  0.20020  0.31284  Biso   1.000  S
  S571     1.0000 0.20446  0.16057  0.31685  Biso   1.000  S
  S572     1.0000 0.11439  0.25177  0.36749  Biso   1.000  S
  S573     1.0000 0.20761  0.15897  0.42642  Biso   1.000  S
  S574     1.0000 0.05987  0.14086  0.26721  Biso   1.000  S
  S575     1.0000 0.14297  0.17094  0.25834  Biso   1.000  S
  S576     1.0000 0.17157  0.22646  0.31476  Biso   1.000  S
  S577     1.0000 0.00228  0.16467  0.32331  Biso   1.000  S
  S578     1.0000 0.03232  0.21362  0.37614  Biso   1.000  S
  Cd367    1.0000 0.26865  0.18955  0.27404  Biso   1.000  Cd
  Cd368    1.0000 0.06125  0.25789  0.46802  Biso   1.000  Cd
  S579     1.0000 0.22236  0.20763  0.25537  Biso   1.000  S
  S580     1.0000 0.02641  0.22024  0.47369  Biso   1.000  S
  S581     1.0000 0.15998  0.22937  0.42458  Biso   1.000  S
  S582     1.0000 0.00359  0.16405  0.41949  Biso   1.000  S
  S583     1.0000 0.99224  0.10729  0.36368  Biso   1.000  S
  S584     1.0000 0.27042  0.13993  0.27151  Biso   1.000  S
  S585     1.0000 0.11126  0.24521  0.48175  Biso   1.000  S
  S586     1.0000 0.22211  0.21764  0.37500  Biso   1.000  S
  S587     1.0000 0.05727  0.27229  0.42238  Biso   1.000  S
  S588     1.0000 0.14310  0.16950  0.48162  Biso   1.000  S
  S589     1.0000 0.27790  0.20679  0.31713  Biso   1.000  S
  S590     1.0000 0.06630  0.14989  0.47629  Biso   1.000  S
  S591     1.0000 0.05512  0.30085  0.49018  Biso   1.000  S
  C2573    1.0000 0.18640  0.25160  0.44380  Biso   1.000  C
  C2574    1.0000 0.20490  0.27410  0.47910  Biso   1.000  C
  C2575    1.0000 0.18370  0.25890  0.46840  Biso   1.000  C
  C2576    1.0000 0.20150  0.23330  0.45660  Biso   1.000  C
  C2577    1.0000 0.99490  0.72960  0.95900  Biso   1.000  C
  C2578    1.0000 0.96990  0.73330  0.97330  Biso   1.000  C
  C2579    1.0000 0.94310  0.73870  0.96250  Biso   1.000  C
  C2580    1.0000 0.94150  0.74270  0.93690  Biso   1.000  C
  C2581    1.0000 0.96510  0.74010  0.92200  Biso   1.000  C
  C2582    1.0000 0.99120  0.73230  0.93300  Biso   1.000  C
  C2583    1.0000 0.26840  0.74040  0.81560  Biso   1.000  C
  C2584    1.0000 0.26730  0.75420  0.79320  Biso   1.000  C
  C2585    1.0000 0.26130  0.78210  0.79310  Biso   1.000  C
  C2586    1.0000 0.25750  0.79550  0.81330  Biso   1.000  C
  C2587    1.0000 0.25920  0.78060  0.83480  Biso   1.000  C
  C2588    1.0000 0.26540  0.75420  0.83590  Biso   1.000  C
  C2589    1.0000 0.16170  0.75440  0.79920  Biso   1.000  C
  C2590    1.0000 0.13520  0.76470  0.79670  Biso   1.000  C
  C2591    1.0000 0.12610  0.78960  0.78350  Biso   1.000  C
  C2592    1.0000 0.14810  0.80020  0.77110  Biso   1.000  C
  C2593    1.0000 0.17730  0.79380  0.77460  Biso   1.000  C
  C2594    1.0000 0.18390  0.77280  0.78950  Biso   1.000  C
  C2595    1.0000 0.97890  0.65290  0.94180  Biso   1.000  C
  C2596    1.0000 0.95600  0.67020  0.94750  Biso   1.000  C
  C2597    1.0000 0.93530  0.66130  0.96480  Biso   1.000  C
  C2598    1.0000 0.93640  0.63500  0.97650  Biso   1.000  C
  C2599    1.0000 0.96000  0.61910  0.97100  Biso   1.000  C
  C2600    1.0000 0.98130  0.62830  0.95260  Biso   1.000  C
  C2601    1.0000 0.00670  0.73540  0.86260  Biso   1.000  C
  C2602    1.0000 0.00970  0.76000  0.86850  Biso   1.000  C
  C2603    1.0000 0.98670  0.77800  0.85820  Biso   1.000  C
  C2604    1.0000 0.96480  0.76680  0.84150  Biso   1.000  C
  C2605    1.0000 0.95970  0.73930  0.84110  Biso   1.000  C
  C2606    1.0000 0.98160  0.72360  0.85600  Biso   1.000  C
  C2607    1.0000 0.99030  0.68660  0.80130  Biso   1.000  C
  C2608    1.0000 0.00560  0.70530  0.79160  Biso   1.000  C
  C2609    1.0000 0.99440  0.72410  0.77630  Biso   1.000  C
  C2610    1.0000 0.96500  0.72210  0.76710  Biso   1.000  C
  C2611    1.0000 0.94640  0.70350  0.77770  Biso   1.000  C
  C2612    1.0000 0.96030  0.68450  0.79590  Biso   1.000  C
  C2613    1.0000 0.04460  0.66540  0.74700  Biso   1.000  C
  C2614    1.0000 0.05840  0.68790  0.74160  Biso   1.000  C
  C2615    1.0000 0.04660  0.70640  0.72640  Biso   1.000  C
  C2616    1.0000 0.01960  0.70130  0.71460  Biso   1.000  C
  C2617    1.0000 0.00750  0.67810  0.71930  Biso   1.000  C
  C2618    1.0000 0.01690  0.66400  0.73700  Biso   1.000  C
  C2619    1.0000 0.09410  0.77400  0.84840  Biso   1.000  C
  C2620    1.0000 0.07250  0.76580  0.83300  Biso   1.000  C
  C2621    1.0000 0.05560  0.78360  0.81650  Biso   1.000  C
  C2622    1.0000 0.06370  0.81200  0.81890  Biso   1.000  C
  C2623    1.0000 0.08940  0.81860  0.83580  Biso   1.000  C
  C2624    1.0000 0.10270  0.79940  0.85250  Biso   1.000  C
  C2625    1.0000 0.08470  0.79730  0.91820  Biso   1.000  C
  C2626    1.0000 0.07200  0.82170  0.91170  Biso   1.000  C
  C2627    1.0000 0.09400  0.83910  0.90660  Biso   1.000  C
  C2628    1.0000 0.12190  0.83620  0.91390  Biso   1.000  C
  C2629    1.0000 0.13280  0.81360  0.91800  Biso   1.000  C
  C2630    1.0000 0.11260  0.79090  0.92130  Biso   1.000  C
  C2631    1.0000 0.03664  0.63717  0.99656  Biso   1.000  C
  C2632    1.0000 0.03030  0.61084  0.99650  Biso   1.000  C
  C2633    1.0000 0.00810  0.60133  0.01142  Biso   1.000  C
  C2634    1.0000 0.99230  0.61820  0.02641  Biso   1.000  C
  C2635    1.0000 0.99870  0.64450  0.02647  Biso   1.000  C
  C2636    1.0000 0.02082  0.65400  0.01155  Biso   1.000  C
  C2637    1.0000 0.10850  0.73469  0.01000  Biso   1.000  C
  C2638    1.0000 0.09130  0.71322  0.01490  Biso   1.000  C
  C2639    1.0000 0.08720  0.70491  0.03937  Biso   1.000  C
  C2640    1.0000 0.10030  0.71810  0.05900  Biso   1.000  C
  C2641    1.0000 0.11750  0.73950  0.05420  Biso   1.000  C
  C2642    1.0000 0.12170  0.74780  0.02970  Biso   1.000  C
  C2643    1.0000 0.17500  0.68861  0.99610  Biso   1.000  C
  C2644    1.0000 0.17230  0.69885  0.02010  Biso   1.000  C
  C2645    1.0000 0.19600  0.71032  0.03160  Biso   1.000  C
  C2646    1.0000 0.22230  0.71156  0.01920  Biso   1.000  C
  C2647    1.0000 0.22500  0.70133  0.99530  Biso   1.000  C
  C2648    1.0000 0.20130  0.68985  0.98370  Biso   1.000  C
  C2649    1.0000 0.95610  0.60180  0.87830  Biso   1.000  C
  C2650    1.0000 0.95860  0.62310  0.89410  Biso   1.000  C
  C2651    1.0000 0.93580  0.62980  0.90970  Biso   1.000  C
  C2652    1.0000 0.91070  0.61510  0.90970  Biso   1.000  C
  C2653    1.0000 0.90820  0.59380  0.89390  Biso   1.000  C
  C2654    1.0000 0.93100  0.58710  0.87830  Biso   1.000  C
  C2655    1.0000 0.13370  0.69830  0.73960  Biso   1.000  C
  C2656    1.0000 0.12440  0.72070  0.75170  Biso   1.000  C
  C2657    1.0000 0.11500  0.74280  0.73460  Biso   1.000  C
  C2658    1.0000 0.11710  0.74150  0.70920  Biso   1.000  C
  C2659    1.0000 0.12610  0.71900  0.69950  Biso   1.000  C
  C2660    1.0000 0.13700  0.69740  0.71460  Biso   1.000  C
  C2661    1.0000 0.22350  0.68940  0.72760  Biso   1.000  C
  C2662    1.0000 0.23570  0.70100  0.70720  Biso   1.000  C
  C2663    1.0000 0.23530  0.68770  0.68280  Biso   1.000  C
  C2664    1.0000 0.22430  0.66140  0.68100  Biso   1.000  C
  C2665    1.0000 0.21530  0.64830  0.70480  Biso   1.000  C
  C2666    1.0000 0.21370  0.66350  0.72610  Biso   1.000  C
  C2667    1.0000 0.25020  0.72100  0.89710  Biso   1.000  C
  C2668    1.0000 0.25900  0.74620  0.90230  Biso   1.000  C
  C2669    1.0000 0.28150  0.75060  0.91900  Biso   1.000  C
  C2670    1.0000 0.29520  0.72980  0.93040  Biso   1.000  C
  C2671    1.0000 0.28640  0.70460  0.92520  Biso   1.000  C
  C2672    1.0000 0.26400  0.70020  0.90850  Biso   1.000  C
  C2673    1.0000 0.30330  0.63030  0.78350  Biso   1.000  C
  C2674    1.0000 0.32550  0.62090  0.76700  Biso   1.000  C
  C2675    1.0000 0.35420  0.61450  0.77600  Biso   1.000  C
  C2676    1.0000 0.35890  0.61480  0.80420  Biso   1.000  C
  C2677    1.0000 0.33530  0.62550  0.82190  Biso   1.000  C
  C2678    1.0000 0.30850  0.63250  0.80960  Biso   1.000  C
  C2679    1.0000 0.08880  0.80990  0.00290  Biso   1.000  C
  C2680    1.0000 0.09470  0.80550  0.02960  Biso   1.000  C
  C2681    1.0000 0.12280  0.81290  0.03830  Biso   1.000  C
  C2682    1.0000 0.14320  0.82130  0.02260  Biso   1.000  C
  C2683    1.0000 0.13760  0.82660  0.99630  Biso   1.000  C
  C2684    1.0000 0.10970  0.81960  0.98570  Biso   1.000  C
  Cd369    1.0000 0.10641  0.66020  0.89600  Biso   1.000  Cd
  Cd370    1.0000 0.04925  0.68212  0.84200  Biso   1.000  Cd
  Cd371    1.0000 0.16414  0.64207  0.84326  Biso   1.000  Cd
  Cd372    1.0000 0.10245  0.66161  0.79000  Biso   1.000  Cd
  Cd373    1.0000 0.12675  0.71301  0.83957  Biso   1.000  Cd
  Cd374    1.0000 0.02657  0.62532  0.89709  Biso   1.000  Cd
  Cd375    1.0000 0.16788  0.63937  0.95043  Biso   1.000  Cd
  Cd376    1.0000 0.18306  0.69062  0.78403  Biso   1.000  Cd
  Cd377    1.0000 0.22996  0.62238  0.79745  Biso   1.000  Cd
  Cd378    1.0000 0.04319  0.68222  0.94641  Biso   1.000  Cd
  Cd379    1.0000 0.12619  0.70710  0.95529  Biso   1.000  Cd
  Cd380    1.0000 0.18458  0.69271  0.90045  Biso   1.000  Cd
  Cd381    1.0000 0.23966  0.68492  0.84424  Biso   1.000  Cd
  Cd382    1.0000 0.07589  0.73504  0.89603  Biso   1.000  Cd
  S592     1.0000 0.14599  0.67894  0.86970  Biso   1.000  S
  S593     1.0000 0.08784  0.69655  0.92338  Biso   1.000  S
  S594     1.0000 0.06571  0.64419  0.86930  Biso   1.000  S
  S595     1.0000 0.08547  0.70020  0.81284  Biso   1.000  S
  S596     1.0000 0.20446  0.66057  0.81685  Biso   1.000  S
  S597     1.0000 0.11439  0.75177  0.86749  Biso   1.000  S
  S598     1.0000 0.20761  0.65897  0.92642  Biso   1.000  S
  S599     1.0000 0.05987  0.64086  0.76721  Biso   1.000  S
  S600     1.0000 0.14297  0.67094  0.75834  Biso   1.000  S
  S601     1.0000 0.17157  0.72646  0.81476  Biso   1.000  S
  S602     1.0000 0.00228  0.66467  0.82331  Biso   1.000  S
  S603     1.0000 0.03232  0.71362  0.87614  Biso   1.000  S
  Cd383    1.0000 0.26865  0.68955  0.77404  Biso   1.000  Cd
  Cd384    1.0000 0.06125  0.75789  0.96802  Biso   1.000  Cd
  S604     1.0000 0.22236  0.70763  0.75537  Biso   1.000  S
  S605     1.0000 0.02641  0.72024  0.97369  Biso   1.000  S
  S606     1.0000 0.15998  0.72937  0.92458  Biso   1.000  S
  S607     1.0000 0.00359  0.66405  0.91949  Biso   1.000  S
  S608     1.0000 0.99224  0.60729  0.86368  Biso   1.000  S
  S609     1.0000 0.27042  0.63993  0.77151  Biso   1.000  S
  S610     1.0000 0.11126  0.74521  0.98175  Biso   1.000  S
  S611     1.0000 0.22211  0.71764  0.87500  Biso   1.000  S
  S612     1.0000 0.05727  0.77229  0.92238  Biso   1.000  S
  S613     1.0000 0.14310  0.66950  0.98162  Biso   1.000  S
  S614     1.0000 0.27790  0.70679  0.81713  Biso   1.000  S
  S615     1.0000 0.06630  0.64989  0.97629  Biso   1.000  S
  S616     1.0000 0.05512  0.80085  0.99018  Biso   1.000  S
  C2685    1.0000 0.18640  0.75160  0.94380  Biso   1.000  C
  C2686    1.0000 0.20490  0.77410  0.97910  Biso   1.000  C
  C2687    1.0000 0.18370  0.75890  0.96840  Biso   1.000  C
  C2688    1.0000 0.20150  0.73330  0.95660  Biso   1.000  C
  C2689    1.0000 0.50510  0.47960  0.20900  Biso   1.000  C
  C2690    1.0000 0.53010  0.48330  0.22330  Biso   1.000  C
  C2691    1.0000 0.55690  0.48870  0.21250  Biso   1.000  C
  C2692    1.0000 0.55850  0.49270  0.18690  Biso   1.000  C
  C2693    1.0000 0.53490  0.49010  0.17200  Biso   1.000  C
  C2694    1.0000 0.50880  0.48230  0.18300  Biso   1.000  C
  C2695    1.0000 0.23160  0.49040  0.06560  Biso   1.000  C
  C2696    1.0000 0.23270  0.50420  0.04320  Biso   1.000  C
  C2697    1.0000 0.23870  0.53210  0.04310  Biso   1.000  C
  C2698    1.0000 0.24250  0.54550  0.06330  Biso   1.000  C
  C2699    1.0000 0.24080  0.53060  0.08480  Biso   1.000  C
  C2700    1.0000 0.23460  0.50420  0.08590  Biso   1.000  C
  C2701    1.0000 0.33830  0.50440  0.04920  Biso   1.000  C
  C2702    1.0000 0.36480  0.51470  0.04670  Biso   1.000  C
  C2703    1.0000 0.37390  0.53960  0.03350  Biso   1.000  C
  C2704    1.0000 0.35190  0.55020  0.02110  Biso   1.000  C
  C2705    1.0000 0.32270  0.54380  0.02460  Biso   1.000  C
  C2706    1.0000 0.31610  0.52280  0.03950  Biso   1.000  C
  C2707    1.0000 0.52110  0.40290  0.19180  Biso   1.000  C
  C2708    1.0000 0.54400  0.42020  0.19750  Biso   1.000  C
  C2709    1.0000 0.56470  0.41130  0.21480  Biso   1.000  C
  C2710    1.0000 0.56360  0.38500  0.22650  Biso   1.000  C
  C2711    1.0000 0.54000  0.36910  0.22100  Biso   1.000  C
  C2712    1.0000 0.51870  0.37830  0.20260  Biso   1.000  C
  C2713    1.0000 0.49330  0.48540  0.11260  Biso   1.000  C
  C2714    1.0000 0.49030  0.51000  0.11850  Biso   1.000  C
  C2715    1.0000 0.51330  0.52800  0.10820  Biso   1.000  C
  C2716    1.0000 0.53520  0.51680  0.09150  Biso   1.000  C
  C2717    1.0000 0.54030  0.48930  0.09110  Biso   1.000  C
  C2718    1.0000 0.51840  0.47360  0.10600  Biso   1.000  C
  C2719    1.0000 0.50970  0.43660  0.05130  Biso   1.000  C
  C2720    1.0000 0.49440  0.45530  0.04160  Biso   1.000  C
  C2721    1.0000 0.50560  0.47410  0.02630  Biso   1.000  C
  C2722    1.0000 0.53500  0.47210  0.01710  Biso   1.000  C
  C2723    1.0000 0.55360  0.45350  0.02770  Biso   1.000  C
  C2724    1.0000 0.53970  0.43450  0.04590  Biso   1.000  C
  C2725    1.0000 0.45540  0.41540  0.99700  Biso   1.000  C
  C2726    1.0000 0.44160  0.43790  0.99160  Biso   1.000  C
  C2727    1.0000 0.45340  0.45640  0.97640  Biso   1.000  C
  C2728    1.0000 0.48040  0.45130  0.96460  Biso   1.000  C
  C2729    1.0000 0.49250  0.42810  0.96930  Biso   1.000  C
  C2730    1.0000 0.48310  0.41400  0.98700  Biso   1.000  C
  C2731    1.0000 0.40590  0.52400  0.09840  Biso   1.000  C
  C2732    1.0000 0.42750  0.51580  0.08300  Biso   1.000  C
  C2733    1.0000 0.44440  0.53360  0.06650  Biso   1.000  C
  C2734    1.0000 0.43630  0.56200  0.06890  Biso   1.000  C
  C2735    1.0000 0.41060  0.56860  0.08580  Biso   1.000  C
  C2736    1.0000 0.39730  0.54940  0.10250  Biso   1.000  C
  C2737    1.0000 0.41530  0.54730  0.16820  Biso   1.000  C
  C2738    1.0000 0.42800  0.57170  0.16170  Biso   1.000  C
  C2739    1.0000 0.40600  0.58910  0.15660  Biso   1.000  C
  C2740    1.0000 0.37810  0.58620  0.16390  Biso   1.000  C
  C2741    1.0000 0.36720  0.56360  0.16800  Biso   1.000  C
  C2742    1.0000 0.38740  0.54090  0.17130  Biso   1.000  C
  C2743    1.0000 0.46336  0.38717  0.24656  Biso   1.000  C
  C2744    1.0000 0.46970  0.36084  0.24650  Biso   1.000  C
  C2745    1.0000 0.49190  0.35133  0.26142  Biso   1.000  C
  C2746    1.0000 0.50770  0.36820  0.27641  Biso   1.000  C
  C2747    1.0000 0.50130  0.39450  0.27647  Biso   1.000  C
  C2748    1.0000 0.47918  0.40400  0.26155  Biso   1.000  C
  C2749    1.0000 0.39150  0.48469  0.26000  Biso   1.000  C
  C2750    1.0000 0.40870  0.46322  0.26490  Biso   1.000  C
  C2751    1.0000 0.41280  0.45491  0.28937  Biso   1.000  C
  C2752    1.0000 0.39970  0.46810  0.30900  Biso   1.000  C
  C2753    1.0000 0.38250  0.48950  0.30420  Biso   1.000  C
  C2754    1.0000 0.37830  0.49780  0.27970  Biso   1.000  C
  C2755    1.0000 0.32500  0.43861  0.24610  Biso   1.000  C
  C2756    1.0000 0.32770  0.44885  0.27010  Biso   1.000  C
  C2757    1.0000 0.30400  0.46032  0.28160  Biso   1.000  C
  C2758    1.0000 0.27770  0.46156  0.26920  Biso   1.000  C
  C2759    1.0000 0.27500  0.45133  0.24530  Biso   1.000  C
  C2760    1.0000 0.29870  0.43985  0.23370  Biso   1.000  C
  C2761    1.0000 0.54390  0.35180  0.12830  Biso   1.000  C
  C2762    1.0000 0.54140  0.37310  0.14410  Biso   1.000  C
  C2763    1.0000 0.56420  0.37980  0.15970  Biso   1.000  C
  C2764    1.0000 0.58930  0.36510  0.15970  Biso   1.000  C
  C2765    1.0000 0.59180  0.34380  0.14390  Biso   1.000  C
  C2766    1.0000 0.56900  0.33710  0.12830  Biso   1.000  C
  C2767    1.0000 0.36630  0.44830  0.98960  Biso   1.000  C
  C2768    1.0000 0.37560  0.47070  0.00170  Biso   1.000  C
  C2769    1.0000 0.38500  0.49280  0.98460  Biso   1.000  C
  C2770    1.0000 0.38290  0.49150  0.95920  Biso   1.000  C
  C2771    1.0000 0.37390  0.46900  0.94950  Biso   1.000  C
  C2772    1.0000 0.36300  0.44740  0.96460  Biso   1.000  C
  C2773    1.0000 0.27650  0.43940  0.97760  Biso   1.000  C
  C2774    1.0000 0.26430  0.45100  0.95720  Biso   1.000  C
  C2775    1.0000 0.26470  0.43770  0.93280  Biso   1.000  C
  C2776    1.0000 0.27570  0.41140  0.93100  Biso   1.000  C
  C2777    1.0000 0.28470  0.39830  0.95480  Biso   1.000  C
  C2778    1.0000 0.28630  0.41350  0.97610  Biso   1.000  C
  C2779    1.0000 0.24980  0.47100  0.14710  Biso   1.000  C
  C2780    1.0000 0.24100  0.49620  0.15230  Biso   1.000  C
  C2781    1.0000 0.21850  0.50060  0.16900  Biso   1.000  C
  C2782    1.0000 0.20480  0.47980  0.18040  Biso   1.000  C
  C2783    1.0000 0.21360  0.45460  0.17520  Biso   1.000  C
  C2784    1.0000 0.23600  0.45020  0.15850  Biso   1.000  C
  C2785    1.0000 0.19670  0.38030  0.03350  Biso   1.000  C
  C2786    1.0000 0.17450  0.37090  0.01700  Biso   1.000  C
  C2787    1.0000 0.14580  0.36450  0.02600  Biso   1.000  C
  C2788    1.0000 0.14110  0.36480  0.05420  Biso   1.000  C
  C2789    1.0000 0.16470  0.37550  0.07190  Biso   1.000  C
  C2790    1.0000 0.19150  0.38250  0.05960  Biso   1.000  C
  C2791    1.0000 0.41120  0.55990  0.25290  Biso   1.000  C
  C2792    1.0000 0.40530  0.55550  0.27960  Biso   1.000  C
  C2793    1.0000 0.37720  0.56290  0.28830  Biso   1.000  C
  C2794    1.0000 0.35680  0.57130  0.27260  Biso   1.000  C
  C2795    1.0000 0.36240  0.57660  0.24630  Biso   1.000  C
  C2796    1.0000 0.39030  0.56960  0.23570  Biso   1.000  C
  Cd385    1.0000 0.39359  0.41020  0.14600  Biso   1.000  Cd
  Cd386    1.0000 0.45075  0.43212  0.09200  Biso   1.000  Cd
  Cd387    1.0000 0.33586  0.39207  0.09326  Biso   1.000  Cd
  Cd388    1.0000 0.39755  0.41161  0.04000  Biso   1.000  Cd
  Cd389    1.0000 0.37325  0.46301  0.08957  Biso   1.000  Cd
  Cd390    1.0000 0.47343  0.37532  0.14709  Biso   1.000  Cd
  Cd391    1.0000 0.33212  0.38937  0.20043  Biso   1.000  Cd
  Cd392    1.0000 0.31694  0.44062  0.03403  Biso   1.000  Cd
  Cd393    1.0000 0.27004  0.37238  0.04745  Biso   1.000  Cd
  Cd394    1.0000 0.45681  0.43222  0.19641  Biso   1.000  Cd
  Cd395    1.0000 0.37381  0.45710  0.20529  Biso   1.000  Cd
  Cd396    1.0000 0.31542  0.44271  0.15045  Biso   1.000  Cd
  Cd397    1.0000 0.26034  0.43492  0.09424  Biso   1.000  Cd
  Cd398    1.0000 0.42411  0.48504  0.14603  Biso   1.000  Cd
  S617     1.0000 0.35401  0.42894  0.11970  Biso   1.000  S
  S618     1.0000 0.41216  0.44655  0.17338  Biso   1.000  S
  S619     1.0000 0.43429  0.39419  0.11930  Biso   1.000  S
  S620     1.0000 0.41453  0.45020  0.06284  Biso   1.000  S
  S621     1.0000 0.29554  0.41057  0.06685  Biso   1.000  S
  S622     1.0000 0.38561  0.50177  0.11749  Biso   1.000  S
  S623     1.0000 0.29239  0.40897  0.17642  Biso   1.000  S
  S624     1.0000 0.44013  0.39086  0.01721  Biso   1.000  S
  S625     1.0000 0.35703  0.42094  0.00834  Biso   1.000  S
  S626     1.0000 0.32843  0.47646  0.06476  Biso   1.000  S
  S627     1.0000 0.49772  0.41467  0.07331  Biso   1.000  S
  S628     1.0000 0.46768  0.46362  0.12614  Biso   1.000  S
  Cd399    1.0000 0.23135  0.43955  0.02404  Biso   1.000  Cd
  Cd400    1.0000 0.43875  0.50789  0.21802  Biso   1.000  Cd
  S629     1.0000 0.27764  0.45763  0.00537  Biso   1.000  S
  S630     1.0000 0.47359  0.47024  0.22369  Biso   1.000  S
  S631     1.0000 0.34002  0.47937  0.17458  Biso   1.000  S
  S632     1.0000 0.49641  0.41405  0.16949  Biso   1.000  S
  S633     1.0000 0.50776  0.35729  0.11368  Biso   1.000  S
  S634     1.0000 0.22958  0.38993  0.02151  Biso   1.000  S
  S635     1.0000 0.38874  0.49521  0.23175  Biso   1.000  S
  S636     1.0000 0.27789  0.46764  0.12500  Biso   1.000  S
  S637     1.0000 0.44273  0.52229  0.17238  Biso   1.000  S
  S638     1.0000 0.35690  0.41950  0.23162  Biso   1.000  S
  S639     1.0000 0.22210  0.45679  0.06713  Biso   1.000  S
  S640     1.0000 0.43370  0.39989  0.22629  Biso   1.000  S
  S641     1.0000 0.44488  0.55085  0.24018  Biso   1.000  S
  C2797    1.0000 0.31360  0.50160  0.19380  Biso   1.000  C
  C2798    1.0000 0.29510  0.52410  0.22910  Biso   1.000  C
  C2799    1.0000 0.31630  0.50890  0.21840  Biso   1.000  C
  C2800    1.0000 0.29850  0.48330  0.20660  Biso   1.000  C
  C2801    1.0000 0.50510  0.97960  0.70900  Biso   1.000  C
  C2802    1.0000 0.53010  0.98330  0.72330  Biso   1.000  C
  C2803    1.0000 0.55690  0.98870  0.71250  Biso   1.000  C
  C2804    1.0000 0.55850  0.99270  0.68690  Biso   1.000  C
  C2805    1.0000 0.53490  0.99010  0.67200  Biso   1.000  C
  C2806    1.0000 0.50880  0.98230  0.68300  Biso   1.000  C
  C2807    1.0000 0.23160  0.99040  0.56560  Biso   1.000  C
  C2808    1.0000 0.23270  0.00420  0.54320  Biso   1.000  C
  C2809    1.0000 0.23870  0.03210  0.54310  Biso   1.000  C
  C2810    1.0000 0.24250  0.04550  0.56330  Biso   1.000  C
  C2811    1.0000 0.24080  0.03060  0.58480  Biso   1.000  C
  C2812    1.0000 0.23460  0.00420  0.58590  Biso   1.000  C
  C2813    1.0000 0.33830  0.00440  0.54920  Biso   1.000  C
  C2814    1.0000 0.36480  0.01470  0.54670  Biso   1.000  C
  C2815    1.0000 0.37390  0.03960  0.53350  Biso   1.000  C
  C2816    1.0000 0.35190  0.05020  0.52110  Biso   1.000  C
  C2817    1.0000 0.32270  0.04380  0.52460  Biso   1.000  C
  C2818    1.0000 0.31610  0.02280  0.53950  Biso   1.000  C
  C2819    1.0000 0.52110  0.90290  0.69180  Biso   1.000  C
  C2820    1.0000 0.54400  0.92020  0.69750  Biso   1.000  C
  C2821    1.0000 0.56470  0.91130  0.71480  Biso   1.000  C
  C2822    1.0000 0.56360  0.88500  0.72650  Biso   1.000  C
  C2823    1.0000 0.54000  0.86910  0.72100  Biso   1.000  C
  C2824    1.0000 0.51870  0.87830  0.70260  Biso   1.000  C
  C2825    1.0000 0.49330  0.98540  0.61260  Biso   1.000  C
  C2826    1.0000 0.49030  0.01000  0.61850  Biso   1.000  C
  C2827    1.0000 0.51330  0.02800  0.60820  Biso   1.000  C
  C2828    1.0000 0.53520  0.01680  0.59150  Biso   1.000  C
  C2829    1.0000 0.54030  0.98930  0.59110  Biso   1.000  C
  C2830    1.0000 0.51840  0.97360  0.60600  Biso   1.000  C
  C2831    1.0000 0.50970  0.93660  0.55130  Biso   1.000  C
  C2832    1.0000 0.49440  0.95530  0.54160  Biso   1.000  C
  C2833    1.0000 0.50560  0.97410  0.52630  Biso   1.000  C
  C2834    1.0000 0.53500  0.97210  0.51710  Biso   1.000  C
  C2835    1.0000 0.55360  0.95350  0.52770  Biso   1.000  C
  C2836    1.0000 0.53970  0.93450  0.54590  Biso   1.000  C
  C2837    1.0000 0.45540  0.91540  0.49700  Biso   1.000  C
  C2838    1.0000 0.44160  0.93790  0.49160  Biso   1.000  C
  C2839    1.0000 0.45340  0.95640  0.47640  Biso   1.000  C
  C2840    1.0000 0.48040  0.95130  0.46460  Biso   1.000  C
  C2841    1.0000 0.49250  0.92810  0.46930  Biso   1.000  C
  C2842    1.0000 0.48310  0.91400  0.48700  Biso   1.000  C
  C2843    1.0000 0.40590  0.02400  0.59840  Biso   1.000  C
  C2844    1.0000 0.42750  0.01580  0.58300  Biso   1.000  C
  C2845    1.0000 0.44440  0.03360  0.56650  Biso   1.000  C
  C2846    1.0000 0.43630  0.06200  0.56890  Biso   1.000  C
  C2847    1.0000 0.41060  0.06860  0.58580  Biso   1.000  C
  C2848    1.0000 0.39730  0.04940  0.60250  Biso   1.000  C
  C2849    1.0000 0.41530  0.04730  0.66820  Biso   1.000  C
  C2850    1.0000 0.42800  0.07170  0.66170  Biso   1.000  C
  C2851    1.0000 0.40600  0.08910  0.65660  Biso   1.000  C
  C2852    1.0000 0.37810  0.08620  0.66390  Biso   1.000  C
  C2853    1.0000 0.36720  0.06360  0.66800  Biso   1.000  C
  C2854    1.0000 0.38740  0.04090  0.67130  Biso   1.000  C
  C2855    1.0000 0.46336  0.88717  0.74656  Biso   1.000  C
  C2856    1.0000 0.46970  0.86084  0.74650  Biso   1.000  C
  C2857    1.0000 0.49190  0.85133  0.76142  Biso   1.000  C
  C2858    1.0000 0.50770  0.86820  0.77641  Biso   1.000  C
  C2859    1.0000 0.50130  0.89450  0.77647  Biso   1.000  C
  C2860    1.0000 0.47918  0.90400  0.76155  Biso   1.000  C
  C2861    1.0000 0.39150  0.98469  0.76000  Biso   1.000  C
  C2862    1.0000 0.40870  0.96322  0.76490  Biso   1.000  C
  C2863    1.0000 0.41280  0.95491  0.78937  Biso   1.000  C
  C2864    1.0000 0.39970  0.96810  0.80900  Biso   1.000  C
  C2865    1.0000 0.38250  0.98950  0.80420  Biso   1.000  C
  C2866    1.0000 0.37830  0.99780  0.77970  Biso   1.000  C
  C2867    1.0000 0.32500  0.93861  0.74610  Biso   1.000  C
  C2868    1.0000 0.32770  0.94885  0.77010  Biso   1.000  C
  C2869    1.0000 0.30400  0.96032  0.78160  Biso   1.000  C
  C2870    1.0000 0.27770  0.96156  0.76920  Biso   1.000  C
  C2871    1.0000 0.27500  0.95133  0.74530  Biso   1.000  C
  C2872    1.0000 0.29870  0.93985  0.73370  Biso   1.000  C
  C2873    1.0000 0.54390  0.85180  0.62830  Biso   1.000  C
  C2874    1.0000 0.54140  0.87310  0.64410  Biso   1.000  C
  C2875    1.0000 0.56420  0.87980  0.65970  Biso   1.000  C
  C2876    1.0000 0.58930  0.86510  0.65970  Biso   1.000  C
  C2877    1.0000 0.59180  0.84380  0.64390  Biso   1.000  C
  C2878    1.0000 0.56900  0.83710  0.62830  Biso   1.000  C
  C2879    1.0000 0.36630  0.94830  0.48960  Biso   1.000  C
  C2880    1.0000 0.37560  0.97070  0.50170  Biso   1.000  C
  C2881    1.0000 0.38500  0.99280  0.48460  Biso   1.000  C
  C2882    1.0000 0.38290  0.99150  0.45920  Biso   1.000  C
  C2883    1.0000 0.37390  0.96900  0.44950  Biso   1.000  C
  C2884    1.0000 0.36300  0.94740  0.46460  Biso   1.000  C
  C2885    1.0000 0.27650  0.93940  0.47760  Biso   1.000  C
  C2886    1.0000 0.26430  0.95100  0.45720  Biso   1.000  C
  C2887    1.0000 0.26470  0.93770  0.43280  Biso   1.000  C
  C2888    1.0000 0.27570  0.91140  0.43100  Biso   1.000  C
  C2889    1.0000 0.28470  0.89830  0.45480  Biso   1.000  C
  C2890    1.0000 0.28630  0.91350  0.47610  Biso   1.000  C
  C2891    1.0000 0.24980  0.97100  0.64710  Biso   1.000  C
  C2892    1.0000 0.24100  0.99620  0.65230  Biso   1.000  C
  C2893    1.0000 0.21850  0.00060  0.66900  Biso   1.000  C
  C2894    1.0000 0.20480  0.97980  0.68040  Biso   1.000  C
  C2895    1.0000 0.21360  0.95460  0.67520  Biso   1.000  C
  C2896    1.0000 0.23600  0.95020  0.65850  Biso   1.000  C
  C2897    1.0000 0.19670  0.88030  0.53350  Biso   1.000  C
  C2898    1.0000 0.17450  0.87090  0.51700  Biso   1.000  C
  C2899    1.0000 0.14580  0.86450  0.52600  Biso   1.000  C
  C2900    1.0000 0.14110  0.86480  0.55420  Biso   1.000  C
  C2901    1.0000 0.16470  0.87550  0.57190  Biso   1.000  C
  C2902    1.0000 0.19150  0.88250  0.55960  Biso   1.000  C
  C2903    1.0000 0.41120  0.05990  0.75290  Biso   1.000  C
  C2904    1.0000 0.40530  0.05550  0.77960  Biso   1.000  C
  C2905    1.0000 0.37720  0.06290  0.78830  Biso   1.000  C
  C2906    1.0000 0.35680  0.07130  0.77260  Biso   1.000  C
  C2907    1.0000 0.36240  0.07660  0.74630  Biso   1.000  C
  C2908    1.0000 0.39030  0.06960  0.73570  Biso   1.000  C
  Cd401    1.0000 0.39359  0.91020  0.64600  Biso   1.000  Cd
  Cd402    1.0000 0.45075  0.93212  0.59200  Biso   1.000  Cd
  Cd403    1.0000 0.33586  0.89207  0.59326  Biso   1.000  Cd
  Cd404    1.0000 0.39755  0.91161  0.54000  Biso   1.000  Cd
  Cd405    1.0000 0.37325  0.96301  0.58957  Biso   1.000  Cd
  Cd406    1.0000 0.47343  0.87532  0.64709  Biso   1.000  Cd
  Cd407    1.0000 0.33212  0.88937  0.70043  Biso   1.000  Cd
  Cd408    1.0000 0.31694  0.94062  0.53403  Biso   1.000  Cd
  Cd409    1.0000 0.27004  0.87238  0.54745  Biso   1.000  Cd
  Cd410    1.0000 0.45681  0.93222  0.69641  Biso   1.000  Cd
  Cd411    1.0000 0.37381  0.95710  0.70529  Biso   1.000  Cd
  Cd412    1.0000 0.31542  0.94271  0.65045  Biso   1.000  Cd
  Cd413    1.0000 0.26034  0.93492  0.59424  Biso   1.000  Cd
  Cd414    1.0000 0.42411  0.98504  0.64603  Biso   1.000  Cd
  S642     1.0000 0.35401  0.92894  0.61970  Biso   1.000  S
  S643     1.0000 0.41216  0.94655  0.67338  Biso   1.000  S
  S644     1.0000 0.43429  0.89419  0.61930  Biso   1.000  S
  S645     1.0000 0.41453  0.95020  0.56284  Biso   1.000  S
  S646     1.0000 0.29554  0.91057  0.56685  Biso   1.000  S
  S647     1.0000 0.38561  0.00177  0.61749  Biso   1.000  S
  S648     1.0000 0.29239  0.90897  0.67642  Biso   1.000  S
  S649     1.0000 0.44013  0.89086  0.51721  Biso   1.000  S
  S650     1.0000 0.35703  0.92094  0.50834  Biso   1.000  S
  S651     1.0000 0.32843  0.97646  0.56476  Biso   1.000  S
  S652     1.0000 0.49772  0.91467  0.57331  Biso   1.000  S
  S653     1.0000 0.46768  0.96362  0.62614  Biso   1.000  S
  Cd415    1.0000 0.23135  0.93955  0.52404  Biso   1.000  Cd
  Cd416    1.0000 0.43875  0.00789  0.71802  Biso   1.000  Cd
  S654     1.0000 0.27764  0.95763  0.50537  Biso   1.000  S
  S655     1.0000 0.47359  0.97024  0.72369  Biso   1.000  S
  S656     1.0000 0.34002  0.97937  0.67458  Biso   1.000  S
  S657     1.0000 0.49641  0.91405  0.66949  Biso   1.000  S
  S658     1.0000 0.50776  0.85729  0.61368  Biso   1.000  S
  S659     1.0000 0.22958  0.88993  0.52151  Biso   1.000  S
  S660     1.0000 0.38874  0.99521  0.73175  Biso   1.000  S
  S661     1.0000 0.27789  0.96764  0.62500  Biso   1.000  S
  S662     1.0000 0.44273  0.02229  0.67238  Biso   1.000  S
  S663     1.0000 0.35690  0.91950  0.73162  Biso   1.000  S
  S664     1.0000 0.22210  0.95679  0.56713  Biso   1.000  S
  S665     1.0000 0.43370  0.89989  0.72629  Biso   1.000  S
  S666     1.0000 0.44488  0.05085  0.74018  Biso   1.000  S
  C2909    1.0000 0.31360  0.00160  0.69380  Biso   1.000  C
  C2910    1.0000 0.29510  0.02410  0.72910  Biso   1.000  C
  C2911    1.0000 0.31630  0.00890  0.71840  Biso   1.000  C
  C2912    1.0000 0.29850  0.98330  0.70660  Biso   1.000  C
  C2913    1.0000 0.00510  0.47960  0.70900  Biso   1.000  C
  C2914    1.0000 0.03010  0.48330  0.72330  Biso   1.000  C
  C2915    1.0000 0.05690  0.48870  0.71250  Biso   1.000  C
  C2916    1.0000 0.05850  0.49270  0.68690  Biso   1.000  C
  C2917    1.0000 0.03490  0.49010  0.67200  Biso   1.000  C
  C2918    1.0000 0.00880  0.48230  0.68300  Biso   1.000  C
  C2919    1.0000 0.73160  0.49040  0.56560  Biso   1.000  C
  C2920    1.0000 0.73270  0.50420  0.54320  Biso   1.000  C
  C2921    1.0000 0.73870  0.53210  0.54310  Biso   1.000  C
  C2922    1.0000 0.74250  0.54550  0.56330  Biso   1.000  C
  C2923    1.0000 0.74080  0.53060  0.58480  Biso   1.000  C
  C2924    1.0000 0.73460  0.50420  0.58590  Biso   1.000  C
  C2925    1.0000 0.83830  0.50440  0.54920  Biso   1.000  C
  C2926    1.0000 0.86480  0.51470  0.54670  Biso   1.000  C
  C2927    1.0000 0.87390  0.53960  0.53350  Biso   1.000  C
  C2928    1.0000 0.85190  0.55020  0.52110  Biso   1.000  C
  C2929    1.0000 0.82270  0.54380  0.52460  Biso   1.000  C
  C2930    1.0000 0.81610  0.52280  0.53950  Biso   1.000  C
  C2931    1.0000 0.02110  0.40290  0.69180  Biso   1.000  C
  C2932    1.0000 0.04400  0.42020  0.69750  Biso   1.000  C
  C2933    1.0000 0.06470  0.41130  0.71480  Biso   1.000  C
  C2934    1.0000 0.06360  0.38500  0.72650  Biso   1.000  C
  C2935    1.0000 0.04000  0.36910  0.72100  Biso   1.000  C
  C2936    1.0000 0.01870  0.37830  0.70260  Biso   1.000  C
  C2937    1.0000 0.99330  0.48540  0.61260  Biso   1.000  C
  C2938    1.0000 0.99030  0.51000  0.61850  Biso   1.000  C
  C2939    1.0000 0.01330  0.52800  0.60820  Biso   1.000  C
  C2940    1.0000 0.03520  0.51680  0.59150  Biso   1.000  C
  C2941    1.0000 0.04030  0.48930  0.59110  Biso   1.000  C
  C2942    1.0000 0.01840  0.47360  0.60600  Biso   1.000  C
  C2943    1.0000 0.00970  0.43660  0.55130  Biso   1.000  C
  C2944    1.0000 0.99440  0.45530  0.54160  Biso   1.000  C
  C2945    1.0000 0.00560  0.47410  0.52630  Biso   1.000  C
  C2946    1.0000 0.03500  0.47210  0.51710  Biso   1.000  C
  C2947    1.0000 0.05360  0.45350  0.52770  Biso   1.000  C
  C2948    1.0000 0.03970  0.43450  0.54590  Biso   1.000  C
  C2949    1.0000 0.95540  0.41540  0.49700  Biso   1.000  C
  C2950    1.0000 0.94160  0.43790  0.49160  Biso   1.000  C
  C2951    1.0000 0.95340  0.45640  0.47640  Biso   1.000  C
  C2952    1.0000 0.98040  0.45130  0.46460  Biso   1.000  C
  C2953    1.0000 0.99250  0.42810  0.46930  Biso   1.000  C
  C2954    1.0000 0.98310  0.41400  0.48700  Biso   1.000  C
  C2955    1.0000 0.90590  0.52400  0.59840  Biso   1.000  C
  C2956    1.0000 0.92750  0.51580  0.58300  Biso   1.000  C
  C2957    1.0000 0.94440  0.53360  0.56650  Biso   1.000  C
  C2958    1.0000 0.93630  0.56200  0.56890  Biso   1.000  C
  C2959    1.0000 0.91060  0.56860  0.58580  Biso   1.000  C
  C2960    1.0000 0.89730  0.54940  0.60250  Biso   1.000  C
  C2961    1.0000 0.91530  0.54730  0.66820  Biso   1.000  C
  C2962    1.0000 0.92800  0.57170  0.66170  Biso   1.000  C
  C2963    1.0000 0.90600  0.58910  0.65660  Biso   1.000  C
  C2964    1.0000 0.87810  0.58620  0.66390  Biso   1.000  C
  C2965    1.0000 0.86720  0.56360  0.66800  Biso   1.000  C
  C2966    1.0000 0.88740  0.54090  0.67130  Biso   1.000  C
  C2967    1.0000 0.96336  0.38717  0.74656  Biso   1.000  C
  C2968    1.0000 0.96970  0.36084  0.74650  Biso   1.000  C
  C2969    1.0000 0.99190  0.35133  0.76142  Biso   1.000  C
  C2970    1.0000 0.00770  0.36820  0.77641  Biso   1.000  C
  C2971    1.0000 0.00130  0.39450  0.77647  Biso   1.000  C
  C2972    1.0000 0.97918  0.40400  0.76155  Biso   1.000  C
  C2973    1.0000 0.89150  0.48469  0.76000  Biso   1.000  C
  C2974    1.0000 0.90870  0.46322  0.76490  Biso   1.000  C
  C2975    1.0000 0.91280  0.45491  0.78937  Biso   1.000  C
  C2976    1.0000 0.89970  0.46810  0.80900  Biso   1.000  C
  C2977    1.0000 0.88250  0.48950  0.80420  Biso   1.000  C
  C2978    1.0000 0.87830  0.49780  0.77970  Biso   1.000  C
  C2979    1.0000 0.82500  0.43861  0.74610  Biso   1.000  C
  C2980    1.0000 0.82770  0.44885  0.77010  Biso   1.000  C
  C2981    1.0000 0.80400  0.46032  0.78160  Biso   1.000  C
  C2982    1.0000 0.77770  0.46156  0.76920  Biso   1.000  C
  C2983    1.0000 0.77500  0.45133  0.74530  Biso   1.000  C
  C2984    1.0000 0.79870  0.43985  0.73370  Biso   1.000  C
  C2985    1.0000 0.04390  0.35180  0.62830  Biso   1.000  C
  C2986    1.0000 0.04140  0.37310  0.64410  Biso   1.000  C
  C2987    1.0000 0.06420  0.37980  0.65970  Biso   1.000  C
  C2988    1.0000 0.08930  0.36510  0.65970  Biso   1.000  C
  C2989    1.0000 0.09180  0.34380  0.64390  Biso   1.000  C
  C2990    1.0000 0.06900  0.33710  0.62830  Biso   1.000  C
  C2991    1.0000 0.86630  0.44830  0.48960  Biso   1.000  C
  C2992    1.0000 0.87560  0.47070  0.50170  Biso   1.000  C
  C2993    1.0000 0.88500  0.49280  0.48460  Biso   1.000  C
  C2994    1.0000 0.88290  0.49150  0.45920  Biso   1.000  C
  C2995    1.0000 0.87390  0.46900  0.44950  Biso   1.000  C
  C2996    1.0000 0.86300  0.44740  0.46460  Biso   1.000  C
  C2997    1.0000 0.77650  0.43940  0.47760  Biso   1.000  C
  C2998    1.0000 0.76430  0.45100  0.45720  Biso   1.000  C
  C2999    1.0000 0.76470  0.43770  0.43280  Biso   1.000  C
  C3000    1.0000 0.77570  0.41140  0.43100  Biso   1.000  C
  C3001    1.0000 0.78470  0.39830  0.45480  Biso   1.000  C
  C3002    1.0000 0.78630  0.41350  0.47610  Biso   1.000  C
  C3003    1.0000 0.74980  0.47100  0.64710  Biso   1.000  C
  C3004    1.0000 0.74100  0.49620  0.65230  Biso   1.000  C
  C3005    1.0000 0.71850  0.50060  0.66900  Biso   1.000  C
  C3006    1.0000 0.70480  0.47980  0.68040  Biso   1.000  C
  C3007    1.0000 0.71360  0.45460  0.67520  Biso   1.000  C
  C3008    1.0000 0.73600  0.45020  0.65850  Biso   1.000  C
  C3009    1.0000 0.69670  0.38030  0.53350  Biso   1.000  C
  C3010    1.0000 0.67450  0.37090  0.51700  Biso   1.000  C
  C3011    1.0000 0.64580  0.36450  0.52600  Biso   1.000  C
  C3012    1.0000 0.64110  0.36480  0.55420  Biso   1.000  C
  C3013    1.0000 0.66470  0.37550  0.57190  Biso   1.000  C
  C3014    1.0000 0.69150  0.38250  0.55960  Biso   1.000  C
  C3015    1.0000 0.91120  0.55990  0.75290  Biso   1.000  C
  C3016    1.0000 0.90530  0.55550  0.77960  Biso   1.000  C
  C3017    1.0000 0.87720  0.56290  0.78830  Biso   1.000  C
  C3018    1.0000 0.85680  0.57130  0.77260  Biso   1.000  C
  C3019    1.0000 0.86240  0.57660  0.74630  Biso   1.000  C
  C3020    1.0000 0.89030  0.56960  0.73570  Biso   1.000  C
  Cd417    1.0000 0.89359  0.41020  0.64600  Biso   1.000  Cd
  Cd418    1.0000 0.95075  0.43212  0.59200  Biso   1.000  Cd
  Cd419    1.0000 0.83586  0.39207  0.59326  Biso   1.000  Cd
  Cd420    1.0000 0.89755  0.41161  0.54000  Biso   1.000  Cd
  Cd421    1.0000 0.87325  0.46301  0.58957  Biso   1.000  Cd
  Cd422    1.0000 0.97343  0.37532  0.64709  Biso   1.000  Cd
  Cd423    1.0000 0.83212  0.38937  0.70043  Biso   1.000  Cd
  Cd424    1.0000 0.81694  0.44062  0.53403  Biso   1.000  Cd
  Cd425    1.0000 0.77004  0.37238  0.54745  Biso   1.000  Cd
  Cd426    1.0000 0.95681  0.43222  0.69641  Biso   1.000  Cd
  Cd427    1.0000 0.87381  0.45710  0.70529  Biso   1.000  Cd
  Cd428    1.0000 0.81542  0.44271  0.65045  Biso   1.000  Cd
  Cd429    1.0000 0.76034  0.43492  0.59424  Biso   1.000  Cd
  Cd430    1.0000 0.92411  0.48504  0.64603  Biso   1.000  Cd
  S667     1.0000 0.85401  0.42894  0.61970  Biso   1.000  S
  S668     1.0000 0.91216  0.44655  0.67338  Biso   1.000  S
  S669     1.0000 0.93429  0.39419  0.61930  Biso   1.000  S
  S670     1.0000 0.91453  0.45020  0.56284  Biso   1.000  S
  S671     1.0000 0.79554  0.41057  0.56685  Biso   1.000  S
  S672     1.0000 0.88561  0.50177  0.61749  Biso   1.000  S
  S673     1.0000 0.79239  0.40897  0.67642  Biso   1.000  S
  S674     1.0000 0.94013  0.39086  0.51721  Biso   1.000  S
  S675     1.0000 0.85703  0.42094  0.50834  Biso   1.000  S
  S676     1.0000 0.82843  0.47646  0.56476  Biso   1.000  S
  S677     1.0000 0.99772  0.41467  0.57331  Biso   1.000  S
  S678     1.0000 0.96768  0.46362  0.62614  Biso   1.000  S
  Cd431    1.0000 0.73135  0.43955  0.52404  Biso   1.000  Cd
  Cd432    1.0000 0.93875  0.50789  0.71802  Biso   1.000  Cd
  S679     1.0000 0.77764  0.45763  0.50537  Biso   1.000  S
  S680     1.0000 0.97359  0.47024  0.72369  Biso   1.000  S
  S681     1.0000 0.84002  0.47937  0.67458  Biso   1.000  S
  S682     1.0000 0.99641  0.41405  0.66949  Biso   1.000  S
  S683     1.0000 0.00776  0.35729  0.61368  Biso   1.000  S
  S684     1.0000 0.72958  0.38993  0.52151  Biso   1.000  S
  S685     1.0000 0.88874  0.49521  0.73175  Biso   1.000  S
  S686     1.0000 0.77789  0.46764  0.62500  Biso   1.000  S
  S687     1.0000 0.94273  0.52229  0.67238  Biso   1.000  S
  S688     1.0000 0.85690  0.41950  0.73162  Biso   1.000  S
  S689     1.0000 0.72210  0.45679  0.56713  Biso   1.000  S
  S690     1.0000 0.93370  0.39989  0.72629  Biso   1.000  S
  S691     1.0000 0.94488  0.55085  0.74018  Biso   1.000  S
  C3021    1.0000 0.81360  0.50160  0.69380  Biso   1.000  C
  C3022    1.0000 0.79510  0.52410  0.72910  Biso   1.000  C
  C3023    1.0000 0.81630  0.50890  0.71840  Biso   1.000  C
  C3024    1.0000 0.79850  0.48330  0.70660  Biso   1.000  C
  C3025    1.0000 0.00510  0.97960  0.20900  Biso   1.000  C
  C3026    1.0000 0.03010  0.98330  0.22330  Biso   1.000  C
  C3027    1.0000 0.05690  0.98870  0.21250  Biso   1.000  C
  C3028    1.0000 0.05850  0.99270  0.18690  Biso   1.000  C
  C3029    1.0000 0.03490  0.99010  0.17200  Biso   1.000  C
  C3030    1.0000 0.00880  0.98230  0.18300  Biso   1.000  C
  C3031    1.0000 0.73160  0.99040  0.06560  Biso   1.000  C
  C3032    1.0000 0.73270  0.00420  0.04320  Biso   1.000  C
  C3033    1.0000 0.73870  0.03210  0.04310  Biso   1.000  C
  C3034    1.0000 0.74250  0.04550  0.06330  Biso   1.000  C
  C3035    1.0000 0.74080  0.03060  0.08480  Biso   1.000  C
  C3036    1.0000 0.73460  0.00420  0.08590  Biso   1.000  C
  C3037    1.0000 0.83830  0.00440  0.04920  Biso   1.000  C
  C3038    1.0000 0.86480  0.01470  0.04670  Biso   1.000  C
  C3039    1.0000 0.87390  0.03960  0.03350  Biso   1.000  C
  C3040    1.0000 0.85190  0.05020  0.02110  Biso   1.000  C
  C3041    1.0000 0.82270  0.04380  0.02460  Biso   1.000  C
  C3042    1.0000 0.81610  0.02280  0.03950  Biso   1.000  C
  C3043    1.0000 0.02110  0.90290  0.19180  Biso   1.000  C
  C3044    1.0000 0.04400  0.92020  0.19750  Biso   1.000  C
  C3045    1.0000 0.06470  0.91130  0.21480  Biso   1.000  C
  C3046    1.0000 0.06360  0.88500  0.22650  Biso   1.000  C
  C3047    1.0000 0.04000  0.86910  0.22100  Biso   1.000  C
  C3048    1.0000 0.01870  0.87830  0.20260  Biso   1.000  C
  C3049    1.0000 0.99330  0.98540  0.11260  Biso   1.000  C
  C3050    1.0000 0.99030  0.01000  0.11850  Biso   1.000  C
  C3051    1.0000 0.01330  0.02800  0.10820  Biso   1.000  C
  C3052    1.0000 0.03520  0.01680  0.09150  Biso   1.000  C
  C3053    1.0000 0.04030  0.98930  0.09110  Biso   1.000  C
  C3054    1.0000 0.01840  0.97360  0.10600  Biso   1.000  C
  C3055    1.0000 0.00970  0.93660  0.05130  Biso   1.000  C
  C3056    1.0000 0.99440  0.95530  0.04160  Biso   1.000  C
  C3057    1.0000 0.00560  0.97410  0.02630  Biso   1.000  C
  C3058    1.0000 0.03500  0.97210  0.01710  Biso   1.000  C
  C3059    1.0000 0.05360  0.95350  0.02770  Biso   1.000  C
  C3060    1.0000 0.03970  0.93450  0.04590  Biso   1.000  C
  C3061    1.0000 0.95540  0.91540  0.99700  Biso   1.000  C
  C3062    1.0000 0.94160  0.93790  0.99160  Biso   1.000  C
  C3063    1.0000 0.95340  0.95640  0.97640  Biso   1.000  C
  C3064    1.0000 0.98040  0.95130  0.96460  Biso   1.000  C
  C3065    1.0000 0.99250  0.92810  0.96930  Biso   1.000  C
  C3066    1.0000 0.98310  0.91400  0.98700  Biso   1.000  C
  C3067    1.0000 0.90590  0.02400  0.09840  Biso   1.000  C
  C3068    1.0000 0.92750  0.01580  0.08300  Biso   1.000  C
  C3069    1.0000 0.94440  0.03360  0.06650  Biso   1.000  C
  C3070    1.0000 0.93630  0.06200  0.06890  Biso   1.000  C
  C3071    1.0000 0.91060  0.06860  0.08580  Biso   1.000  C
  C3072    1.0000 0.89730  0.04940  0.10250  Biso   1.000  C
  C3073    1.0000 0.91530  0.04730  0.16820  Biso   1.000  C
  C3074    1.0000 0.92800  0.07170  0.16170  Biso   1.000  C
  C3075    1.0000 0.90600  0.08910  0.15660  Biso   1.000  C
  C3076    1.0000 0.87810  0.08620  0.16390  Biso   1.000  C
  C3077    1.0000 0.86720  0.06360  0.16800  Biso   1.000  C
  C3078    1.0000 0.88740  0.04090  0.17130  Biso   1.000  C
  C3079    1.0000 0.96336  0.88717  0.24656  Biso   1.000  C
  C3080    1.0000 0.96970  0.86084  0.24650  Biso   1.000  C
  C3081    1.0000 0.99190  0.85133  0.26142  Biso   1.000  C
  C3082    1.0000 0.00770  0.86820  0.27641  Biso   1.000  C
  C3083    1.0000 0.00130  0.89450  0.27647  Biso   1.000  C
  C3084    1.0000 0.97918  0.90400  0.26155  Biso   1.000  C
  C3085    1.0000 0.89150  0.98469  0.26000  Biso   1.000  C
  C3086    1.0000 0.90870  0.96322  0.26490  Biso   1.000  C
  C3087    1.0000 0.91280  0.95491  0.28937  Biso   1.000  C
  C3088    1.0000 0.89970  0.96810  0.30900  Biso   1.000  C
  C3089    1.0000 0.88250  0.98950  0.30420  Biso   1.000  C
  C3090    1.0000 0.87830  0.99780  0.27970  Biso   1.000  C
  C3091    1.0000 0.82500  0.93861  0.24610  Biso   1.000  C
  C3092    1.0000 0.82770  0.94885  0.27010  Biso   1.000  C
  C3093    1.0000 0.80400  0.96032  0.28160  Biso   1.000  C
  C3094    1.0000 0.77770  0.96156  0.26920  Biso   1.000  C
  C3095    1.0000 0.77500  0.95133  0.24530  Biso   1.000  C
  C3096    1.0000 0.79870  0.93985  0.23370  Biso   1.000  C
  C3097    1.0000 0.04390  0.85180  0.12830  Biso   1.000  C
  C3098    1.0000 0.04140  0.87310  0.14410  Biso   1.000  C
  C3099    1.0000 0.06420  0.87980  0.15970  Biso   1.000  C
  C3100    1.0000 0.08930  0.86510  0.15970  Biso   1.000  C
  C3101    1.0000 0.09180  0.84380  0.14390  Biso   1.000  C
  C3102    1.0000 0.06900  0.83710  0.12830  Biso   1.000  C
  C3103    1.0000 0.86630  0.94830  0.98960  Biso   1.000  C
  C3104    1.0000 0.87560  0.97070  0.00170  Biso   1.000  C
  C3105    1.0000 0.88500  0.99280  0.98460  Biso   1.000  C
  C3106    1.0000 0.88290  0.99150  0.95920  Biso   1.000  C
  C3107    1.0000 0.87390  0.96900  0.94950  Biso   1.000  C
  C3108    1.0000 0.86300  0.94740  0.96460  Biso   1.000  C
  C3109    1.0000 0.77650  0.93940  0.97760  Biso   1.000  C
  C3110    1.0000 0.76430  0.95100  0.95720  Biso   1.000  C
  C3111    1.0000 0.76470  0.93770  0.93280  Biso   1.000  C
  C3112    1.0000 0.77570  0.91140  0.93100  Biso   1.000  C
  C3113    1.0000 0.78470  0.89830  0.95480  Biso   1.000  C
  C3114    1.0000 0.78630  0.91350  0.97610  Biso   1.000  C
  C3115    1.0000 0.74980  0.97100  0.14710  Biso   1.000  C
  C3116    1.0000 0.74100  0.99620  0.15230  Biso   1.000  C
  C3117    1.0000 0.71850  0.00060  0.16900  Biso   1.000  C
  C3118    1.0000 0.70480  0.97980  0.18040  Biso   1.000  C
  C3119    1.0000 0.71360  0.95460  0.17520  Biso   1.000  C
  C3120    1.0000 0.73600  0.95020  0.15850  Biso   1.000  C
  C3121    1.0000 0.69670  0.88030  0.03350  Biso   1.000  C
  C3122    1.0000 0.67450  0.87090  0.01700  Biso   1.000  C
  C3123    1.0000 0.64580  0.86450  0.02600  Biso   1.000  C
  C3124    1.0000 0.64110  0.86480  0.05420  Biso   1.000  C
  C3125    1.0000 0.66470  0.87550  0.07190  Biso   1.000  C
  C3126    1.0000 0.69150  0.88250  0.05960  Biso   1.000  C
  C3127    1.0000 0.91120  0.05990  0.25290  Biso   1.000  C
  C3128    1.0000 0.90530  0.05550  0.27960  Biso   1.000  C
  C3129    1.0000 0.87720  0.06290  0.28830  Biso   1.000  C
  C3130    1.0000 0.85680  0.07130  0.27260  Biso   1.000  C
  C3131    1.0000 0.86240  0.07660  0.24630  Biso   1.000  C
  C3132    1.0000 0.89030  0.06960  0.23570  Biso   1.000  C
  Cd433    1.0000 0.89359  0.91020  0.14600  Biso   1.000  Cd
  Cd434    1.0000 0.95075  0.93212  0.09200  Biso   1.000  Cd
  Cd435    1.0000 0.83586  0.89207  0.09326  Biso   1.000  Cd
  Cd436    1.0000 0.89755  0.91161  0.04000  Biso   1.000  Cd
  Cd437    1.0000 0.87325  0.96301  0.08957  Biso   1.000  Cd
  Cd438    1.0000 0.97343  0.87532  0.14709  Biso   1.000  Cd
  Cd439    1.0000 0.83212  0.88937  0.20043  Biso   1.000  Cd
  Cd440    1.0000 0.81694  0.94062  0.03403  Biso   1.000  Cd
  Cd441    1.0000 0.77004  0.87238  0.04745  Biso   1.000  Cd
  Cd442    1.0000 0.95681  0.93222  0.19641  Biso   1.000  Cd
  Cd443    1.0000 0.87381  0.95710  0.20529  Biso   1.000  Cd
  Cd444    1.0000 0.81542  0.94271  0.15045  Biso   1.000  Cd
  Cd445    1.0000 0.76034  0.93492  0.09424  Biso   1.000  Cd
  Cd446    1.0000 0.92411  0.98504  0.14603  Biso   1.000  Cd
  S692     1.0000 0.85401  0.92894  0.11970  Biso   1.000  S
  S693     1.0000 0.91216  0.94655  0.17338  Biso   1.000  S
  S694     1.0000 0.93429  0.89419  0.11930  Biso   1.000  S
  S695     1.0000 0.91453  0.95020  0.06284  Biso   1.000  S
  S696     1.0000 0.79554  0.91057  0.06685  Biso   1.000  S
  S697     1.0000 0.88561  0.00177  0.11749  Biso   1.000  S
  S698     1.0000 0.79239  0.90897  0.17642  Biso   1.000  S
  S699     1.0000 0.94013  0.89086  0.01721  Biso   1.000  S
  S700     1.0000 0.85703  0.92094  0.00834  Biso   1.000  S
  S701     1.0000 0.82843  0.97646  0.06476  Biso   1.000  S
  S702     1.0000 0.99772  0.91467  0.07331  Biso   1.000  S
  S703     1.0000 0.96768  0.96362  0.12614  Biso   1.000  S
  Cd447    1.0000 0.73135  0.93955  0.02404  Biso   1.000  Cd
  Cd448    1.0000 0.93875  0.00789  0.21802  Biso   1.000  Cd
  S704     1.0000 0.77764  0.95763  0.00537  Biso   1.000  S
  S705     1.0000 0.97359  0.97024  0.22369  Biso   1.000  S
  S706     1.0000 0.84002  0.97937  0.17458  Biso   1.000  S
  S707     1.0000 0.99641  0.91405  0.16949  Biso   1.000  S
  S708     1.0000 0.00776  0.85729  0.11368  Biso   1.000  S
  S709     1.0000 0.72958  0.88993  0.02151  Biso   1.000  S
  S710     1.0000 0.88874  0.99521  0.23175  Biso   1.000  S
  S711     1.0000 0.77789  0.96764  0.12500  Biso   1.000  S
  S712     1.0000 0.94273  0.02229  0.17238  Biso   1.000  S
  S713     1.0000 0.85690  0.91950  0.23162  Biso   1.000  S
  S714     1.0000 0.72210  0.95679  0.06713  Biso   1.000  S
  S715     1.0000 0.93370  0.89989  0.22629  Biso   1.000  S
  S716     1.0000 0.94488  0.05085  0.24018  Biso   1.000  S
  C3133    1.0000 0.81360  0.00160  0.19380  Biso   1.000  C
  C3134    1.0000 0.79510  0.02410  0.22910  Biso   1.000  C
  C3135    1.0000 0.81630  0.00890  0.21840  Biso   1.000  C
  C3136    1.0000 0.79850  0.98330  0.20660  Biso   1.000  C
  C3137    1.0000 0.74490  0.77040  0.20900  Biso   1.000  C
  C3138    1.0000 0.71990  0.76670  0.22330  Biso   1.000  C
  C3139    1.0000 0.69310  0.76130  0.21250  Biso   1.000  C
  C3140    1.0000 0.69150  0.75730  0.18690  Biso   1.000  C
  C3141    1.0000 0.71510  0.75990  0.17200  Biso   1.000  C
  C3142    1.0000 0.74120  0.76770  0.18300  Biso   1.000  C
  C3143    1.0000 0.01840  0.75960  0.06560  Biso   1.000  C
  C3144    1.0000 0.01730  0.74580  0.04320  Biso   1.000  C
  C3145    1.0000 0.01130  0.71790  0.04310  Biso   1.000  C
  C3146    1.0000 0.00750  0.70450  0.06330  Biso   1.000  C
  C3147    1.0000 0.00920  0.71940  0.08480  Biso   1.000  C
  C3148    1.0000 0.01540  0.74580  0.08590  Biso   1.000  C
  C3149    1.0000 0.91170  0.74560  0.04920  Biso   1.000  C
  C3150    1.0000 0.88520  0.73530  0.04670  Biso   1.000  C
  C3151    1.0000 0.87610  0.71040  0.03350  Biso   1.000  C
  C3152    1.0000 0.89810  0.69980  0.02110  Biso   1.000  C
  C3153    1.0000 0.92730  0.70620  0.02460  Biso   1.000  C
  C3154    1.0000 0.93390  0.72720  0.03950  Biso   1.000  C
  C3155    1.0000 0.72890  0.84710  0.19180  Biso   1.000  C
  C3156    1.0000 0.70600  0.82980  0.19750  Biso   1.000  C
  C3157    1.0000 0.68530  0.83870  0.21480  Biso   1.000  C
  C3158    1.0000 0.68640  0.86500  0.22650  Biso   1.000  C
  C3159    1.0000 0.71000  0.88090  0.22100  Biso   1.000  C
  C3160    1.0000 0.73130  0.87170  0.20260  Biso   1.000  C
  C3161    1.0000 0.75670  0.76460  0.11260  Biso   1.000  C
  C3162    1.0000 0.75970  0.74000  0.11850  Biso   1.000  C
  C3163    1.0000 0.73670  0.72200  0.10820  Biso   1.000  C
  C3164    1.0000 0.71480  0.73320  0.09150  Biso   1.000  C
  C3165    1.0000 0.70970  0.76070  0.09110  Biso   1.000  C
  C3166    1.0000 0.73160  0.77640  0.10600  Biso   1.000  C
  C3167    1.0000 0.74030  0.81340  0.05130  Biso   1.000  C
  C3168    1.0000 0.75560  0.79470  0.04160  Biso   1.000  C
  C3169    1.0000 0.74440  0.77590  0.02630  Biso   1.000  C
  C3170    1.0000 0.71500  0.77790  0.01710  Biso   1.000  C
  C3171    1.0000 0.69640  0.79650  0.02770  Biso   1.000  C
  C3172    1.0000 0.71030  0.81550  0.04590  Biso   1.000  C
  C3173    1.0000 0.79460  0.83460  0.99700  Biso   1.000  C
  C3174    1.0000 0.80840  0.81210  0.99160  Biso   1.000  C
  C3175    1.0000 0.79660  0.79360  0.97640  Biso   1.000  C
  C3176    1.0000 0.76960  0.79870  0.96460  Biso   1.000  C
  C3177    1.0000 0.75750  0.82190  0.96930  Biso   1.000  C
  C3178    1.0000 0.76690  0.83600  0.98700  Biso   1.000  C
  C3179    1.0000 0.84410  0.72600  0.09840  Biso   1.000  C
  C3180    1.0000 0.82250  0.73420  0.08300  Biso   1.000  C
  C3181    1.0000 0.80560  0.71640  0.06650  Biso   1.000  C
  C3182    1.0000 0.81370  0.68800  0.06890  Biso   1.000  C
  C3183    1.0000 0.83940  0.68140  0.08580  Biso   1.000  C
  C3184    1.0000 0.85270  0.70060  0.10250  Biso   1.000  C
  C3185    1.0000 0.83470  0.70270  0.16820  Biso   1.000  C
  C3186    1.0000 0.82200  0.67830  0.16170  Biso   1.000  C
  C3187    1.0000 0.84400  0.66090  0.15660  Biso   1.000  C
  C3188    1.0000 0.87190  0.66380  0.16390  Biso   1.000  C
  C3189    1.0000 0.88280  0.68640  0.16800  Biso   1.000  C
  C3190    1.0000 0.86260  0.70910  0.17130  Biso   1.000  C
  C3191    1.0000 0.78664  0.86283  0.24656  Biso   1.000  C
  C3192    1.0000 0.78030  0.88916  0.24650  Biso   1.000  C
  C3193    1.0000 0.75810  0.89867  0.26142  Biso   1.000  C
  C3194    1.0000 0.74230  0.88180  0.27641  Biso   1.000  C
  C3195    1.0000 0.74870  0.85550  0.27647  Biso   1.000  C
  C3196    1.0000 0.77082  0.84600  0.26155  Biso   1.000  C
  C3197    1.0000 0.85850  0.76531  0.26000  Biso   1.000  C
  C3198    1.0000 0.84130  0.78678  0.26490  Biso   1.000  C
  C3199    1.0000 0.83720  0.79509  0.28937  Biso   1.000  C
  C3200    1.0000 0.85030  0.78190  0.30900  Biso   1.000  C
  C3201    1.0000 0.86750  0.76050  0.30420  Biso   1.000  C
  C3202    1.0000 0.87170  0.75220  0.27970  Biso   1.000  C
  C3203    1.0000 0.92500  0.81139  0.24610  Biso   1.000  C
  C3204    1.0000 0.92230  0.80115  0.27010  Biso   1.000  C
  C3205    1.0000 0.94600  0.78968  0.28160  Biso   1.000  C
  C3206    1.0000 0.97230  0.78844  0.26920  Biso   1.000  C
  C3207    1.0000 0.97500  0.79867  0.24530  Biso   1.000  C
  C3208    1.0000 0.95130  0.81015  0.23370  Biso   1.000  C
  C3209    1.0000 0.70610  0.89820  0.12830  Biso   1.000  C
  C3210    1.0000 0.70860  0.87690  0.14410  Biso   1.000  C
  C3211    1.0000 0.68580  0.87020  0.15970  Biso   1.000  C
  C3212    1.0000 0.66070  0.88490  0.15970  Biso   1.000  C
  C3213    1.0000 0.65820  0.90620  0.14390  Biso   1.000  C
  C3214    1.0000 0.68100  0.91290  0.12830  Biso   1.000  C
  C3215    1.0000 0.88370  0.80170  0.98960  Biso   1.000  C
  C3216    1.0000 0.87440  0.77930  0.00170  Biso   1.000  C
  C3217    1.0000 0.86500  0.75720  0.98460  Biso   1.000  C
  C3218    1.0000 0.86710  0.75850  0.95920  Biso   1.000  C
  C3219    1.0000 0.87610  0.78100  0.94950  Biso   1.000  C
  C3220    1.0000 0.88700  0.80260  0.96460  Biso   1.000  C
  C3221    1.0000 0.97350  0.81060  0.97760  Biso   1.000  C
  C3222    1.0000 0.98570  0.79900  0.95720  Biso   1.000  C
  C3223    1.0000 0.98530  0.81230  0.93280  Biso   1.000  C
  C3224    1.0000 0.97430  0.83860  0.93100  Biso   1.000  C
  C3225    1.0000 0.96530  0.85170  0.95480  Biso   1.000  C
  C3226    1.0000 0.96370  0.83650  0.97610  Biso   1.000  C
  C3227    1.0000 0.00020  0.77900  0.14710  Biso   1.000  C
  C3228    1.0000 0.00900  0.75380  0.15230  Biso   1.000  C
  C3229    1.0000 0.03150  0.74940  0.16900  Biso   1.000  C
  C3230    1.0000 0.04520  0.77020  0.18040  Biso   1.000  C
  C3231    1.0000 0.03640  0.79540  0.17520  Biso   1.000  C
  C3232    1.0000 0.01400  0.79980  0.15850  Biso   1.000  C
  C3233    1.0000 0.05330  0.86970  0.03350  Biso   1.000  C
  C3234    1.0000 0.07550  0.87910  0.01700  Biso   1.000  C
  C3235    1.0000 0.10420  0.88550  0.02600  Biso   1.000  C
  C3236    1.0000 0.10890  0.88520  0.05420  Biso   1.000  C
  C3237    1.0000 0.08530  0.87450  0.07190  Biso   1.000  C
  C3238    1.0000 0.05850  0.86750  0.05960  Biso   1.000  C
  C3239    1.0000 0.83880  0.69010  0.25290  Biso   1.000  C
  C3240    1.0000 0.84470  0.69450  0.27960  Biso   1.000  C
  C3241    1.0000 0.87280  0.68710  0.28830  Biso   1.000  C
  C3242    1.0000 0.89320  0.67870  0.27260  Biso   1.000  C
  C3243    1.0000 0.88760  0.67340  0.24630  Biso   1.000  C
  C3244    1.0000 0.85970  0.68040  0.23570  Biso   1.000  C
  Cd449    1.0000 0.85641  0.83980  0.14600  Biso   1.000  Cd
  Cd450    1.0000 0.79925  0.81788  0.09200  Biso   1.000  Cd
  Cd451    1.0000 0.91414  0.85793  0.09326  Biso   1.000  Cd
  Cd452    1.0000 0.85245  0.83839  0.04000  Biso   1.000  Cd
  Cd453    1.0000 0.87675  0.78699  0.08957  Biso   1.000  Cd
  Cd454    1.0000 0.77657  0.87468  0.14709  Biso   1.000  Cd
  Cd455    1.0000 0.91788  0.86063  0.20043  Biso   1.000  Cd
  Cd456    1.0000 0.93306  0.80938  0.03403  Biso   1.000  Cd
  Cd457    1.0000 0.97996  0.87762  0.04745  Biso   1.000  Cd
  Cd458    1.0000 0.79319  0.81778  0.19641  Biso   1.000  Cd
  Cd459    1.0000 0.87619  0.79290  0.20529  Biso   1.000  Cd
  Cd460    1.0000 0.93458  0.80729  0.15045  Biso   1.000  Cd
  Cd461    1.0000 0.98966  0.81508  0.09424  Biso   1.000  Cd
  Cd462    1.0000 0.82589  0.76496  0.14603  Biso   1.000  Cd
  S717     1.0000 0.89599  0.82106  0.11970  Biso   1.000  S
  S718     1.0000 0.83784  0.80345  0.17338  Biso   1.000  S
  S719     1.0000 0.81571  0.85581  0.11930  Biso   1.000  S
  S720     1.0000 0.83547  0.79980  0.06284  Biso   1.000  S
  S721     1.0000 0.95446  0.83943  0.06685  Biso   1.000  S
  S722     1.0000 0.86439  0.74823  0.11749  Biso   1.000  S
  S723     1.0000 0.95761  0.84103  0.17642  Biso   1.000  S
  S724     1.0000 0.80987  0.85914  0.01721  Biso   1.000  S
  S725     1.0000 0.89297  0.82906  0.00834  Biso   1.000  S
  S726     1.0000 0.92157  0.77354  0.06476  Biso   1.000  S
  S727     1.0000 0.75228  0.83533  0.07331  Biso   1.000  S
  S728     1.0000 0.78232  0.78638  0.12614  Biso   1.000  S
  Cd463    1.0000 0.01865  0.81045  0.02404  Biso   1.000  Cd
  Cd464    1.0000 0.81125  0.74211  0.21802  Biso   1.000  Cd
  S729     1.0000 0.97236  0.79237  0.00537  Biso   1.000  S
  S730     1.0000 0.77641  0.77976  0.22369  Biso   1.000  S
  S731     1.0000 0.90998  0.77063  0.17458  Biso   1.000  S
  S732     1.0000 0.75359  0.83595  0.16949  Biso   1.000  S
  S733     1.0000 0.74224  0.89271  0.11368  Biso   1.000  S
  S734     1.0000 0.02042  0.86007  0.02151  Biso   1.000  S
  S735     1.0000 0.86126  0.75479  0.23175  Biso   1.000  S
  S736     1.0000 0.97211  0.78236  0.12500  Biso   1.000  S
  S737     1.0000 0.80727  0.72771  0.17238  Biso   1.000  S
  S738     1.0000 0.89310  0.83050  0.23162  Biso   1.000  S
  S739     1.0000 0.02790  0.79321  0.06713  Biso   1.000  S
  S740     1.0000 0.81630  0.85011  0.22629  Biso   1.000  S
  S741     1.0000 0.80512  0.69915  0.24018  Biso   1.000  S
  C3245    1.0000 0.93640  0.74840  0.19380  Biso   1.000  C
  C3246    1.0000 0.95490  0.72590  0.22910  Biso   1.000  C
  C3247    1.0000 0.93370  0.74110  0.21840  Biso   1.000  C
  C3248    1.0000 0.95150  0.76670  0.20660  Biso   1.000  C
  C3249    1.0000 0.74490  0.27040  0.70900  Biso   1.000  C
  C3250    1.0000 0.71990  0.26670  0.72330  Biso   1.000  C
  C3251    1.0000 0.69310  0.26130  0.71250  Biso   1.000  C
  C3252    1.0000 0.69150  0.25730  0.68690  Biso   1.000  C
  C3253    1.0000 0.71510  0.25990  0.67200  Biso   1.000  C
  C3254    1.0000 0.74120  0.26770  0.68300  Biso   1.000  C
  C3255    1.0000 0.01840  0.25960  0.56560  Biso   1.000  C
  C3256    1.0000 0.01730  0.24580  0.54320  Biso   1.000  C
  C3257    1.0000 0.01130  0.21790  0.54310  Biso   1.000  C
  C3258    1.0000 0.00750  0.20450  0.56330  Biso   1.000  C
  C3259    1.0000 0.00920  0.21940  0.58480  Biso   1.000  C
  C3260    1.0000 0.01540  0.24580  0.58590  Biso   1.000  C
  C3261    1.0000 0.91170  0.24560  0.54920  Biso   1.000  C
  C3262    1.0000 0.88520  0.23530  0.54670  Biso   1.000  C
  C3263    1.0000 0.87610  0.21040  0.53350  Biso   1.000  C
  C3264    1.0000 0.89810  0.19980  0.52110  Biso   1.000  C
  C3265    1.0000 0.92730  0.20620  0.52460  Biso   1.000  C
  C3266    1.0000 0.93390  0.22720  0.53950  Biso   1.000  C
  C3267    1.0000 0.72890  0.34710  0.69180  Biso   1.000  C
  C3268    1.0000 0.70600  0.32980  0.69750  Biso   1.000  C
  C3269    1.0000 0.68530  0.33870  0.71480  Biso   1.000  C
  C3270    1.0000 0.68640  0.36500  0.72650  Biso   1.000  C
  C3271    1.0000 0.71000  0.38090  0.72100  Biso   1.000  C
  C3272    1.0000 0.73130  0.37170  0.70260  Biso   1.000  C
  C3273    1.0000 0.75670  0.26460  0.61260  Biso   1.000  C
  C3274    1.0000 0.75970  0.24000  0.61850  Biso   1.000  C
  C3275    1.0000 0.73670  0.22200  0.60820  Biso   1.000  C
  C3276    1.0000 0.71480  0.23320  0.59150  Biso   1.000  C
  C3277    1.0000 0.70970  0.26070  0.59110  Biso   1.000  C
  C3278    1.0000 0.73160  0.27640  0.60600  Biso   1.000  C
  C3279    1.0000 0.74030  0.31340  0.55130  Biso   1.000  C
  C3280    1.0000 0.75560  0.29470  0.54160  Biso   1.000  C
  C3281    1.0000 0.74440  0.27590  0.52630  Biso   1.000  C
  C3282    1.0000 0.71500  0.27790  0.51710  Biso   1.000  C
  C3283    1.0000 0.69640  0.29650  0.52770  Biso   1.000  C
  C3284    1.0000 0.71030  0.31550  0.54590  Biso   1.000  C
  C3285    1.0000 0.79460  0.33460  0.49700  Biso   1.000  C
  C3286    1.0000 0.80840  0.31210  0.49160  Biso   1.000  C
  C3287    1.0000 0.79660  0.29360  0.47640  Biso   1.000  C
  C3288    1.0000 0.76960  0.29870  0.46460  Biso   1.000  C
  C3289    1.0000 0.75750  0.32190  0.46930  Biso   1.000  C
  C3290    1.0000 0.76690  0.33600  0.48700  Biso   1.000  C
  C3291    1.0000 0.84410  0.22600  0.59840  Biso   1.000  C
  C3292    1.0000 0.82250  0.23420  0.58300  Biso   1.000  C
  C3293    1.0000 0.80560  0.21640  0.56650  Biso   1.000  C
  C3294    1.0000 0.81370  0.18800  0.56890  Biso   1.000  C
  C3295    1.0000 0.83940  0.18140  0.58580  Biso   1.000  C
  C3296    1.0000 0.85270  0.20060  0.60250  Biso   1.000  C
  C3297    1.0000 0.83470  0.20270  0.66820  Biso   1.000  C
  C3298    1.0000 0.82200  0.17830  0.66170  Biso   1.000  C
  C3299    1.0000 0.84400  0.16090  0.65660  Biso   1.000  C
  C3300    1.0000 0.87190  0.16380  0.66390  Biso   1.000  C
  C3301    1.0000 0.88280  0.18640  0.66800  Biso   1.000  C
  C3302    1.0000 0.86260  0.20910  0.67130  Biso   1.000  C
  C3303    1.0000 0.78664  0.36283  0.74656  Biso   1.000  C
  C3304    1.0000 0.78030  0.38916  0.74650  Biso   1.000  C
  C3305    1.0000 0.75810  0.39867  0.76142  Biso   1.000  C
  C3306    1.0000 0.74230  0.38180  0.77641  Biso   1.000  C
  C3307    1.0000 0.74870  0.35550  0.77647  Biso   1.000  C
  C3308    1.0000 0.77082  0.34600  0.76155  Biso   1.000  C
  C3309    1.0000 0.85850  0.26531  0.76000  Biso   1.000  C
  C3310    1.0000 0.84130  0.28678  0.76490  Biso   1.000  C
  C3311    1.0000 0.83720  0.29509  0.78937  Biso   1.000  C
  C3312    1.0000 0.85030  0.28190  0.80900  Biso   1.000  C
  C3313    1.0000 0.86750  0.26050  0.80420  Biso   1.000  C
  C3314    1.0000 0.87170  0.25220  0.77970  Biso   1.000  C
  C3315    1.0000 0.92500  0.31139  0.74610  Biso   1.000  C
  C3316    1.0000 0.92230  0.30115  0.77010  Biso   1.000  C
  C3317    1.0000 0.94600  0.28968  0.78160  Biso   1.000  C
  C3318    1.0000 0.97230  0.28844  0.76920  Biso   1.000  C
  C3319    1.0000 0.97500  0.29867  0.74530  Biso   1.000  C
  C3320    1.0000 0.95130  0.31015  0.73370  Biso   1.000  C
  C3321    1.0000 0.70610  0.39820  0.62830  Biso   1.000  C
  C3322    1.0000 0.70860  0.37690  0.64410  Biso   1.000  C
  C3323    1.0000 0.68580  0.37020  0.65970  Biso   1.000  C
  C3324    1.0000 0.66070  0.38490  0.65970  Biso   1.000  C
  C3325    1.0000 0.65820  0.40620  0.64390  Biso   1.000  C
  C3326    1.0000 0.68100  0.41290  0.62830  Biso   1.000  C
  C3327    1.0000 0.88370  0.30170  0.48960  Biso   1.000  C
  C3328    1.0000 0.87440  0.27930  0.50170  Biso   1.000  C
  C3329    1.0000 0.86500  0.25720  0.48460  Biso   1.000  C
  C3330    1.0000 0.86710  0.25850  0.45920  Biso   1.000  C
  C3331    1.0000 0.87610  0.28100  0.44950  Biso   1.000  C
  C3332    1.0000 0.88700  0.30260  0.46460  Biso   1.000  C
  C3333    1.0000 0.97350  0.31060  0.47760  Biso   1.000  C
  C3334    1.0000 0.98570  0.29900  0.45720  Biso   1.000  C
  C3335    1.0000 0.98530  0.31230  0.43280  Biso   1.000  C
  C3336    1.0000 0.97430  0.33860  0.43100  Biso   1.000  C
  C3337    1.0000 0.96530  0.35170  0.45480  Biso   1.000  C
  C3338    1.0000 0.96370  0.33650  0.47610  Biso   1.000  C
  C3339    1.0000 0.00020  0.27900  0.64710  Biso   1.000  C
  C3340    1.0000 0.00900  0.25380  0.65230  Biso   1.000  C
  C3341    1.0000 0.03150  0.24940  0.66900  Biso   1.000  C
  C3342    1.0000 0.04520  0.27020  0.68040  Biso   1.000  C
  C3343    1.0000 0.03640  0.29540  0.67520  Biso   1.000  C
  C3344    1.0000 0.01400  0.29980  0.65850  Biso   1.000  C
  C3345    1.0000 0.05330  0.36970  0.53350  Biso   1.000  C
  C3346    1.0000 0.07550  0.37910  0.51700  Biso   1.000  C
  C3347    1.0000 0.10420  0.38550  0.52600  Biso   1.000  C
  C3348    1.0000 0.10890  0.38520  0.55420  Biso   1.000  C
  C3349    1.0000 0.08530  0.37450  0.57190  Biso   1.000  C
  C3350    1.0000 0.05850  0.36750  0.55960  Biso   1.000  C
  C3351    1.0000 0.83880  0.19010  0.75290  Biso   1.000  C
  C3352    1.0000 0.84470  0.19450  0.77960  Biso   1.000  C
  C3353    1.0000 0.87280  0.18710  0.78830  Biso   1.000  C
  C3354    1.0000 0.89320  0.17870  0.77260  Biso   1.000  C
  C3355    1.0000 0.88760  0.17340  0.74630  Biso   1.000  C
  C3356    1.0000 0.85970  0.18040  0.73570  Biso   1.000  C
  Cd465    1.0000 0.85641  0.33980  0.64600  Biso   1.000  Cd
  Cd466    1.0000 0.79925  0.31788  0.59200  Biso   1.000  Cd
  Cd467    1.0000 0.91414  0.35793  0.59326  Biso   1.000  Cd
  Cd468    1.0000 0.85245  0.33839  0.54000  Biso   1.000  Cd
  Cd469    1.0000 0.87675  0.28699  0.58957  Biso   1.000  Cd
  Cd470    1.0000 0.77657  0.37468  0.64709  Biso   1.000  Cd
  Cd471    1.0000 0.91788  0.36063  0.70043  Biso   1.000  Cd
  Cd472    1.0000 0.93306  0.30938  0.53403  Biso   1.000  Cd
  Cd473    1.0000 0.97996  0.37762  0.54745  Biso   1.000  Cd
  Cd474    1.0000 0.79319  0.31778  0.69641  Biso   1.000  Cd
  Cd475    1.0000 0.87619  0.29290  0.70529  Biso   1.000  Cd
  Cd476    1.0000 0.93458  0.30729  0.65045  Biso   1.000  Cd
  Cd477    1.0000 0.98966  0.31508  0.59424  Biso   1.000  Cd
  Cd478    1.0000 0.82589  0.26496  0.64603  Biso   1.000  Cd
  S742     1.0000 0.89599  0.32106  0.61970  Biso   1.000  S
  S743     1.0000 0.83784  0.30345  0.67338  Biso   1.000  S
  S744     1.0000 0.81571  0.35581  0.61930  Biso   1.000  S
  S745     1.0000 0.83547  0.29980  0.56284  Biso   1.000  S
  S746     1.0000 0.95446  0.33943  0.56685  Biso   1.000  S
  S747     1.0000 0.86439  0.24823  0.61749  Biso   1.000  S
  S748     1.0000 0.95761  0.34103  0.67642  Biso   1.000  S
  S749     1.0000 0.80987  0.35914  0.51721  Biso   1.000  S
  S750     1.0000 0.89297  0.32906  0.50834  Biso   1.000  S
  S751     1.0000 0.92157  0.27354  0.56476  Biso   1.000  S
  S752     1.0000 0.75228  0.33533  0.57331  Biso   1.000  S
  S753     1.0000 0.78232  0.28638  0.62614  Biso   1.000  S
  Cd479    1.0000 0.01865  0.31045  0.52404  Biso   1.000  Cd
  Cd480    1.0000 0.81125  0.24211  0.71802  Biso   1.000  Cd
  S754     1.0000 0.97236  0.29237  0.50537  Biso   1.000  S
  S755     1.0000 0.77641  0.27976  0.72369  Biso   1.000  S
  S756     1.0000 0.90998  0.27063  0.67458  Biso   1.000  S
  S757     1.0000 0.75359  0.33595  0.66949  Biso   1.000  S
  S758     1.0000 0.74224  0.39271  0.61368  Biso   1.000  S
  S759     1.0000 0.02042  0.36007  0.52151  Biso   1.000  S
  S760     1.0000 0.86126  0.25479  0.73175  Biso   1.000  S
  S761     1.0000 0.97211  0.28236  0.62500  Biso   1.000  S
  S762     1.0000 0.80727  0.22771  0.67238  Biso   1.000  S
  S763     1.0000 0.89310  0.33050  0.73162  Biso   1.000  S
  S764     1.0000 0.02790  0.29321  0.56713  Biso   1.000  S
  S765     1.0000 0.81630  0.35011  0.72629  Biso   1.000  S
  S766     1.0000 0.80512  0.19915  0.74018  Biso   1.000  S
  C3357    1.0000 0.93640  0.24840  0.69380  Biso   1.000  C
  C3358    1.0000 0.95490  0.22590  0.72910  Biso   1.000  C
  C3359    1.0000 0.93370  0.24110  0.71840  Biso   1.000  C
  C3360    1.0000 0.95150  0.26670  0.70660  Biso   1.000  C
  C3361    1.0000 0.24490  0.77040  0.70900  Biso   1.000  C
  C3362    1.0000 0.21990  0.76670  0.72330  Biso   1.000  C
  C3363    1.0000 0.19310  0.76130  0.71250  Biso   1.000  C
  C3364    1.0000 0.19150  0.75730  0.68690  Biso   1.000  C
  C3365    1.0000 0.21510  0.75990  0.67200  Biso   1.000  C
  C3366    1.0000 0.24120  0.76770  0.68300  Biso   1.000  C
  C3367    1.0000 0.51840  0.75960  0.56560  Biso   1.000  C
  C3368    1.0000 0.51730  0.74580  0.54320  Biso   1.000  C
  C3369    1.0000 0.51130  0.71790  0.54310  Biso   1.000  C
  C3370    1.0000 0.50750  0.70450  0.56330  Biso   1.000  C
  C3371    1.0000 0.50920  0.71940  0.58480  Biso   1.000  C
  C3372    1.0000 0.51540  0.74580  0.58590  Biso   1.000  C
  C3373    1.0000 0.41170  0.74560  0.54920  Biso   1.000  C
  C3374    1.0000 0.38520  0.73530  0.54670  Biso   1.000  C
  C3375    1.0000 0.37610  0.71040  0.53350  Biso   1.000  C
  C3376    1.0000 0.39810  0.69980  0.52110  Biso   1.000  C
  C3377    1.0000 0.42730  0.70620  0.52460  Biso   1.000  C
  C3378    1.0000 0.43390  0.72720  0.53950  Biso   1.000  C
  C3379    1.0000 0.22890  0.84710  0.69180  Biso   1.000  C
  C3380    1.0000 0.20600  0.82980  0.69750  Biso   1.000  C
  C3381    1.0000 0.18530  0.83870  0.71480  Biso   1.000  C
  C3382    1.0000 0.18640  0.86500  0.72650  Biso   1.000  C
  C3383    1.0000 0.21000  0.88090  0.72100  Biso   1.000  C
  C3384    1.0000 0.23130  0.87170  0.70260  Biso   1.000  C
  C3385    1.0000 0.25670  0.76460  0.61260  Biso   1.000  C
  C3386    1.0000 0.25970  0.74000  0.61850  Biso   1.000  C
  C3387    1.0000 0.23670  0.72200  0.60820  Biso   1.000  C
  C3388    1.0000 0.21480  0.73320  0.59150  Biso   1.000  C
  C3389    1.0000 0.20970  0.76070  0.59110  Biso   1.000  C
  C3390    1.0000 0.23160  0.77640  0.60600  Biso   1.000  C
  C3391    1.0000 0.24030  0.81340  0.55130  Biso   1.000  C
  C3392    1.0000 0.25560  0.79470  0.54160  Biso   1.000  C
  C3393    1.0000 0.24440  0.77590  0.52630  Biso   1.000  C
  C3394    1.0000 0.21500  0.77790  0.51710  Biso   1.000  C
  C3395    1.0000 0.19640  0.79650  0.52770  Biso   1.000  C
  C3396    1.0000 0.21030  0.81550  0.54590  Biso   1.000  C
  C3397    1.0000 0.29460  0.83460  0.49700  Biso   1.000  C
  C3398    1.0000 0.30840  0.81210  0.49160  Biso   1.000  C
  C3399    1.0000 0.29660  0.79360  0.47640  Biso   1.000  C
  C3400    1.0000 0.26960  0.79870  0.46460  Biso   1.000  C
  C3401    1.0000 0.25750  0.82190  0.46930  Biso   1.000  C
  C3402    1.0000 0.26690  0.83600  0.48700  Biso   1.000  C
  C3403    1.0000 0.34410  0.72600  0.59840  Biso   1.000  C
  C3404    1.0000 0.32250  0.73420  0.58300  Biso   1.000  C
  C3405    1.0000 0.30560  0.71640  0.56650  Biso   1.000  C
  C3406    1.0000 0.31370  0.68800  0.56890  Biso   1.000  C
  C3407    1.0000 0.33940  0.68140  0.58580  Biso   1.000  C
  C3408    1.0000 0.35270  0.70060  0.60250  Biso   1.000  C
  C3409    1.0000 0.33470  0.70270  0.66820  Biso   1.000  C
  C3410    1.0000 0.32200  0.67830  0.66170  Biso   1.000  C
  C3411    1.0000 0.34400  0.66090  0.65660  Biso   1.000  C
  C3412    1.0000 0.37190  0.66380  0.66390  Biso   1.000  C
  C3413    1.0000 0.38280  0.68640  0.66800  Biso   1.000  C
  C3414    1.0000 0.36260  0.70910  0.67130  Biso   1.000  C
  C3415    1.0000 0.28664  0.86283  0.74656  Biso   1.000  C
  C3416    1.0000 0.28030  0.88916  0.74650  Biso   1.000  C
  C3417    1.0000 0.25810  0.89867  0.76142  Biso   1.000  C
  C3418    1.0000 0.24230  0.88180  0.77641  Biso   1.000  C
  C3419    1.0000 0.24870  0.85550  0.77647  Biso   1.000  C
  C3420    1.0000 0.27082  0.84600  0.76155  Biso   1.000  C
  C3421    1.0000 0.35850  0.76531  0.76000  Biso   1.000  C
  C3422    1.0000 0.34130  0.78678  0.76490  Biso   1.000  C
  C3423    1.0000 0.33720  0.79509  0.78937  Biso   1.000  C
  C3424    1.0000 0.35030  0.78190  0.80900  Biso   1.000  C
  C3425    1.0000 0.36750  0.76050  0.80420  Biso   1.000  C
  C3426    1.0000 0.37170  0.75220  0.77970  Biso   1.000  C
  C3427    1.0000 0.42500  0.81139  0.74610  Biso   1.000  C
  C3428    1.0000 0.42230  0.80115  0.77010  Biso   1.000  C
  C3429    1.0000 0.44600  0.78968  0.78160  Biso   1.000  C
  C3430    1.0000 0.47230  0.78844  0.76920  Biso   1.000  C
  C3431    1.0000 0.47500  0.79867  0.74530  Biso   1.000  C
  C3432    1.0000 0.45130  0.81015  0.73370  Biso   1.000  C
  C3433    1.0000 0.20610  0.89820  0.62830  Biso   1.000  C
  C3434    1.0000 0.20860  0.87690  0.64410  Biso   1.000  C
  C3435    1.0000 0.18580  0.87020  0.65970  Biso   1.000  C
  C3436    1.0000 0.16070  0.88490  0.65970  Biso   1.000  C
  C3437    1.0000 0.15820  0.90620  0.64390  Biso   1.000  C
  C3438    1.0000 0.18100  0.91290  0.62830  Biso   1.000  C
  C3439    1.0000 0.38370  0.80170  0.48960  Biso   1.000  C
  C3440    1.0000 0.37440  0.77930  0.50170  Biso   1.000  C
  C3441    1.0000 0.36500  0.75720  0.48460  Biso   1.000  C
  C3442    1.0000 0.36710  0.75850  0.45920  Biso   1.000  C
  C3443    1.0000 0.37610  0.78100  0.44950  Biso   1.000  C
  C3444    1.0000 0.38700  0.80260  0.46460  Biso   1.000  C
  C3445    1.0000 0.47350  0.81060  0.47760  Biso   1.000  C
  C3446    1.0000 0.48570  0.79900  0.45720  Biso   1.000  C
  C3447    1.0000 0.48530  0.81230  0.43280  Biso   1.000  C
  C3448    1.0000 0.47430  0.83860  0.43100  Biso   1.000  C
  C3449    1.0000 0.46530  0.85170  0.45480  Biso   1.000  C
  C3450    1.0000 0.46370  0.83650  0.47610  Biso   1.000  C
  C3451    1.0000 0.50020  0.77900  0.64710  Biso   1.000  C
  C3452    1.0000 0.50900  0.75380  0.65230  Biso   1.000  C
  C3453    1.0000 0.53150  0.74940  0.66900  Biso   1.000  C
  C3454    1.0000 0.54520  0.77020  0.68040  Biso   1.000  C
  C3455    1.0000 0.53640  0.79540  0.67520  Biso   1.000  C
  C3456    1.0000 0.51400  0.79980  0.65850  Biso   1.000  C
  C3457    1.0000 0.55330  0.86970  0.53350  Biso   1.000  C
  C3458    1.0000 0.57550  0.87910  0.51700  Biso   1.000  C
  C3459    1.0000 0.60420  0.88550  0.52600  Biso   1.000  C
  C3460    1.0000 0.60890  0.88520  0.55420  Biso   1.000  C
  C3461    1.0000 0.58530  0.87450  0.57190  Biso   1.000  C
  C3462    1.0000 0.55850  0.86750  0.55960  Biso   1.000  C
  C3463    1.0000 0.33880  0.69010  0.75290  Biso   1.000  C
  C3464    1.0000 0.34470  0.69450  0.77960  Biso   1.000  C
  C3465    1.0000 0.37280  0.68710  0.78830  Biso   1.000  C
  C3466    1.0000 0.39320  0.67870  0.77260  Biso   1.000  C
  C3467    1.0000 0.38760  0.67340  0.74630  Biso   1.000  C
  C3468    1.0000 0.35970  0.68040  0.73570  Biso   1.000  C
  Cd481    1.0000 0.35641  0.83980  0.64600  Biso   1.000  Cd
  Cd482    1.0000 0.29925  0.81788  0.59200  Biso   1.000  Cd
  Cd483    1.0000 0.41414  0.85793  0.59326  Biso   1.000  Cd
  Cd484    1.0000 0.35245  0.83839  0.54000  Biso   1.000  Cd
  Cd485    1.0000 0.37675  0.78699  0.58957  Biso   1.000  Cd
  Cd486    1.0000 0.27657  0.87468  0.64709  Biso   1.000  Cd
  Cd487    1.0000 0.41788  0.86063  0.70043  Biso   1.000  Cd
  Cd488    1.0000 0.43306  0.80938  0.53403  Biso   1.000  Cd
  Cd489    1.0000 0.47996  0.87762  0.54745  Biso   1.000  Cd
  Cd490    1.0000 0.29319  0.81778  0.69641  Biso   1.000  Cd
  Cd491    1.0000 0.37619  0.79290  0.70529  Biso   1.000  Cd
  Cd492    1.0000 0.43458  0.80729  0.65045  Biso   1.000  Cd
  Cd493    1.0000 0.48966  0.81508  0.59424  Biso   1.000  Cd
  Cd494    1.0000 0.32589  0.76496  0.64603  Biso   1.000  Cd
  S767     1.0000 0.39599  0.82106  0.61970  Biso   1.000  S
  S768     1.0000 0.33784  0.80345  0.67338  Biso   1.000  S
  S769     1.0000 0.31571  0.85581  0.61930  Biso   1.000  S
  S770     1.0000 0.33547  0.79980  0.56284  Biso   1.000  S
  S771     1.0000 0.45446  0.83943  0.56685  Biso   1.000  S
  S772     1.0000 0.36439  0.74823  0.61749  Biso   1.000  S
  S773     1.0000 0.45761  0.84103  0.67642  Biso   1.000  S
  S774     1.0000 0.30987  0.85914  0.51721  Biso   1.000  S
  S775     1.0000 0.39297  0.82906  0.50834  Biso   1.000  S
  S776     1.0000 0.42157  0.77354  0.56476  Biso   1.000  S
  S777     1.0000 0.25228  0.83533  0.57331  Biso   1.000  S
  S778     1.0000 0.28232  0.78638  0.62614  Biso   1.000  S
  Cd495    1.0000 0.51865  0.81045  0.52404  Biso   1.000  Cd
  Cd496    1.0000 0.31125  0.74211  0.71802  Biso   1.000  Cd
  S779     1.0000 0.47236  0.79237  0.50537  Biso   1.000  S
  S780     1.0000 0.27641  0.77976  0.72369  Biso   1.000  S
  S781     1.0000 0.40998  0.77063  0.67458  Biso   1.000  S
  S782     1.0000 0.25359  0.83595  0.66949  Biso   1.000  S
  S783     1.0000 0.24224  0.89271  0.61368  Biso   1.000  S
  S784     1.0000 0.52042  0.86007  0.52151  Biso   1.000  S
  S785     1.0000 0.36126  0.75479  0.73175  Biso   1.000  S
  S786     1.0000 0.47211  0.78236  0.62500  Biso   1.000  S
  S787     1.0000 0.30727  0.72771  0.67238  Biso   1.000  S
  S788     1.0000 0.39310  0.83050  0.73162  Biso   1.000  S
  S789     1.0000 0.52790  0.79321  0.56713  Biso   1.000  S
  S790     1.0000 0.31630  0.85011  0.72629  Biso   1.000  S
  S791     1.0000 0.30512  0.69915  0.74018  Biso   1.000  S
  C3469    1.0000 0.43640  0.74840  0.69380  Biso   1.000  C
  C3470    1.0000 0.45490  0.72590  0.72910  Biso   1.000  C
  C3471    1.0000 0.43370  0.74110  0.71840  Biso   1.000  C
  C3472    1.0000 0.45150  0.76670  0.70660  Biso   1.000  C
  C3473    1.0000 0.24490  0.27040  0.20900  Biso   1.000  C
  C3474    1.0000 0.21990  0.26670  0.22330  Biso   1.000  C
  C3475    1.0000 0.19310  0.26130  0.21250  Biso   1.000  C
  C3476    1.0000 0.19150  0.25730  0.18690  Biso   1.000  C
  C3477    1.0000 0.21510  0.25990  0.17200  Biso   1.000  C
  C3478    1.0000 0.24120  0.26770  0.18300  Biso   1.000  C
  C3479    1.0000 0.51840  0.25960  0.06560  Biso   1.000  C
  C3480    1.0000 0.51730  0.24580  0.04320  Biso   1.000  C
  C3481    1.0000 0.51130  0.21790  0.04310  Biso   1.000  C
  C3482    1.0000 0.50750  0.20450  0.06330  Biso   1.000  C
  C3483    1.0000 0.50920  0.21940  0.08480  Biso   1.000  C
  C3484    1.0000 0.51540  0.24580  0.08590  Biso   1.000  C
  C3485    1.0000 0.41170  0.24560  0.04920  Biso   1.000  C
  C3486    1.0000 0.38520  0.23530  0.04670  Biso   1.000  C
  C3487    1.0000 0.37610  0.21040  0.03350  Biso   1.000  C
  C3488    1.0000 0.39810  0.19980  0.02110  Biso   1.000  C
  C3489    1.0000 0.42730  0.20620  0.02460  Biso   1.000  C
  C3490    1.0000 0.43390  0.22720  0.03950  Biso   1.000  C
  C3491    1.0000 0.22890  0.34710  0.19180  Biso   1.000  C
  C3492    1.0000 0.20600  0.32980  0.19750  Biso   1.000  C
  C3493    1.0000 0.18530  0.33870  0.21480  Biso   1.000  C
  C3494    1.0000 0.18640  0.36500  0.22650  Biso   1.000  C
  C3495    1.0000 0.21000  0.38090  0.22100  Biso   1.000  C
  C3496    1.0000 0.23130  0.37170  0.20260  Biso   1.000  C
  C3497    1.0000 0.25670  0.26460  0.11260  Biso   1.000  C
  C3498    1.0000 0.25970  0.24000  0.11850  Biso   1.000  C
  C3499    1.0000 0.23670  0.22200  0.10820  Biso   1.000  C
  C3500    1.0000 0.21480  0.23320  0.09150  Biso   1.000  C
  C3501    1.0000 0.20970  0.26070  0.09110  Biso   1.000  C
  C3502    1.0000 0.23160  0.27640  0.10600  Biso   1.000  C
  C3503    1.0000 0.24030  0.31340  0.05130  Biso   1.000  C
  C3504    1.0000 0.25560  0.29470  0.04160  Biso   1.000  C
  C3505    1.0000 0.24440  0.27590  0.02630  Biso   1.000  C
  C3506    1.0000 0.21500  0.27790  0.01710  Biso   1.000  C
  C3507    1.0000 0.19640  0.29650  0.02770  Biso   1.000  C
  C3508    1.0000 0.21030  0.31550  0.04590  Biso   1.000  C
  C3509    1.0000 0.29460  0.33460  0.99700  Biso   1.000  C
  C3510    1.0000 0.30840  0.31210  0.99160  Biso   1.000  C
  C3511    1.0000 0.29660  0.29360  0.97640  Biso   1.000  C
  C3512    1.0000 0.26960  0.29870  0.96460  Biso   1.000  C
  C3513    1.0000 0.25750  0.32190  0.96930  Biso   1.000  C
  C3514    1.0000 0.26690  0.33600  0.98700  Biso   1.000  C
  C3515    1.0000 0.34410  0.22600  0.09840  Biso   1.000  C
  C3516    1.0000 0.32250  0.23420  0.08300  Biso   1.000  C
  C3517    1.0000 0.30560  0.21640  0.06650  Biso   1.000  C
  C3518    1.0000 0.31370  0.18800  0.06890  Biso   1.000  C
  C3519    1.0000 0.33940  0.18140  0.08580  Biso   1.000  C
  C3520    1.0000 0.35270  0.20060  0.10250  Biso   1.000  C
  C3521    1.0000 0.33470  0.20270  0.16820  Biso   1.000  C
  C3522    1.0000 0.32200  0.17830  0.16170  Biso   1.000  C
  C3523    1.0000 0.34400  0.16090  0.15660  Biso   1.000  C
  C3524    1.0000 0.37190  0.16380  0.16390  Biso   1.000  C
  C3525    1.0000 0.38280  0.18640  0.16800  Biso   1.000  C
  C3526    1.0000 0.36260  0.20910  0.17130  Biso   1.000  C
  C3527    1.0000 0.28664  0.36283  0.24656  Biso   1.000  C
  C3528    1.0000 0.28030  0.38916  0.24650  Biso   1.000  C
  C3529    1.0000 0.25810  0.39867  0.26142  Biso   1.000  C
  C3530    1.0000 0.24230  0.38180  0.27641  Biso   1.000  C
  C3531    1.0000 0.24870  0.35550  0.27647  Biso   1.000  C
  C3532    1.0000 0.27082  0.34600  0.26155  Biso   1.000  C
  C3533    1.0000 0.35850  0.26531  0.26000  Biso   1.000  C
  C3534    1.0000 0.34130  0.28678  0.26490  Biso   1.000  C
  C3535    1.0000 0.33720  0.29509  0.28937  Biso   1.000  C
  C3536    1.0000 0.35030  0.28190  0.30900  Biso   1.000  C
  C3537    1.0000 0.36750  0.26050  0.30420  Biso   1.000  C
  C3538    1.0000 0.37170  0.25220  0.27970  Biso   1.000  C
  C3539    1.0000 0.42500  0.31139  0.24610  Biso   1.000  C
  C3540    1.0000 0.42230  0.30115  0.27010  Biso   1.000  C
  C3541    1.0000 0.44600  0.28968  0.28160  Biso   1.000  C
  C3542    1.0000 0.47230  0.28844  0.26920  Biso   1.000  C
  C3543    1.0000 0.47500  0.29867  0.24530  Biso   1.000  C
  C3544    1.0000 0.45130  0.31015  0.23370  Biso   1.000  C
  C3545    1.0000 0.20610  0.39820  0.12830  Biso   1.000  C
  C3546    1.0000 0.20860  0.37690  0.14410  Biso   1.000  C
  C3547    1.0000 0.18580  0.37020  0.15970  Biso   1.000  C
  C3548    1.0000 0.16070  0.38490  0.15970  Biso   1.000  C
  C3549    1.0000 0.15820  0.40620  0.14390  Biso   1.000  C
  C3550    1.0000 0.18100  0.41290  0.12830  Biso   1.000  C
  C3551    1.0000 0.38370  0.30170  0.98960  Biso   1.000  C
  C3552    1.0000 0.37440  0.27930  0.00170  Biso   1.000  C
  C3553    1.0000 0.36500  0.25720  0.98460  Biso   1.000  C
  C3554    1.0000 0.36710  0.25850  0.95920  Biso   1.000  C
  C3555    1.0000 0.37610  0.28100  0.94950  Biso   1.000  C
  C3556    1.0000 0.38700  0.30260  0.96460  Biso   1.000  C
  C3557    1.0000 0.47350  0.31060  0.97760  Biso   1.000  C
  C3558    1.0000 0.48570  0.29900  0.95720  Biso   1.000  C
  C3559    1.0000 0.48530  0.31230  0.93280  Biso   1.000  C
  C3560    1.0000 0.47430  0.33860  0.93100  Biso   1.000  C
  C3561    1.0000 0.46530  0.35170  0.95480  Biso   1.000  C
  C3562    1.0000 0.46370  0.33650  0.97610  Biso   1.000  C
  C3563    1.0000 0.50020  0.27900  0.14710  Biso   1.000  C
  C3564    1.0000 0.50900  0.25380  0.15230  Biso   1.000  C
  C3565    1.0000 0.53150  0.24940  0.16900  Biso   1.000  C
  C3566    1.0000 0.54520  0.27020  0.18040  Biso   1.000  C
  C3567    1.0000 0.53640  0.29540  0.17520  Biso   1.000  C
  C3568    1.0000 0.51400  0.29980  0.15850  Biso   1.000  C
  C3569    1.0000 0.55330  0.36970  0.03350  Biso   1.000  C
  C3570    1.0000 0.57550  0.37910  0.01700  Biso   1.000  C
  C3571    1.0000 0.60420  0.38550  0.02600  Biso   1.000  C
  C3572    1.0000 0.60890  0.38520  0.05420  Biso   1.000  C
  C3573    1.0000 0.58530  0.37450  0.07190  Biso   1.000  C
  C3574    1.0000 0.55850  0.36750  0.05960  Biso   1.000  C
  C3575    1.0000 0.33880  0.19010  0.25290  Biso   1.000  C
  C3576    1.0000 0.34470  0.19450  0.27960  Biso   1.000  C
  C3577    1.0000 0.37280  0.18710  0.28830  Biso   1.000  C
  C3578    1.0000 0.39320  0.17870  0.27260  Biso   1.000  C
  C3579    1.0000 0.38760  0.17340  0.24630  Biso   1.000  C
  C3580    1.0000 0.35970  0.18040  0.23570  Biso   1.000  C
  Cd497    1.0000 0.35641  0.33980  0.14600  Biso   1.000  Cd
  Cd498    1.0000 0.29925  0.31788  0.09200  Biso   1.000  Cd
  Cd499    1.0000 0.41414  0.35793  0.09326  Biso   1.000  Cd
  Cd500    1.0000 0.35245  0.33839  0.04000  Biso   1.000  Cd
  Cd501    1.0000 0.37675  0.28699  0.08957  Biso   1.000  Cd
  Cd502    1.0000 0.27657  0.37468  0.14709  Biso   1.000  Cd
  Cd503    1.0000 0.41788  0.36063  0.20043  Biso   1.000  Cd
  Cd504    1.0000 0.43306  0.30938  0.03403  Biso   1.000  Cd
  Cd505    1.0000 0.47996  0.37762  0.04745  Biso   1.000  Cd
  Cd506    1.0000 0.29319  0.31778  0.19641  Biso   1.000  Cd
  Cd507    1.0000 0.37619  0.29290  0.20529  Biso   1.000  Cd
  Cd508    1.0000 0.43458  0.30729  0.15045  Biso   1.000  Cd
  Cd509    1.0000 0.48966  0.31508  0.09424  Biso   1.000  Cd
  Cd510    1.0000 0.32589  0.26496  0.14603  Biso   1.000  Cd
  S792     1.0000 0.39599  0.32106  0.11970  Biso   1.000  S
  S793     1.0000 0.33784  0.30345  0.17338  Biso   1.000  S
  S794     1.0000 0.31571  0.35581  0.11930  Biso   1.000  S
  S795     1.0000 0.33547  0.29980  0.06284  Biso   1.000  S
  S796     1.0000 0.45446  0.33943  0.06685  Biso   1.000  S
  S797     1.0000 0.36439  0.24823  0.11749  Biso   1.000  S
  S798     1.0000 0.45761  0.34103  0.17642  Biso   1.000  S
  S799     1.0000 0.30987  0.35914  0.01721  Biso   1.000  S
  S800     1.0000 0.39297  0.32906  0.00834  Biso   1.000  S
  S801     1.0000 0.42157  0.27354  0.06476  Biso   1.000  S
  S802     1.0000 0.25228  0.33533  0.07331  Biso   1.000  S
  S803     1.0000 0.28232  0.28638  0.12614  Biso   1.000  S
  Cd511    1.0000 0.51865  0.31045  0.02404  Biso   1.000  Cd
  Cd512    1.0000 0.31125  0.24211  0.21802  Biso   1.000  Cd
  S804     1.0000 0.47236  0.29237  0.00537  Biso   1.000  S
  S805     1.0000 0.27641  0.27976  0.22369  Biso   1.000  S
  S806     1.0000 0.40998  0.27063  0.17458  Biso   1.000  S
  S807     1.0000 0.25359  0.33595  0.16949  Biso   1.000  S
  S808     1.0000 0.24224  0.39271  0.11368  Biso   1.000  S
  S809     1.0000 0.52042  0.36007  0.02151  Biso   1.000  S
  S810     1.0000 0.36126  0.25479  0.23175  Biso   1.000  S
  S811     1.0000 0.47211  0.28236  0.12500  Biso   1.000  S
  S812     1.0000 0.30727  0.22771  0.17238  Biso   1.000  S
  S813     1.0000 0.39310  0.33050  0.23162  Biso   1.000  S
  S814     1.0000 0.52790  0.29321  0.06713  Biso   1.000  S
  S815     1.0000 0.31630  0.35011  0.22629  Biso   1.000  S
  S816     1.0000 0.30512  0.19915  0.24018  Biso   1.000  S
  C3581    1.0000 0.43640  0.24840  0.19380  Biso   1.000  C
  C3582    1.0000 0.45490  0.22590  0.22910  Biso   1.000  C
  C3583    1.0000 0.43370  0.24110  0.21840  Biso   1.000  C
  C3584    1.0000 0.45150  0.26670  0.20660  Biso   1.000  C
  S817     1.0000 0.12500  0.62500  0.81494  Biso   1.000  S
  S818     1.0000 0.12500  0.62500  0.92438  Biso   1.000  S
  S819     1.0000 0.12500  0.12500  0.31494  Biso   1.000  S
  S820     1.0000 0.12500  0.12500  0.42438  Biso   1.000  S
  S821     1.0000 0.62500  0.62500  0.31494  Biso   1.000  S
  S822     1.0000 0.62500  0.62500  0.42438  Biso   1.000  S
  S823     1.0000 0.62500  0.12500  0.81494  Biso   1.000  S
  S824     1.0000 0.62500  0.12500  0.92438  Biso   1.000  S
  S825     1.0000 0.37500  0.37500  0.06494  Biso   1.000  S
  S826     1.0000 0.37500  0.37500  0.17438  Biso   1.000  S
  S827     1.0000 0.37500  0.87500  0.56494  Biso   1.000  S
  S828     1.0000 0.37500  0.87500  0.67438  Biso   1.000  S
  S829     1.0000 0.87500  0.87500  0.06494  Biso   1.000  S
  S830     1.0000 0.87500  0.87500  0.17438  Biso   1.000  S
  S831     1.0000 0.87500  0.37500  0.56494  Biso   1.000  S
  S832     1.0000 0.87500  0.37500  0.67438  Biso   1.000  S
