data_image0
_cell_length_a       48.448
_cell_length_b       48.898
_cell_length_c       35.851
_cell_angle_alpha    90
_cell_angle_beta     131.502
_cell_angle_gamma    90

_symmetry_space_group_name_H-M    "P 1"
_symmetry_int_tables_number       1

loop_
  _symmetry_equiv_pos_as_xyz
  'x, y, z'

loop_
  _atom_site_label
  _atom_site_occupancy
  _atom_site_fract_x
  _atom_site_fract_y
  _atom_site_fract_z
  _atom_site_thermal_displace_type
  _atom_site_B_iso_or_equiv
  _atom_site_type_symbol
  C1       1.0000 0.33420  0.51690  0.62310  Biso   1.000  C
  C2       1.0000 0.30630  0.50240  0.58050  Biso   1.000  C
  C3       1.0000 0.30330  0.47430  0.58310  Biso   1.000  C
  C4       1.0000 0.32820  0.46080  0.62840  Biso   1.000  C
  C5       1.0000 0.35610  0.47540  0.67100  Biso   1.000  C
  C6       1.0000 0.35910  0.50340  0.66840  Biso   1.000  C
  C7       1.0000 0.05600  0.55630  0.60250  Biso   1.000  C
  C8       1.0000 0.02690  0.54670  0.59810  Biso   1.000  C
  C9       1.0000 0.99960  0.53060  0.55760  Biso   1.000  C
  C10      1.0000 0.00130  0.52410  0.52140  Biso   1.000  C
  C11      1.0000 0.03040  0.53370  0.52580  Biso   1.000  C
  C12      1.0000 0.05770  0.54980  0.56630  Biso   1.000  C
  C13      1.0000 0.09250  0.63630  0.75220  Biso   1.000  C
  C14      1.0000 0.05630  0.64560  0.71860  Biso   1.000  C
  C15      1.0000 0.03560  0.64710  0.73270  Biso   1.000  C
  C16      1.0000 0.05120  0.63930  0.78040  Biso   1.000  C
  C17      1.0000 0.08730  0.63000  0.81400  Biso   1.000  C
  C18      1.0000 0.10800  0.62850  0.79990  Biso   1.000  C
  C19      1.0000 0.13460  0.56331  0.47580  Biso   1.000  C
  C20      1.0000 0.11690  0.56750  0.42610  Biso   1.000  C
  C21      1.0000 0.09330  0.54770  0.39080  Biso   1.000  C
  C22      1.0000 0.08730  0.52366  0.40530  Biso   1.000  C
  C23      1.0000 0.10490  0.51947  0.45500  Biso   1.000  C
  C24      1.0000 0.12860  0.53930  0.49030  Biso   1.000  C
  C25      1.0000 0.41590  0.72760  0.04290  Biso   1.000  C
  C26      1.0000 0.42840  0.73990  0.08670  Biso   1.000  C
  C27      1.0000 0.45680  0.72790  0.13240  Biso   1.000  C
  C28      1.0000 0.47260  0.70360  0.13430  Biso   1.000  C
  C29      1.0000 0.46010  0.69130  0.09050  Biso   1.000  C
  C30      1.0000 0.43170  0.70330  0.04480  Biso   1.000  C
  C31      1.0000 0.21330  0.46720  0.69060  Biso   1.000  C
  C32      1.0000 0.22490  0.44100  0.69160  Biso   1.000  C
  C33      1.0000 0.19910  0.42100  0.65980  Biso   1.000  C
  C34      1.0000 0.16170  0.42720  0.62700  Biso   1.000  C
  C35      1.0000 0.15010  0.45340  0.62600  Biso   1.000  C
  C36      1.0000 0.17590  0.47340  0.65780  Biso   1.000  C
  C37      1.0000 0.34340  0.57800  0.51350  Biso   1.000  C
  C38      1.0000 0.37330  0.56180  0.55030  Biso   1.000  C
  C39      1.0000 0.40900  0.57170  0.57770  Biso   1.000  C
  C40      1.0000 0.41470  0.59760  0.56820  Biso   1.000  C
  C41      1.0000 0.38480  0.61380  0.53130  Biso   1.000  C
  C42      1.0000 0.34910  0.60390  0.50400  Biso   1.000  C
  C43      1.0000 0.14000  0.49600  0.70610  Biso   1.000  C
  C44      1.0000 0.14390  0.47150  0.72880  Biso   1.000  C
  C45      1.0000 0.11560  0.45230  0.70290  Biso   1.000  C
  C46      1.0000 0.08350  0.45770  0.65430  Biso   1.000  C
  C47      1.0000 0.07960  0.48220  0.63160  Biso   1.000  C
  C48      1.0000 0.10790  0.50130  0.65750  Biso   1.000  C
  C49      1.0000 0.36400  0.48850  0.84470  Biso   1.000  C
  C50      1.0000 0.39480  0.48080  0.89280  Biso   1.000  C
  C51      1.0000 0.41780  0.46020  0.90020  Biso   1.000  C
  C52      1.0000 0.40990  0.44730  0.85960  Biso   1.000  C
  C53      1.0000 0.37910  0.45500  0.81150  Biso   1.000  C
  C54      1.0000 0.35610  0.47560  0.80400  Biso   1.000  C
  C55      1.0000 0.15540  0.71600  0.81020  Biso   1.000  C
  C56      1.0000 0.15420  0.69280  0.83140  Biso   1.000  C
  C57      1.0000 0.14570  0.69510  0.86150  Biso   1.000  C
  C58      1.0000 0.13850  0.72060  0.87040  Biso   1.000  C
  C59      1.0000 0.13960  0.74390  0.84910  Biso   1.000  C
  C60      1.0000 0.14810  0.74160  0.81900  Biso   1.000  C
  C61      1.0000 0.05800  0.59080  0.49090  Biso   1.000  C
  C62      1.0000 0.02570  0.60190  0.45500  Biso   1.000  C
  C63      1.0000 0.00890  0.56190  0.40750  Biso   1.000  C
  C64      1.0000 0.06380  0.56870  0.47650  Biso   1.000  C
  C65      1.0000 0.23230  0.49870  0.59400  Biso   1.000  C
  C66      1.0000 0.20160  0.49290  0.54470  Biso   1.000  C
  C67      1.0000 0.19290  0.46590  0.52840  Biso   1.000  C
  C68      1.0000 0.21490  0.44480  0.56150  Biso   1.000  C
  C69      1.0000 0.24550  0.45060  0.61080  Biso   1.000  C
  C70      1.0000 0.25420  0.47760  0.62700  Biso   1.000  C
  C71      1.0000 0.40090  0.53320  0.78800  Biso   1.000  C
  C72      1.0000 0.42430  0.55820  0.80350  Biso   1.000  C
  C73      1.0000 0.46630  0.54970  0.85070  Biso   1.000  C
  C74      1.0000 0.42550  0.51370  0.83200  Biso   1.000  C
  C75      1.0000 0.33160  0.68230  0.00840  Biso   1.000  C
  C76      1.0000 0.29490  0.68450  0.99510  Biso   1.000  C
  C77      1.0000 0.29880  0.70580  0.02900  Biso   1.000  C
  C78      1.0000 0.34140  0.69980  0.07760  Biso   1.000  C
  C79      1.0000 0.36480  0.68590  0.06100  Biso   1.000  C
  C80      1.0000 0.42390  0.55260  0.98390  Biso   1.000  C
  C81      1.0000 0.44810  0.55020  0.03730  Biso   1.000  C
  C82      1.0000 0.48450  0.53650  0.05880  Biso   1.000  C
  C83      1.0000 0.49020  0.52880  0.02710  Biso   1.000  C
  C84      1.0000 0.46880  0.53140  0.97750  Biso   1.000  C
  C85      1.0000 0.43050  0.54330  0.95520  Biso   1.000  C
  C86      1.0000 0.93380  0.68930  0.54240  Biso   1.000  C
  C87      1.0000 0.95730  0.69170  0.59490  Biso   1.000  C
  C88      1.0000 0.94470  0.68360  0.61820  Biso   1.000  C
  C89      1.0000 0.90730  0.67500  0.59200  Biso   1.000  C
  C90      1.0000 0.87890  0.67600  0.53560  Biso   1.000  C
  C91      1.0000 0.89600  0.68320  0.51350  Biso   1.000  C
  C92      1.0000 0.34110  0.75970  0.73520  Biso   1.000  C
  C93      1.0000 0.25530  0.83840  0.73060  Biso   1.000  C
  C94      1.0000 0.30030  0.64320  0.52430  Biso   1.000  C
  C95      1.0000 0.25920  0.83530  0.69540  Biso   1.000  C
  C96      1.0000 0.12090  0.81590  0.57240  Biso   1.000  C
  C97      1.0000 0.52650  0.66780  0.92770  Biso   1.000  C
  C98      1.0000 0.13890  0.50830  0.36040  Biso   1.000  C
  C99      1.0000 0.13430  0.73750  0.52670  Biso   1.000  C
  C100     1.0000 0.12600  0.76180  0.49930  Biso   1.000  C
  C101     1.0000 0.27690  0.58050  0.00630  Biso   1.000  C
  C102     1.0000 0.25390  0.81300  0.75490  Biso   1.000  C
  C103     1.0000 0.26410  0.81090  0.68350  Biso   1.000  C
  C104     1.0000 0.34440  0.85300  0.89240  Biso   1.000  C
  C105     1.0000 0.22850  0.68480  0.49370  Biso   1.000  C
  C106     1.0000 0.18660  0.49910  0.35860  Biso   1.000  C
  C107     1.0000 0.53830  0.61690  0.04900  Biso   1.000  C
  C108     1.0000 0.46850  0.60640  0.99270  Biso   1.000  C
  C109     1.0000 0.16530  0.50460  0.41250  Biso   1.000  C
  C110     1.0000 0.09370  0.79860  0.56100  Biso   1.000  C
  C111     1.0000 0.19560  0.60600  0.45560  Biso   1.000  C
  C112     1.0000 0.96590  0.66740  0.37480  Biso   1.000  C
  C113     1.0000 0.17410  0.62290  0.41310  Biso   1.000  C
  C114     1.0000 0.50930  0.59540  0.02070  Biso   1.000  C
  C115     1.0000 0.34850  0.80520  0.88070  Biso   1.000  C
  C116     1.0000 0.10230  0.77380  0.58380  Biso   1.000  C
  C117     1.0000 0.21320  0.73110  0.46610  Biso   1.000  C
  C118     1.0000 0.50740  0.62220  0.93540  Biso   1.000  C
  C119     1.0000 0.32070  0.60360  0.35520  Biso   1.000  C
  C120     1.0000 0.49440  0.74910  0.88650  Biso   1.000  C
  C121     1.0000 0.32100  0.79820  0.88180  Biso   1.000  C
  C122     1.0000 0.31920  0.68340  0.49910  Biso   1.000  C
  C123     1.0000 0.11580  0.71410  0.49960  Biso   1.000  C
  C124     1.0000 0.32170  0.57620  0.33860  Biso   1.000  C
  C125     1.0000 0.18540  0.61760  0.93670  Biso   1.000  C
  C126     1.0000 0.14840  0.50640  0.33220  Biso   1.000  C
  C127     1.0000 0.17190  0.58620  0.36540  Biso   1.000  C
  C128     1.0000 0.16640  0.78050  0.63040  Biso   1.000  C
  C129     1.0000 0.32030  0.78580  0.66190  Biso   1.000  C
  C130     1.0000 0.29010  0.67530  0.44700  Biso   1.000  C
  C131     1.0000 0.08350  0.73790  0.42280  Biso   1.000  C
  C132     1.0000 0.22850  0.70660  0.46890  Biso   1.000  C
  C133     1.0000 0.48850  0.67690  0.89670  Biso   1.000  C
  C134     1.0000 0.19400  0.60860  0.90820  Biso   1.000  C
  C135     1.0000 0.10110  0.76120  0.44810  Biso   1.000  C
  C136     1.0000 0.31980  0.76190  0.68330  Biso   1.000  C
  C137     1.0000 0.16330  0.59830  0.93960  Biso   1.000  C
  C138     1.0000 0.26290  0.78660  0.70480  Biso   1.000  C
  C139     1.0000 0.51860  0.74330  0.93890  Biso   1.000  C
  C140     1.0000 0.26540  0.65340  0.43180  Biso   1.000  C
  C141     1.0000 0.21070  0.49470  0.41030  Biso   1.000  C
  C142     1.0000 0.31540  0.84640  0.89100  Biso   1.000  C
  C143     1.0000 0.36260  0.80660  0.74310  Biso   1.000  C
  C144     1.0000 0.53390  0.64200  0.94880  Biso   1.000  C
  C145     1.0000 0.95170  0.68310  0.39050  Biso   1.000  C
  C146     1.0000 0.20010  0.49710  0.43710  Biso   1.000  C
  C147     1.0000 0.18010  0.58510  0.88230  Biso   1.000  C
  C148     1.0000 0.41520  0.61730  0.74810  Biso   1.000  C
  C149     1.0000 0.19950  0.71230  0.51570  Biso   1.000  C
  C150     1.0000 0.52880  0.64470  0.05080  Biso   1.000  C
  C151     1.0000 0.36360  0.78190  0.76650  Biso   1.000  C
  C152     1.0000 0.46070  0.65810  0.88420  Biso   1.000  C
  C153     1.0000 0.46360  0.63510  0.99720  Biso   1.000  C
  C154     1.0000 0.50500  0.73520  0.96000  Biso   1.000  C
  C155     1.0000 0.34050  0.80830  0.69140  Biso   1.000  C
  C156     1.0000 0.97500  0.69520  0.43700  Biso   1.000  C
  C157     1.0000 0.46670  0.73290  0.93170  Biso   1.000  C
  C158     1.0000 0.09040  0.71330  0.44830  Biso   1.000  C
  C159     1.0000 0.21420  0.68790  0.51780  Biso   1.000  C
  C160     1.0000 0.30200  0.60930  0.37080  Biso   1.000  C
  C161     1.0000 0.20410  0.57920  0.45280  Biso   1.000  C
  C162     1.0000 0.01280  0.69070  0.46910  Biso   1.000  C
  C163     1.0000 0.49010  0.65270  0.01910  Biso   1.000  C
  C164     1.0000 0.25940  0.78840  0.73960  Biso   1.000  C
  C165     1.0000 0.19780  0.73440  0.48910  Biso   1.000  C
  C166     1.0000 0.44270  0.73930  0.88190  Biso   1.000  C
  C167     1.0000 0.13720  0.76450  0.61790  Biso   1.000  C
  C168     1.0000 0.36000  0.83120  0.88510  Biso   1.000  C
  C169     1.0000 0.45580  0.74760  0.85830  Biso   1.000  C
  C170     1.0000 0.32730  0.66470  0.54250  Biso   1.000  C
  C171     1.0000 0.29750  0.55570  0.33470  Biso   1.000  C
  C172     1.0000 0.98460  0.61940  0.51500  Biso   1.000  C
  C173     1.0000 0.14750  0.57500  0.91340  Biso   1.000  C
  C174     1.0000 0.19350  0.56840  0.40960  Biso   1.000  C
  C175     1.0000 0.30550  0.82000  0.88970  Biso   1.000  C
  C176     1.0000 0.15710  0.80620  0.60560  Biso   1.000  C
  C177     1.0000 0.16270  0.61290  0.36700  Biso   1.000  C
  C178     1.0000 0.27270  0.63780  0.47150  Biso   1.000  C
  C179     1.0000 0.46920  0.63150  0.90210  Biso   1.000  C
  C180     1.0000 0.27710  0.56140  0.34500  Biso   1.000  C
  C181     1.0000 0.27870  0.58710  0.36590  Biso   1.000  C
  C182     1.0000 0.00470  0.66340  0.40690  Biso   1.000  C
  C183     1.0000 0.15560  0.56720  0.88190  Biso   1.000  C
  C184     1.0000 0.02820  0.67530  0.45430  Biso   1.000  C
  C185     1.0000 0.26900  0.74610  0.90860  Biso   1.000  C
  C186     1.0000 0.08150  0.78300  0.69160  Biso   1.000  C
  C187     1.0000 0.29200  0.75610  0.95120  Biso   1.000  C
  C188     1.0000 0.07970  0.75400  0.69440  Biso   1.000  C
  C189     1.0000 0.03300  0.78350  0.59960  Biso   1.000  C
  C190     1.0000 0.05920  0.79800  0.64360  Biso   1.000  C
  C191     1.0000 0.03230  0.75280  0.60270  Biso   1.000  C
  C192     1.0000 0.41940  0.71820  0.71170  Biso   1.000  C
  C193     1.0000 0.39170  0.72370  0.66220  Biso   1.000  C
  C194     1.0000 0.35380  0.71450  0.63470  Biso   1.000  C
  C195     1.0000 0.41490  0.70380  0.74260  Biso   1.000  C
  C196     1.0000 0.37670  0.69480  0.71480  Biso   1.000  C
  C197     1.0000 0.05660  0.74030  0.64820  Biso   1.000  C
  C198     1.0000 0.34820  0.69970  0.66540  Biso   1.000  C
  C199     1.0000 0.29860  0.59800  0.99730  Biso   1.000  C
  C200     1.0000 0.27320  0.59050  0.03990  Biso   1.000  C
  S1       1.0000 0.34175  0.69872  0.86162  Biso   1.000  S
  S2       1.0000 0.19799  0.63117  0.63675  Biso   1.000  S
  S3       1.0000 0.23103  0.68091  0.75433  Biso   1.000  S
  S4       1.0000 0.19554  0.60120  0.74393  Biso   1.000  S
  S5       1.0000 0.30752  0.65255  0.74546  Biso   1.000  S
  S6       1.0000 0.27246  0.57268  0.73826  Biso   1.000  S
  S7       1.0000 0.30655  0.62231  0.85456  Biso   1.000  S
  S8       1.0000 0.45119  0.72168  0.96230  Biso   1.000  S
  S9       1.0000 0.26993  0.54461  0.84472  Biso   1.000  S
  S10      1.0000 0.12396  0.65998  0.64571  Biso   1.000  S
  S11      1.0000 0.34285  0.72994  0.76480  Biso   1.000  S
  S12      1.0000 0.08926  0.61395  0.53951  Biso   1.000  S
  S13      1.0000 0.23052  0.71566  0.64489  Biso   1.000  S
  S14      1.0000 0.27577  0.60005  0.63473  Biso   1.000  S
  S15      1.0000 0.16051  0.58965  0.51850  Biso   1.000  S
  S16      1.0000 0.21347  0.65813  0.54567  Biso   1.000  S
  S17      1.0000 0.36978  0.77983  0.87147  Biso   1.000  S
  S18      1.0000 0.04096  0.70687  0.52794  Biso   1.000  S
  S19      1.0000 0.25841  0.75849  0.76761  Biso   1.000  S
  S20      1.0000 0.17342  0.52214  0.74597  Biso   1.000  S
  S21      1.0000 0.14808  0.73228  0.64875  Biso   1.000  S
  S22      1.0000 0.16120  0.54869  0.62324  Biso   1.000  S
  S23      1.0000 0.12554  0.68210  0.53124  Biso   1.000  S
  S24      1.0000 0.41458  0.67079  0.84350  Biso   1.000  S
  S25      1.0000 0.23046  0.55711  0.50346  Biso   1.000  S
  S26      1.0000 0.22897  0.65166  0.86479  Biso   1.000  S
  S27      1.0000 0.41543  0.64604  0.95925  Biso   1.000  S
  S28      1.0000 0.38031  0.74431  0.98590  Biso   1.000  S
  S29      1.0000 0.30251  0.69134  0.63453  Biso   1.000  S
  S30      1.0000 0.38590  0.59136  0.84881  Biso   1.000  S
  S31      1.0000 0.16376  0.71644  0.76926  Biso   1.000  S
  S32      1.0000 0.05378  0.70404  0.65359  Biso   1.000  S
  S33      1.0000 0.25772  0.48524  0.44194  Biso   1.000  S
  S34      1.0000 0.27471  0.72762  0.87162  Biso   1.000  S
  S35      1.0000 0.18530  0.57377  0.83914  Biso   1.000  S
  S36      1.0000 0.35029  0.53569  0.74066  Biso   1.000  S
  S37      1.0000 0.24640  0.49320  0.72710  Biso   1.000  S
  S38      1.0000 0.24709  0.53768  0.33912  Biso   1.000  S
  S39      1.0000 0.24814  0.53015  0.62563  Biso   1.000  S
  S40      1.0000 0.34611  0.66346  0.97392  Biso   1.000  S
  S41      1.0000 0.11718  0.63535  0.73286  Biso   1.000  S
  S42      1.0000 0.36899  0.61942  0.72145  Biso   1.000  S
  S43      1.0000 0.38114  0.56991  0.95862  Biso   1.000  S
  S44      1.0000 0.30797  0.62375  0.56652  Biso   1.000  S
  S45      1.0000 0.34819  0.50416  0.46445  Biso   1.000  S
  S46      1.0000 0.01972  0.63475  0.57344  Biso   1.000  S
  S47      1.0000 0.33539  0.51590  0.83646  Biso   1.000  S
  S48      1.0000 0.30268  0.58850  0.95546  Biso   1.000  S
  S49      1.0000 0.34440  0.55345  0.62659  Biso   1.000  S
  S50      1.0000 0.09156  0.57545  0.64500  Biso   1.000  S
  S51      1.0000 0.94855  0.69692  0.50987  Biso   1.000  S
  S52      1.0000 0.29984  0.56660  0.47808  Biso   1.000  S
  Cd1      1.0000 0.18922  0.64258  0.69696  Biso   1.000  Cd
  Cd2      1.0000 0.26324  0.61453  0.69029  Biso   1.000  Cd
  Cd3      1.0000 0.26130  0.58592  0.79532  Biso   1.000  Cd
  Cd4      1.0000 0.21701  0.72175  0.69976  Biso   1.000  Cd
  Cd5      1.0000 0.15243  0.59278  0.58272  Biso   1.000  Cd
  Cd6      1.0000 0.29518  0.66263  0.80206  Biso   1.000  Cd
  Cd7      1.0000 0.37071  0.63037  0.79393  Biso   1.000  Cd
  Cd8      1.0000 0.37244  0.60695  0.90095  Biso   1.000  Cd
  Cd9      1.0000 0.15683  0.56104  0.68650  Biso   1.000  Cd
  Cd10     1.0000 0.22722  0.53689  0.67492  Biso   1.000  Cd
  Cd11     1.0000 0.10907  0.69468  0.58261  Biso   1.000  Cd
  Cd12     1.0000 0.32306  0.74291  0.81326  Biso   1.000  Cd
  Cd13     1.0000 0.19570  0.67442  0.59531  Biso   1.000  Cd
  Cd14     1.0000 0.33841  0.55647  0.79400  Biso   1.000  Cd
  Cd15     1.0000 0.08066  0.61954  0.60263  Biso   1.000  Cd
  Cd16     1.0000 0.29106  0.63281  0.90841  Biso   1.000  Cd
  Cd17     1.0000 0.33802  0.70586  0.92800  Biso   1.000  Cd
  Cd18     1.0000 0.01677  0.68615  0.56583  Biso   1.000  Cd
  Cd19     1.0000 0.29388  0.69675  0.69750  Biso   1.000  Cd
  Cd20     1.0000 0.40616  0.68374  0.90328  Biso   1.000  Cd
  Cd21     1.0000 0.28265  0.64321  0.60355  Biso   1.000  Cd
  Cd22     1.0000 0.28721  0.52323  0.43046  Biso   1.000  Cd
  Cd23     1.0000 0.22523  0.69096  0.81837  Biso   1.000  Cd
  Cd24     1.0000 0.23729  0.50360  0.78728  Biso   1.000  Cd
  Cd25     1.0000 0.22373  0.57006  0.56557  Biso   1.000  Cd
  Cd26     1.0000 0.18391  0.61778  0.79989  Biso   1.000  Cd
  Cd27     1.0000 0.25019  0.55636  0.89279  Biso   1.000  Cd
  Cd28     1.0000 0.11754  0.68273  0.70295  Biso   1.000  Cd
  Cd29     1.0000 0.33722  0.53178  0.90551  Biso   1.000  Cd
  Cd30     1.0000 0.29345  0.57414  0.54210  Biso   1.000  Cd
  Cd31     1.0000 0.41441  0.75986  0.95899  Biso   1.000  Cd
  Cd32     1.0000 0.33568  0.57389  0.68333  Biso   1.000  Cd
  C201     1.0000 0.29990  0.62280  0.02500  Biso   1.000  C
  C202     1.0000 0.46700  0.52250  0.85300  Biso   1.000  C
  C203     1.0000 0.95920  0.62460  0.45690  Biso   1.000  C
  C204     1.0000 0.03590  0.55090  0.44200  Biso   1.000  C
  C205     1.0000 0.38480  0.52510  0.48230  Biso   1.000  C
  C206     1.0000 0.47940  0.63180  0.80140  Biso   1.000  C
  C207     1.0000 0.99360  0.58300  0.40400  Biso   1.000  C
  C208     1.0000 0.41490  0.59260  0.71700  Biso   1.000  C
  C209     1.0000 0.25030  0.78870  0.92760  Biso   1.000  C
  C210     1.0000 0.43910  0.63010  0.77880  Biso   1.000  C
  C211     1.0000 0.48910  0.61190  0.79220  Biso   1.000  C
  C212     1.0000 0.28860  0.77850  0.97220  Biso   1.000  C
  C213     1.0000 0.83420  0.01690  0.62310  Biso   1.000  C
  C214     1.0000 0.80630  0.00240  0.58050  Biso   1.000  C
  C215     1.0000 0.80330  0.97430  0.58310  Biso   1.000  C
  C216     1.0000 0.82820  0.96080  0.62840  Biso   1.000  C
  C217     1.0000 0.85610  0.97540  0.67100  Biso   1.000  C
  C218     1.0000 0.85910  0.00340  0.66840  Biso   1.000  C
  C219     1.0000 0.55600  0.05630  0.60250  Biso   1.000  C
  C220     1.0000 0.52690  0.04670  0.59810  Biso   1.000  C
  C221     1.0000 0.49960  0.03060  0.55760  Biso   1.000  C
  C222     1.0000 0.50130  0.02410  0.52140  Biso   1.000  C
  C223     1.0000 0.53040  0.03370  0.52580  Biso   1.000  C
  C224     1.0000 0.55770  0.04980  0.56630  Biso   1.000  C
  C225     1.0000 0.59250  0.13630  0.75220  Biso   1.000  C
  C226     1.0000 0.55630  0.14560  0.71860  Biso   1.000  C
  C227     1.0000 0.53560  0.14710  0.73270  Biso   1.000  C
  C228     1.0000 0.55120  0.13930  0.78040  Biso   1.000  C
  C229     1.0000 0.58730  0.13000  0.81400  Biso   1.000  C
  C230     1.0000 0.60800  0.12850  0.79990  Biso   1.000  C
  C231     1.0000 0.63460  0.06331  0.47580  Biso   1.000  C
  C232     1.0000 0.61690  0.06750  0.42610  Biso   1.000  C
  C233     1.0000 0.59330  0.04770  0.39080  Biso   1.000  C
  C234     1.0000 0.58730  0.02366  0.40530  Biso   1.000  C
  C235     1.0000 0.60490  0.01947  0.45500  Biso   1.000  C
  C236     1.0000 0.62860  0.03930  0.49030  Biso   1.000  C
  C237     1.0000 0.91590  0.22760  0.04290  Biso   1.000  C
  C238     1.0000 0.92840  0.23990  0.08670  Biso   1.000  C
  C239     1.0000 0.95680  0.22790  0.13240  Biso   1.000  C
  C240     1.0000 0.97260  0.20360  0.13430  Biso   1.000  C
  C241     1.0000 0.96010  0.19130  0.09050  Biso   1.000  C
  C242     1.0000 0.93170  0.20330  0.04480  Biso   1.000  C
  C243     1.0000 0.71330  0.96720  0.69060  Biso   1.000  C
  C244     1.0000 0.72490  0.94100  0.69160  Biso   1.000  C
  C245     1.0000 0.69910  0.92100  0.65980  Biso   1.000  C
  C246     1.0000 0.66170  0.92720  0.62700  Biso   1.000  C
  C247     1.0000 0.65010  0.95340  0.62600  Biso   1.000  C
  C248     1.0000 0.67590  0.97340  0.65780  Biso   1.000  C
  C249     1.0000 0.84340  0.07800  0.51350  Biso   1.000  C
  C250     1.0000 0.87330  0.06180  0.55030  Biso   1.000  C
  C251     1.0000 0.90900  0.07170  0.57770  Biso   1.000  C
  C252     1.0000 0.91470  0.09760  0.56820  Biso   1.000  C
  C253     1.0000 0.88480  0.11380  0.53130  Biso   1.000  C
  C254     1.0000 0.84910  0.10390  0.50400  Biso   1.000  C
  C255     1.0000 0.64000  0.99600  0.70610  Biso   1.000  C
  C256     1.0000 0.64390  0.97150  0.72880  Biso   1.000  C
  C257     1.0000 0.61560  0.95230  0.70290  Biso   1.000  C
  C258     1.0000 0.58350  0.95770  0.65430  Biso   1.000  C
  C259     1.0000 0.57960  0.98220  0.63160  Biso   1.000  C
  C260     1.0000 0.60790  0.00130  0.65750  Biso   1.000  C
  C261     1.0000 0.86400  0.98850  0.84470  Biso   1.000  C
  C262     1.0000 0.89480  0.98080  0.89280  Biso   1.000  C
  C263     1.0000 0.91780  0.96020  0.90020  Biso   1.000  C
  C264     1.0000 0.90990  0.94730  0.85960  Biso   1.000  C
  C265     1.0000 0.87910  0.95500  0.81150  Biso   1.000  C
  C266     1.0000 0.85610  0.97560  0.80400  Biso   1.000  C
  C267     1.0000 0.65540  0.21600  0.81020  Biso   1.000  C
  C268     1.0000 0.65420  0.19280  0.83140  Biso   1.000  C
  C269     1.0000 0.64570  0.19510  0.86150  Biso   1.000  C
  C270     1.0000 0.63850  0.22060  0.87040  Biso   1.000  C
  C271     1.0000 0.63960  0.24390  0.84910  Biso   1.000  C
  C272     1.0000 0.64810  0.24160  0.81900  Biso   1.000  C
  C273     1.0000 0.55800  0.09080  0.49090  Biso   1.000  C
  C274     1.0000 0.52570  0.10190  0.45500  Biso   1.000  C
  C275     1.0000 0.50890  0.06190  0.40750  Biso   1.000  C
  C276     1.0000 0.56380  0.06870  0.47650  Biso   1.000  C
  C277     1.0000 0.73230  0.99870  0.59400  Biso   1.000  C
  C278     1.0000 0.70160  0.99290  0.54470  Biso   1.000  C
  C279     1.0000 0.69290  0.96590  0.52840  Biso   1.000  C
  C280     1.0000 0.71490  0.94480  0.56150  Biso   1.000  C
  C281     1.0000 0.74550  0.95060  0.61080  Biso   1.000  C
  C282     1.0000 0.75420  0.97760  0.62700  Biso   1.000  C
  C283     1.0000 0.90090  0.03320  0.78800  Biso   1.000  C
  C284     1.0000 0.92430  0.05820  0.80350  Biso   1.000  C
  C285     1.0000 0.96630  0.04970  0.85070  Biso   1.000  C
  C286     1.0000 0.92550  0.01370  0.83200  Biso   1.000  C
  C287     1.0000 0.83160  0.18230  0.00840  Biso   1.000  C
  C288     1.0000 0.79490  0.18450  0.99510  Biso   1.000  C
  C289     1.0000 0.79880  0.20580  0.02900  Biso   1.000  C
  C290     1.0000 0.84140  0.19980  0.07760  Biso   1.000  C
  C291     1.0000 0.86480  0.18590  0.06100  Biso   1.000  C
  C292     1.0000 0.92390  0.05260  0.98390  Biso   1.000  C
  C293     1.0000 0.94810  0.05020  0.03730  Biso   1.000  C
  C294     1.0000 0.98450  0.03650  0.05880  Biso   1.000  C
  C295     1.0000 0.99020  0.02880  0.02710  Biso   1.000  C
  C296     1.0000 0.96880  0.03140  0.97750  Biso   1.000  C
  C297     1.0000 0.93050  0.04330  0.95520  Biso   1.000  C
  C298     1.0000 0.43380  0.18930  0.54240  Biso   1.000  C
  C299     1.0000 0.45730  0.19170  0.59490  Biso   1.000  C
  C300     1.0000 0.44470  0.18360  0.61820  Biso   1.000  C
  C301     1.0000 0.40730  0.17500  0.59200  Biso   1.000  C
  C302     1.0000 0.37890  0.17600  0.53560  Biso   1.000  C
  C303     1.0000 0.39600  0.18320  0.51350  Biso   1.000  C
  C304     1.0000 0.84110  0.25970  0.73520  Biso   1.000  C
  C305     1.0000 0.75530  0.33840  0.73060  Biso   1.000  C
  C306     1.0000 0.80030  0.14320  0.52430  Biso   1.000  C
  C307     1.0000 0.75920  0.33530  0.69540  Biso   1.000  C
  C308     1.0000 0.62090  0.31590  0.57240  Biso   1.000  C
  C309     1.0000 0.02650  0.16780  0.92770  Biso   1.000  C
  C310     1.0000 0.63890  0.00830  0.36040  Biso   1.000  C
  C311     1.0000 0.63430  0.23750  0.52670  Biso   1.000  C
  C312     1.0000 0.62600  0.26180  0.49930  Biso   1.000  C
  C313     1.0000 0.77690  0.08050  0.00630  Biso   1.000  C
  C314     1.0000 0.75390  0.31300  0.75490  Biso   1.000  C
  C315     1.0000 0.76410  0.31090  0.68350  Biso   1.000  C
  C316     1.0000 0.84440  0.35300  0.89240  Biso   1.000  C
  C317     1.0000 0.72850  0.18480  0.49370  Biso   1.000  C
  C318     1.0000 0.68660  0.99910  0.35860  Biso   1.000  C
  C319     1.0000 0.03830  0.11690  0.04900  Biso   1.000  C
  C320     1.0000 0.96850  0.10640  0.99270  Biso   1.000  C
  C321     1.0000 0.66530  0.00460  0.41250  Biso   1.000  C
  C322     1.0000 0.59370  0.29860  0.56100  Biso   1.000  C
  C323     1.0000 0.69560  0.10600  0.45560  Biso   1.000  C
  C324     1.0000 0.46590  0.16740  0.37480  Biso   1.000  C
  C325     1.0000 0.67410  0.12290  0.41310  Biso   1.000  C
  C326     1.0000 0.00930  0.09540  0.02070  Biso   1.000  C
  C327     1.0000 0.84850  0.30520  0.88070  Biso   1.000  C
  C328     1.0000 0.60230  0.27380  0.58380  Biso   1.000  C
  C329     1.0000 0.71320  0.23110  0.46610  Biso   1.000  C
  C330     1.0000 0.00740  0.12220  0.93540  Biso   1.000  C
  C331     1.0000 0.82070  0.10360  0.35520  Biso   1.000  C
  C332     1.0000 0.99440  0.24910  0.88650  Biso   1.000  C
  C333     1.0000 0.82100  0.29820  0.88180  Biso   1.000  C
  C334     1.0000 0.81920  0.18340  0.49910  Biso   1.000  C
  C335     1.0000 0.61580  0.21410  0.49960  Biso   1.000  C
  C336     1.0000 0.82170  0.07620  0.33860  Biso   1.000  C
  C337     1.0000 0.68540  0.11760  0.93670  Biso   1.000  C
  C338     1.0000 0.64840  0.00640  0.33220  Biso   1.000  C
  C339     1.0000 0.67190  0.08620  0.36540  Biso   1.000  C
  C340     1.0000 0.66640  0.28050  0.63040  Biso   1.000  C
  C341     1.0000 0.82030  0.28580  0.66190  Biso   1.000  C
  C342     1.0000 0.79010  0.17530  0.44700  Biso   1.000  C
  C343     1.0000 0.58350  0.23790  0.42280  Biso   1.000  C
  C344     1.0000 0.72850  0.20660  0.46890  Biso   1.000  C
  C345     1.0000 0.98850  0.17690  0.89670  Biso   1.000  C
  C346     1.0000 0.69400  0.10860  0.90820  Biso   1.000  C
  C347     1.0000 0.60110  0.26120  0.44810  Biso   1.000  C
  C348     1.0000 0.81980  0.26190  0.68330  Biso   1.000  C
  C349     1.0000 0.66330  0.09830  0.93960  Biso   1.000  C
  C350     1.0000 0.76290  0.28660  0.70480  Biso   1.000  C
  C351     1.0000 0.01860  0.24330  0.93890  Biso   1.000  C
  C352     1.0000 0.76540  0.15340  0.43180  Biso   1.000  C
  C353     1.0000 0.71070  0.99470  0.41030  Biso   1.000  C
  C354     1.0000 0.81540  0.34640  0.89100  Biso   1.000  C
  C355     1.0000 0.86260  0.30660  0.74310  Biso   1.000  C
  C356     1.0000 0.03390  0.14200  0.94880  Biso   1.000  C
  C357     1.0000 0.45170  0.18310  0.39050  Biso   1.000  C
  C358     1.0000 0.70010  0.99710  0.43710  Biso   1.000  C
  C359     1.0000 0.68010  0.08510  0.88230  Biso   1.000  C
  C360     1.0000 0.91520  0.11730  0.74810  Biso   1.000  C
  C361     1.0000 0.69950  0.21230  0.51570  Biso   1.000  C
  C362     1.0000 0.02880  0.14470  0.05080  Biso   1.000  C
  C363     1.0000 0.86360  0.28190  0.76650  Biso   1.000  C
  C364     1.0000 0.96070  0.15810  0.88420  Biso   1.000  C
  C365     1.0000 0.96360  0.13510  0.99720  Biso   1.000  C
  C366     1.0000 0.00500  0.23520  0.96000  Biso   1.000  C
  C367     1.0000 0.84050  0.30830  0.69140  Biso   1.000  C
  C368     1.0000 0.47500  0.19520  0.43700  Biso   1.000  C
  C369     1.0000 0.96670  0.23290  0.93170  Biso   1.000  C
  C370     1.0000 0.59040  0.21330  0.44830  Biso   1.000  C
  C371     1.0000 0.71420  0.18790  0.51780  Biso   1.000  C
  C372     1.0000 0.80200  0.10930  0.37080  Biso   1.000  C
  C373     1.0000 0.70410  0.07920  0.45280  Biso   1.000  C
  C374     1.0000 0.51280  0.19070  0.46910  Biso   1.000  C
  C375     1.0000 0.99010  0.15270  0.01910  Biso   1.000  C
  C376     1.0000 0.75940  0.28840  0.73960  Biso   1.000  C
  C377     1.0000 0.69780  0.23440  0.48910  Biso   1.000  C
  C378     1.0000 0.94270  0.23930  0.88190  Biso   1.000  C
  C379     1.0000 0.63720  0.26450  0.61790  Biso   1.000  C
  C380     1.0000 0.86000  0.33120  0.88510  Biso   1.000  C
  C381     1.0000 0.95580  0.24760  0.85830  Biso   1.000  C
  C382     1.0000 0.82730  0.16470  0.54250  Biso   1.000  C
  C383     1.0000 0.79750  0.05570  0.33470  Biso   1.000  C
  C384     1.0000 0.48460  0.11940  0.51500  Biso   1.000  C
  C385     1.0000 0.64750  0.07500  0.91340  Biso   1.000  C
  C386     1.0000 0.69350  0.06840  0.40960  Biso   1.000  C
  C387     1.0000 0.80550  0.32000  0.88970  Biso   1.000  C
  C388     1.0000 0.65710  0.30620  0.60560  Biso   1.000  C
  C389     1.0000 0.66270  0.11290  0.36700  Biso   1.000  C
  C390     1.0000 0.77270  0.13780  0.47150  Biso   1.000  C
  C391     1.0000 0.96920  0.13150  0.90210  Biso   1.000  C
  C392     1.0000 0.77710  0.06140  0.34500  Biso   1.000  C
  C393     1.0000 0.77870  0.08710  0.36590  Biso   1.000  C
  C394     1.0000 0.50470  0.16340  0.40690  Biso   1.000  C
  C395     1.0000 0.65560  0.06720  0.88190  Biso   1.000  C
  C396     1.0000 0.52820  0.17530  0.45430  Biso   1.000  C
  C397     1.0000 0.76900  0.24610  0.90860  Biso   1.000  C
  C398     1.0000 0.58150  0.28300  0.69160  Biso   1.000  C
  C399     1.0000 0.79200  0.25610  0.95120  Biso   1.000  C
  C400     1.0000 0.57970  0.25400  0.69440  Biso   1.000  C
  C401     1.0000 0.53300  0.28350  0.59960  Biso   1.000  C
  C402     1.0000 0.55920  0.29800  0.64360  Biso   1.000  C
  C403     1.0000 0.53230  0.25280  0.60270  Biso   1.000  C
  C404     1.0000 0.91940  0.21820  0.71170  Biso   1.000  C
  C405     1.0000 0.89170  0.22370  0.66220  Biso   1.000  C
  C406     1.0000 0.85380  0.21450  0.63470  Biso   1.000  C
  C407     1.0000 0.91490  0.20380  0.74260  Biso   1.000  C
  C408     1.0000 0.87670  0.19480  0.71480  Biso   1.000  C
  C409     1.0000 0.55660  0.24030  0.64820  Biso   1.000  C
  C410     1.0000 0.84820  0.19970  0.66540  Biso   1.000  C
  C411     1.0000 0.79860  0.09800  0.99730  Biso   1.000  C
  C412     1.0000 0.77320  0.09050  0.03990  Biso   1.000  C
  S53      1.0000 0.84175  0.19872  0.86162  Biso   1.000  S
  S54      1.0000 0.69799  0.13117  0.63675  Biso   1.000  S
  S55      1.0000 0.73103  0.18091  0.75433  Biso   1.000  S
  S56      1.0000 0.69554  0.10120  0.74393  Biso   1.000  S
  S57      1.0000 0.80752  0.15255  0.74546  Biso   1.000  S
  S58      1.0000 0.77246  0.07268  0.73826  Biso   1.000  S
  S59      1.0000 0.80655  0.12231  0.85456  Biso   1.000  S
  S60      1.0000 0.95119  0.22168  0.96230  Biso   1.000  S
  S61      1.0000 0.76993  0.04461  0.84472  Biso   1.000  S
  S62      1.0000 0.62396  0.15998  0.64571  Biso   1.000  S
  S63      1.0000 0.84285  0.22994  0.76480  Biso   1.000  S
  S64      1.0000 0.58926  0.11395  0.53951  Biso   1.000  S
  S65      1.0000 0.73052  0.21566  0.64489  Biso   1.000  S
  S66      1.0000 0.77577  0.10005  0.63473  Biso   1.000  S
  S67      1.0000 0.66051  0.08965  0.51850  Biso   1.000  S
  S68      1.0000 0.71347  0.15813  0.54567  Biso   1.000  S
  S69      1.0000 0.86978  0.27983  0.87147  Biso   1.000  S
  S70      1.0000 0.54096  0.20687  0.52794  Biso   1.000  S
  S71      1.0000 0.75841  0.25849  0.76761  Biso   1.000  S
  S72      1.0000 0.67342  0.02214  0.74597  Biso   1.000  S
  S73      1.0000 0.64808  0.23228  0.64875  Biso   1.000  S
  S74      1.0000 0.66120  0.04869  0.62324  Biso   1.000  S
  S75      1.0000 0.62554  0.18210  0.53124  Biso   1.000  S
  S76      1.0000 0.91458  0.17079  0.84350  Biso   1.000  S
  S77      1.0000 0.73046  0.05711  0.50346  Biso   1.000  S
  S78      1.0000 0.72897  0.15166  0.86479  Biso   1.000  S
  S79      1.0000 0.91543  0.14604  0.95925  Biso   1.000  S
  S80      1.0000 0.88031  0.24431  0.98590  Biso   1.000  S
  S81      1.0000 0.80251  0.19134  0.63453  Biso   1.000  S
  S82      1.0000 0.88590  0.09136  0.84881  Biso   1.000  S
  S83      1.0000 0.66376  0.21644  0.76926  Biso   1.000  S
  S84      1.0000 0.55378  0.20404  0.65359  Biso   1.000  S
  S85      1.0000 0.75772  0.98524  0.44194  Biso   1.000  S
  S86      1.0000 0.77471  0.22762  0.87162  Biso   1.000  S
  S87      1.0000 0.68530  0.07377  0.83914  Biso   1.000  S
  S88      1.0000 0.85029  0.03569  0.74066  Biso   1.000  S
  S89      1.0000 0.74640  0.99320  0.72710  Biso   1.000  S
  S90      1.0000 0.74709  0.03768  0.33912  Biso   1.000  S
  S91      1.0000 0.74814  0.03015  0.62563  Biso   1.000  S
  S92      1.0000 0.84611  0.16346  0.97392  Biso   1.000  S
  S93      1.0000 0.61718  0.13535  0.73286  Biso   1.000  S
  S94      1.0000 0.86899  0.11942  0.72145  Biso   1.000  S
  S95      1.0000 0.88114  0.06991  0.95862  Biso   1.000  S
  S96      1.0000 0.80797  0.12375  0.56652  Biso   1.000  S
  S97      1.0000 0.84819  0.00416  0.46445  Biso   1.000  S
  S98      1.0000 0.51972  0.13475  0.57344  Biso   1.000  S
  S99      1.0000 0.83539  0.01590  0.83646  Biso   1.000  S
  S100     1.0000 0.80268  0.08850  0.95546  Biso   1.000  S
  S101     1.0000 0.84440  0.05345  0.62659  Biso   1.000  S
  S102     1.0000 0.59156  0.07545  0.64500  Biso   1.000  S
  S103     1.0000 0.44855  0.19692  0.50987  Biso   1.000  S
  S104     1.0000 0.79984  0.06660  0.47808  Biso   1.000  S
  Cd33     1.0000 0.68922  0.14258  0.69696  Biso   1.000  Cd
  Cd34     1.0000 0.76324  0.11453  0.69029  Biso   1.000  Cd
  Cd35     1.0000 0.76130  0.08592  0.79532  Biso   1.000  Cd
  Cd36     1.0000 0.71701  0.22175  0.69976  Biso   1.000  Cd
  Cd37     1.0000 0.65243  0.09278  0.58272  Biso   1.000  Cd
  Cd38     1.0000 0.79518  0.16263  0.80206  Biso   1.000  Cd
  Cd39     1.0000 0.87071  0.13037  0.79393  Biso   1.000  Cd
  Cd40     1.0000 0.87244  0.10695  0.90095  Biso   1.000  Cd
  Cd41     1.0000 0.65683  0.06104  0.68650  Biso   1.000  Cd
  Cd42     1.0000 0.72722  0.03689  0.67492  Biso   1.000  Cd
  Cd43     1.0000 0.60907  0.19468  0.58261  Biso   1.000  Cd
  Cd44     1.0000 0.82306  0.24291  0.81326  Biso   1.000  Cd
  Cd45     1.0000 0.69570  0.17442  0.59531  Biso   1.000  Cd
  Cd46     1.0000 0.83841  0.05647  0.79400  Biso   1.000  Cd
  Cd47     1.0000 0.58066  0.11954  0.60263  Biso   1.000  Cd
  Cd48     1.0000 0.79106  0.13281  0.90841  Biso   1.000  Cd
  Cd49     1.0000 0.83802  0.20586  0.92800  Biso   1.000  Cd
  Cd50     1.0000 0.51677  0.18615  0.56583  Biso   1.000  Cd
  Cd51     1.0000 0.79388  0.19675  0.69750  Biso   1.000  Cd
  Cd52     1.0000 0.90616  0.18374  0.90328  Biso   1.000  Cd
  Cd53     1.0000 0.78265  0.14321  0.60355  Biso   1.000  Cd
  Cd54     1.0000 0.78721  0.02323  0.43046  Biso   1.000  Cd
  Cd55     1.0000 0.72523  0.19096  0.81837  Biso   1.000  Cd
  Cd56     1.0000 0.73729  0.00360  0.78728  Biso   1.000  Cd
  Cd57     1.0000 0.72373  0.07006  0.56557  Biso   1.000  Cd
  Cd58     1.0000 0.68391  0.11778  0.79989  Biso   1.000  Cd
  Cd59     1.0000 0.75019  0.05636  0.89279  Biso   1.000  Cd
  Cd60     1.0000 0.61754  0.18273  0.70295  Biso   1.000  Cd
  Cd61     1.0000 0.83722  0.03178  0.90551  Biso   1.000  Cd
  Cd62     1.0000 0.79345  0.07414  0.54210  Biso   1.000  Cd
  Cd63     1.0000 0.91441  0.25986  0.95899  Biso   1.000  Cd
  Cd64     1.0000 0.83568  0.07389  0.68333  Biso   1.000  Cd
  C413     1.0000 0.79990  0.12280  0.02500  Biso   1.000  C
  C414     1.0000 0.96700  0.02250  0.85300  Biso   1.000  C
  C415     1.0000 0.45920  0.12460  0.45690  Biso   1.000  C
  C416     1.0000 0.53590  0.05090  0.44200  Biso   1.000  C
  C417     1.0000 0.88480  0.02510  0.48230  Biso   1.000  C
  C418     1.0000 0.97940  0.13180  0.80140  Biso   1.000  C
  C419     1.0000 0.49360  0.08300  0.40400  Biso   1.000  C
  C420     1.0000 0.91490  0.09260  0.71700  Biso   1.000  C
  C421     1.0000 0.75030  0.28870  0.92760  Biso   1.000  C
  C422     1.0000 0.93910  0.13010  0.77880  Biso   1.000  C
  C423     1.0000 0.98910  0.11190  0.79220  Biso   1.000  C
  C424     1.0000 0.78860  0.27850  0.97220  Biso   1.000  C
  C425     1.0000 0.33420  0.48310  0.12310  Biso   1.000  C
  C426     1.0000 0.30630  0.49760  0.08050  Biso   1.000  C
  C427     1.0000 0.30330  0.52570  0.08310  Biso   1.000  C
  C428     1.0000 0.32820  0.53920  0.12840  Biso   1.000  C
  C429     1.0000 0.35610  0.52460  0.17100  Biso   1.000  C
  C430     1.0000 0.35910  0.49660  0.16840  Biso   1.000  C
  C431     1.0000 0.05600  0.44370  0.10250  Biso   1.000  C
  C432     1.0000 0.02690  0.45330  0.09810  Biso   1.000  C
  C433     1.0000 0.99960  0.46940  0.05760  Biso   1.000  C
  C434     1.0000 0.00130  0.47590  0.02140  Biso   1.000  C
  C435     1.0000 0.03040  0.46630  0.02580  Biso   1.000  C
  C436     1.0000 0.05770  0.45020  0.06630  Biso   1.000  C
  C437     1.0000 0.09250  0.36370  0.25220  Biso   1.000  C
  C438     1.0000 0.05630  0.35440  0.21860  Biso   1.000  C
  C439     1.0000 0.03560  0.35290  0.23270  Biso   1.000  C
  C440     1.0000 0.05120  0.36070  0.28040  Biso   1.000  C
  C441     1.0000 0.08730  0.37000  0.31400  Biso   1.000  C
  C442     1.0000 0.10800  0.37150  0.29990  Biso   1.000  C
  C443     1.0000 0.13460  0.43669  0.97580  Biso   1.000  C
  C444     1.0000 0.11690  0.43250  0.92610  Biso   1.000  C
  C445     1.0000 0.09330  0.45230  0.89080  Biso   1.000  C
  C446     1.0000 0.08730  0.47634  0.90530  Biso   1.000  C
  C447     1.0000 0.10490  0.48053  0.95500  Biso   1.000  C
  C448     1.0000 0.12860  0.46070  0.99030  Biso   1.000  C
  C449     1.0000 0.41590  0.27240  0.54290  Biso   1.000  C
  C450     1.0000 0.42840  0.26010  0.58670  Biso   1.000  C
  C451     1.0000 0.45680  0.27210  0.63240  Biso   1.000  C
  C452     1.0000 0.47260  0.29640  0.63430  Biso   1.000  C
  C453     1.0000 0.46010  0.30870  0.59050  Biso   1.000  C
  C454     1.0000 0.43170  0.29670  0.54480  Biso   1.000  C
  C455     1.0000 0.21330  0.53280  0.19060  Biso   1.000  C
  C456     1.0000 0.22490  0.55900  0.19160  Biso   1.000  C
  C457     1.0000 0.19910  0.57900  0.15980  Biso   1.000  C
  C458     1.0000 0.16170  0.57280  0.12700  Biso   1.000  C
  C459     1.0000 0.15010  0.54660  0.12600  Biso   1.000  C
  C460     1.0000 0.17590  0.52660  0.15780  Biso   1.000  C
  C461     1.0000 0.34340  0.42200  0.01350  Biso   1.000  C
  C462     1.0000 0.37330  0.43820  0.05030  Biso   1.000  C
  C463     1.0000 0.40900  0.42830  0.07770  Biso   1.000  C
  C464     1.0000 0.41470  0.40240  0.06820  Biso   1.000  C
  C465     1.0000 0.38480  0.38620  0.03130  Biso   1.000  C
  C466     1.0000 0.34910  0.39610  0.00400  Biso   1.000  C
  C467     1.0000 0.14000  0.50400  0.20610  Biso   1.000  C
  C468     1.0000 0.14390  0.52850  0.22880  Biso   1.000  C
  C469     1.0000 0.11560  0.54770  0.20290  Biso   1.000  C
  C470     1.0000 0.08350  0.54230  0.15430  Biso   1.000  C
  C471     1.0000 0.07960  0.51780  0.13160  Biso   1.000  C
  C472     1.0000 0.10790  0.49870  0.15750  Biso   1.000  C
  C473     1.0000 0.36400  0.51150  0.34470  Biso   1.000  C
  C474     1.0000 0.39480  0.51920  0.39280  Biso   1.000  C
  C475     1.0000 0.41780  0.53980  0.40020  Biso   1.000  C
  C476     1.0000 0.40990  0.55270  0.35960  Biso   1.000  C
  C477     1.0000 0.37910  0.54500  0.31150  Biso   1.000  C
  C478     1.0000 0.35610  0.52440  0.30400  Biso   1.000  C
  C479     1.0000 0.15540  0.28400  0.31020  Biso   1.000  C
  C480     1.0000 0.15420  0.30720  0.33140  Biso   1.000  C
  C481     1.0000 0.14570  0.30490  0.36150  Biso   1.000  C
  C482     1.0000 0.13850  0.27940  0.37040  Biso   1.000  C
  C483     1.0000 0.13960  0.25610  0.34910  Biso   1.000  C
  C484     1.0000 0.14810  0.25840  0.31900  Biso   1.000  C
  C485     1.0000 0.05800  0.40920  0.99090  Biso   1.000  C
  C486     1.0000 0.02570  0.39810  0.95500  Biso   1.000  C
  C487     1.0000 0.00890  0.43810  0.90750  Biso   1.000  C
  C488     1.0000 0.06380  0.43130  0.97650  Biso   1.000  C
  C489     1.0000 0.23230  0.50130  0.09400  Biso   1.000  C
  C490     1.0000 0.20160  0.50710  0.04470  Biso   1.000  C
  C491     1.0000 0.19290  0.53410  0.02840  Biso   1.000  C
  C492     1.0000 0.21490  0.55520  0.06150  Biso   1.000  C
  C493     1.0000 0.24550  0.54940  0.11080  Biso   1.000  C
  C494     1.0000 0.25420  0.52240  0.12700  Biso   1.000  C
  C495     1.0000 0.40090  0.46680  0.28800  Biso   1.000  C
  C496     1.0000 0.42430  0.44180  0.30350  Biso   1.000  C
  C497     1.0000 0.46630  0.45030  0.35070  Biso   1.000  C
  C498     1.0000 0.42550  0.48630  0.33200  Biso   1.000  C
  C499     1.0000 0.33160  0.31770  0.50840  Biso   1.000  C
  C500     1.0000 0.29490  0.31550  0.49510  Biso   1.000  C
  C501     1.0000 0.29880  0.29420  0.52900  Biso   1.000  C
  C502     1.0000 0.34140  0.30020  0.57760  Biso   1.000  C
  C503     1.0000 0.36480  0.31410  0.56100  Biso   1.000  C
  C504     1.0000 0.42390  0.44740  0.48390  Biso   1.000  C
  C505     1.0000 0.44810  0.44980  0.53730  Biso   1.000  C
  C506     1.0000 0.48450  0.46350  0.55880  Biso   1.000  C
  C507     1.0000 0.49020  0.47120  0.52710  Biso   1.000  C
  C508     1.0000 0.46880  0.46860  0.47750  Biso   1.000  C
  C509     1.0000 0.43050  0.45670  0.45520  Biso   1.000  C
  C510     1.0000 0.93380  0.31070  0.04240  Biso   1.000  C
  C511     1.0000 0.95730  0.30830  0.09490  Biso   1.000  C
  C512     1.0000 0.94470  0.31640  0.11820  Biso   1.000  C
  C513     1.0000 0.90730  0.32500  0.09200  Biso   1.000  C
  C514     1.0000 0.87890  0.32400  0.03560  Biso   1.000  C
  C515     1.0000 0.89600  0.31680  0.01350  Biso   1.000  C
  C516     1.0000 0.34110  0.24030  0.23520  Biso   1.000  C
  C517     1.0000 0.25530  0.16160  0.23060  Biso   1.000  C
  C518     1.0000 0.30030  0.35680  0.02430  Biso   1.000  C
  C519     1.0000 0.25920  0.16470  0.19540  Biso   1.000  C
  C520     1.0000 0.12090  0.18410  0.07240  Biso   1.000  C
  C521     1.0000 0.52650  0.33220  0.42770  Biso   1.000  C
  C522     1.0000 0.13890  0.49170  0.86040  Biso   1.000  C
  C523     1.0000 0.13430  0.26250  0.02670  Biso   1.000  C
  C524     1.0000 0.12600  0.23820  0.99930  Biso   1.000  C
  C525     1.0000 0.27690  0.41950  0.50630  Biso   1.000  C
  C526     1.0000 0.25390  0.18700  0.25490  Biso   1.000  C
  C527     1.0000 0.26410  0.18910  0.18350  Biso   1.000  C
  C528     1.0000 0.34440  0.14700  0.39240  Biso   1.000  C
  C529     1.0000 0.22850  0.31520  0.99370  Biso   1.000  C
  C530     1.0000 0.18660  0.50090  0.85860  Biso   1.000  C
  C531     1.0000 0.53830  0.38310  0.54900  Biso   1.000  C
  C532     1.0000 0.46850  0.39360  0.49270  Biso   1.000  C
  C533     1.0000 0.16530  0.49540  0.91250  Biso   1.000  C
  C534     1.0000 0.09370  0.20140  0.06100  Biso   1.000  C
  C535     1.0000 0.19560  0.39400  0.95560  Biso   1.000  C
  C536     1.0000 0.96590  0.33260  0.87480  Biso   1.000  C
  C537     1.0000 0.17410  0.37710  0.91310  Biso   1.000  C
  C538     1.0000 0.50930  0.40460  0.52070  Biso   1.000  C
  C539     1.0000 0.34850  0.19480  0.38070  Biso   1.000  C
  C540     1.0000 0.10230  0.22620  0.08380  Biso   1.000  C
  C541     1.0000 0.21320  0.26890  0.96610  Biso   1.000  C
  C542     1.0000 0.50740  0.37780  0.43540  Biso   1.000  C
  C543     1.0000 0.32070  0.39640  0.85520  Biso   1.000  C
  C544     1.0000 0.49440  0.25090  0.38650  Biso   1.000  C
  C545     1.0000 0.32100  0.20180  0.38180  Biso   1.000  C
  C546     1.0000 0.31920  0.31660  0.99910  Biso   1.000  C
  C547     1.0000 0.11580  0.28590  0.99960  Biso   1.000  C
  C548     1.0000 0.32170  0.42380  0.83860  Biso   1.000  C
  C549     1.0000 0.18540  0.38240  0.43670  Biso   1.000  C
  C550     1.0000 0.14840  0.49360  0.83220  Biso   1.000  C
  C551     1.0000 0.17190  0.41380  0.86540  Biso   1.000  C
  C552     1.0000 0.16640  0.21950  0.13040  Biso   1.000  C
  C553     1.0000 0.32030  0.21420  0.16190  Biso   1.000  C
  C554     1.0000 0.29010  0.32470  0.94700  Biso   1.000  C
  C555     1.0000 0.08350  0.26210  0.92280  Biso   1.000  C
  C556     1.0000 0.22850  0.29340  0.96890  Biso   1.000  C
  C557     1.0000 0.48850  0.32310  0.39670  Biso   1.000  C
  C558     1.0000 0.19400  0.39140  0.40820  Biso   1.000  C
  C559     1.0000 0.10110  0.23880  0.94810  Biso   1.000  C
  C560     1.0000 0.31980  0.23810  0.18330  Biso   1.000  C
  C561     1.0000 0.16330  0.40170  0.43960  Biso   1.000  C
  C562     1.0000 0.26290  0.21340  0.20480  Biso   1.000  C
  C563     1.0000 0.51860  0.25670  0.43890  Biso   1.000  C
  C564     1.0000 0.26540  0.34660  0.93180  Biso   1.000  C
  C565     1.0000 0.21070  0.50530  0.91030  Biso   1.000  C
  C566     1.0000 0.31540  0.15360  0.39100  Biso   1.000  C
  C567     1.0000 0.36260  0.19340  0.24310  Biso   1.000  C
  C568     1.0000 0.53390  0.35800  0.44880  Biso   1.000  C
  C569     1.0000 0.95170  0.31690  0.89050  Biso   1.000  C
  C570     1.0000 0.20010  0.50290  0.93710  Biso   1.000  C
  C571     1.0000 0.18010  0.41490  0.38230  Biso   1.000  C
  C572     1.0000 0.41520  0.38270  0.24810  Biso   1.000  C
  C573     1.0000 0.19950  0.28770  0.01570  Biso   1.000  C
  C574     1.0000 0.52880  0.35530  0.55080  Biso   1.000  C
  C575     1.0000 0.36360  0.21810  0.26650  Biso   1.000  C
  C576     1.0000 0.46070  0.34190  0.38420  Biso   1.000  C
  C577     1.0000 0.46360  0.36490  0.49720  Biso   1.000  C
  C578     1.0000 0.50500  0.26480  0.46000  Biso   1.000  C
  C579     1.0000 0.34050  0.19170  0.19140  Biso   1.000  C
  C580     1.0000 0.97500  0.30480  0.93700  Biso   1.000  C
  C581     1.0000 0.46670  0.26710  0.43170  Biso   1.000  C
  C582     1.0000 0.09040  0.28670  0.94830  Biso   1.000  C
  C583     1.0000 0.21420  0.31210  0.01780  Biso   1.000  C
  C584     1.0000 0.30200  0.39070  0.87080  Biso   1.000  C
  C585     1.0000 0.20410  0.42080  0.95280  Biso   1.000  C
  C586     1.0000 0.01280  0.30930  0.96910  Biso   1.000  C
  C587     1.0000 0.49010  0.34730  0.51910  Biso   1.000  C
  C588     1.0000 0.25940  0.21160  0.23960  Biso   1.000  C
  C589     1.0000 0.19780  0.26560  0.98910  Biso   1.000  C
  C590     1.0000 0.44270  0.26070  0.38190  Biso   1.000  C
  C591     1.0000 0.13720  0.23550  0.11790  Biso   1.000  C
  C592     1.0000 0.36000  0.16880  0.38510  Biso   1.000  C
  C593     1.0000 0.45580  0.25240  0.35830  Biso   1.000  C
  C594     1.0000 0.32730  0.33530  0.04250  Biso   1.000  C
  C595     1.0000 0.29750  0.44430  0.83470  Biso   1.000  C
  C596     1.0000 0.98460  0.38060  0.01500  Biso   1.000  C
  C597     1.0000 0.14750  0.42500  0.41340  Biso   1.000  C
  C598     1.0000 0.19350  0.43160  0.90960  Biso   1.000  C
  C599     1.0000 0.30550  0.18000  0.38970  Biso   1.000  C
  C600     1.0000 0.15710  0.19380  0.10560  Biso   1.000  C
  C601     1.0000 0.16270  0.38710  0.86700  Biso   1.000  C
  C602     1.0000 0.27270  0.36220  0.97150  Biso   1.000  C
  C603     1.0000 0.46920  0.36850  0.40210  Biso   1.000  C
  C604     1.0000 0.27710  0.43860  0.84500  Biso   1.000  C
  C605     1.0000 0.27870  0.41290  0.86590  Biso   1.000  C
  C606     1.0000 0.00470  0.33660  0.90690  Biso   1.000  C
  C607     1.0000 0.15560  0.43280  0.38190  Biso   1.000  C
  C608     1.0000 0.02820  0.32470  0.95430  Biso   1.000  C
  C609     1.0000 0.26900  0.25390  0.40860  Biso   1.000  C
  C610     1.0000 0.08150  0.21700  0.19160  Biso   1.000  C
  C611     1.0000 0.29200  0.24390  0.45120  Biso   1.000  C
  C612     1.0000 0.07970  0.24600  0.19440  Biso   1.000  C
  C613     1.0000 0.03300  0.21650  0.09960  Biso   1.000  C
  C614     1.0000 0.05920  0.20200  0.14360  Biso   1.000  C
  C615     1.0000 0.03230  0.24720  0.10270  Biso   1.000  C
  C616     1.0000 0.41940  0.28180  0.21170  Biso   1.000  C
  C617     1.0000 0.39170  0.27630  0.16220  Biso   1.000  C
  C618     1.0000 0.35380  0.28550  0.13470  Biso   1.000  C
  C619     1.0000 0.41490  0.29620  0.24260  Biso   1.000  C
  C620     1.0000 0.37670  0.30520  0.21480  Biso   1.000  C
  C621     1.0000 0.05660  0.25970  0.14820  Biso   1.000  C
  C622     1.0000 0.34820  0.30030  0.16540  Biso   1.000  C
  C623     1.0000 0.29860  0.40200  0.49730  Biso   1.000  C
  C624     1.0000 0.27320  0.40950  0.53990  Biso   1.000  C
  S105     1.0000 0.34175  0.30128  0.36162  Biso   1.000  S
  S106     1.0000 0.19799  0.36883  0.13675  Biso   1.000  S
  S107     1.0000 0.23103  0.31909  0.25433  Biso   1.000  S
  S108     1.0000 0.19554  0.39880  0.24393  Biso   1.000  S
  S109     1.0000 0.30752  0.34745  0.24546  Biso   1.000  S
  S110     1.0000 0.27246  0.42732  0.23826  Biso   1.000  S
  S111     1.0000 0.30655  0.37769  0.35456  Biso   1.000  S
  S112     1.0000 0.45119  0.27832  0.46230  Biso   1.000  S
  S113     1.0000 0.26993  0.45539  0.34472  Biso   1.000  S
  S114     1.0000 0.12396  0.34002  0.14571  Biso   1.000  S
  S115     1.0000 0.34285  0.27006  0.26480  Biso   1.000  S
  S116     1.0000 0.08926  0.38605  0.03951  Biso   1.000  S
  S117     1.0000 0.23052  0.28434  0.14489  Biso   1.000  S
  S118     1.0000 0.27577  0.39995  0.13473  Biso   1.000  S
  S119     1.0000 0.16051  0.41035  0.01850  Biso   1.000  S
  S120     1.0000 0.21347  0.34187  0.04567  Biso   1.000  S
  S121     1.0000 0.36978  0.22017  0.37147  Biso   1.000  S
  S122     1.0000 0.04096  0.29313  0.02794  Biso   1.000  S
  S123     1.0000 0.25841  0.24151  0.26761  Biso   1.000  S
  S124     1.0000 0.17342  0.47786  0.24597  Biso   1.000  S
  S125     1.0000 0.14808  0.26772  0.14875  Biso   1.000  S
  S126     1.0000 0.16120  0.45131  0.12324  Biso   1.000  S
  S127     1.0000 0.12554  0.31790  0.03124  Biso   1.000  S
  S128     1.0000 0.41458  0.32921  0.34350  Biso   1.000  S
  S129     1.0000 0.23046  0.44289  0.00346  Biso   1.000  S
  S130     1.0000 0.22897  0.34834  0.36479  Biso   1.000  S
  S131     1.0000 0.41543  0.35396  0.45925  Biso   1.000  S
  S132     1.0000 0.38031  0.25569  0.48590  Biso   1.000  S
  S133     1.0000 0.30251  0.30866  0.13453  Biso   1.000  S
  S134     1.0000 0.38590  0.40864  0.34881  Biso   1.000  S
  S135     1.0000 0.16376  0.28356  0.26926  Biso   1.000  S
  S136     1.0000 0.05378  0.29596  0.15359  Biso   1.000  S
  S137     1.0000 0.25772  0.51476  0.94194  Biso   1.000  S
  S138     1.0000 0.27471  0.27238  0.37162  Biso   1.000  S
  S139     1.0000 0.18530  0.42623  0.33914  Biso   1.000  S
  S140     1.0000 0.35029  0.46431  0.24066  Biso   1.000  S
  S141     1.0000 0.24640  0.50680  0.22710  Biso   1.000  S
  S142     1.0000 0.24709  0.46232  0.83912  Biso   1.000  S
  S143     1.0000 0.24814  0.46985  0.12563  Biso   1.000  S
  S144     1.0000 0.34611  0.33654  0.47392  Biso   1.000  S
  S145     1.0000 0.11718  0.36465  0.23286  Biso   1.000  S
  S146     1.0000 0.36899  0.38058  0.22145  Biso   1.000  S
  S147     1.0000 0.38114  0.43009  0.45862  Biso   1.000  S
  S148     1.0000 0.30797  0.37625  0.06652  Biso   1.000  S
  S149     1.0000 0.34819  0.49584  0.96445  Biso   1.000  S
  S150     1.0000 0.01972  0.36525  0.07344  Biso   1.000  S
  S151     1.0000 0.33539  0.48410  0.33646  Biso   1.000  S
  S152     1.0000 0.30268  0.41150  0.45546  Biso   1.000  S
  S153     1.0000 0.34440  0.44655  0.12659  Biso   1.000  S
  S154     1.0000 0.09156  0.42455  0.14500  Biso   1.000  S
  S155     1.0000 0.94855  0.30308  0.00987  Biso   1.000  S
  S156     1.0000 0.29984  0.43340  0.97808  Biso   1.000  S
  Cd65     1.0000 0.18922  0.35742  0.19696  Biso   1.000  Cd
  Cd66     1.0000 0.26324  0.38547  0.19029  Biso   1.000  Cd
  Cd67     1.0000 0.26130  0.41408  0.29532  Biso   1.000  Cd
  Cd68     1.0000 0.21701  0.27825  0.19976  Biso   1.000  Cd
  Cd69     1.0000 0.15243  0.40722  0.08272  Biso   1.000  Cd
  Cd70     1.0000 0.29518  0.33737  0.30206  Biso   1.000  Cd
  Cd71     1.0000 0.37071  0.36963  0.29393  Biso   1.000  Cd
  Cd72     1.0000 0.37244  0.39305  0.40095  Biso   1.000  Cd
  Cd73     1.0000 0.15683  0.43896  0.18650  Biso   1.000  Cd
  Cd74     1.0000 0.22722  0.46311  0.17492  Biso   1.000  Cd
  Cd75     1.0000 0.10907  0.30532  0.08261  Biso   1.000  Cd
  Cd76     1.0000 0.32306  0.25709  0.31326  Biso   1.000  Cd
  Cd77     1.0000 0.19570  0.32558  0.09531  Biso   1.000  Cd
  Cd78     1.0000 0.33841  0.44352  0.29400  Biso   1.000  Cd
  Cd79     1.0000 0.08066  0.38046  0.10263  Biso   1.000  Cd
  Cd80     1.0000 0.29106  0.36719  0.40841  Biso   1.000  Cd
  Cd81     1.0000 0.33802  0.29414  0.42800  Biso   1.000  Cd
  Cd82     1.0000 0.01677  0.31385  0.06583  Biso   1.000  Cd
  Cd83     1.0000 0.29388  0.30325  0.19750  Biso   1.000  Cd
  Cd84     1.0000 0.40616  0.31626  0.40328  Biso   1.000  Cd
  Cd85     1.0000 0.28265  0.35679  0.10355  Biso   1.000  Cd
  Cd86     1.0000 0.28721  0.47677  0.93046  Biso   1.000  Cd
  Cd87     1.0000 0.22523  0.30904  0.31837  Biso   1.000  Cd
  Cd88     1.0000 0.23729  0.49640  0.28728  Biso   1.000  Cd
  Cd89     1.0000 0.22373  0.42994  0.06557  Biso   1.000  Cd
  Cd90     1.0000 0.18391  0.38222  0.29989  Biso   1.000  Cd
  Cd91     1.0000 0.25019  0.44364  0.39279  Biso   1.000  Cd
  Cd92     1.0000 0.11754  0.31727  0.20295  Biso   1.000  Cd
  Cd93     1.0000 0.33722  0.46822  0.40551  Biso   1.000  Cd
  Cd94     1.0000 0.29345  0.42586  0.04210  Biso   1.000  Cd
  Cd95     1.0000 0.41441  0.24014  0.45899  Biso   1.000  Cd
  Cd96     1.0000 0.33568  0.42611  0.18333  Biso   1.000  Cd
  C625     1.0000 0.29990  0.37720  0.52500  Biso   1.000  C
  C626     1.0000 0.46700  0.47750  0.35300  Biso   1.000  C
  C627     1.0000 0.95920  0.37540  0.95690  Biso   1.000  C
  C628     1.0000 0.03590  0.44910  0.94200  Biso   1.000  C
  C629     1.0000 0.38480  0.47490  0.98230  Biso   1.000  C
  C630     1.0000 0.47940  0.36820  0.30140  Biso   1.000  C
  C631     1.0000 0.99360  0.41700  0.90400  Biso   1.000  C
  C632     1.0000 0.41490  0.40740  0.21700  Biso   1.000  C
  C633     1.0000 0.25030  0.21130  0.42760  Biso   1.000  C
  C634     1.0000 0.43910  0.36990  0.27880  Biso   1.000  C
  C635     1.0000 0.48910  0.38810  0.29220  Biso   1.000  C
  C636     1.0000 0.28860  0.22150  0.47220  Biso   1.000  C
  C637     1.0000 0.83420  0.98310  0.12310  Biso   1.000  C
  C638     1.0000 0.80630  0.99760  0.08050  Biso   1.000  C
  C639     1.0000 0.80330  0.02570  0.08310  Biso   1.000  C
  C640     1.0000 0.82820  0.03920  0.12840  Biso   1.000  C
  C641     1.0000 0.85610  0.02460  0.17100  Biso   1.000  C
  C642     1.0000 0.85910  0.99660  0.16840  Biso   1.000  C
  C643     1.0000 0.55600  0.94370  0.10250  Biso   1.000  C
  C644     1.0000 0.52690  0.95330  0.09810  Biso   1.000  C
  C645     1.0000 0.49960  0.96940  0.05760  Biso   1.000  C
  C646     1.0000 0.50130  0.97590  0.02140  Biso   1.000  C
  C647     1.0000 0.53040  0.96630  0.02580  Biso   1.000  C
  C648     1.0000 0.55770  0.95020  0.06630  Biso   1.000  C
  C649     1.0000 0.59250  0.86370  0.25220  Biso   1.000  C
  C650     1.0000 0.55630  0.85440  0.21860  Biso   1.000  C
  C651     1.0000 0.53560  0.85290  0.23270  Biso   1.000  C
  C652     1.0000 0.55120  0.86070  0.28040  Biso   1.000  C
  C653     1.0000 0.58730  0.87000  0.31400  Biso   1.000  C
  C654     1.0000 0.60800  0.87150  0.29990  Biso   1.000  C
  C655     1.0000 0.63460  0.93669  0.97580  Biso   1.000  C
  C656     1.0000 0.61690  0.93250  0.92610  Biso   1.000  C
  C657     1.0000 0.59330  0.95230  0.89080  Biso   1.000  C
  C658     1.0000 0.58730  0.97634  0.90530  Biso   1.000  C
  C659     1.0000 0.60490  0.98053  0.95500  Biso   1.000  C
  C660     1.0000 0.62860  0.96070  0.99030  Biso   1.000  C
  C661     1.0000 0.91590  0.77240  0.54290  Biso   1.000  C
  C662     1.0000 0.92840  0.76010  0.58670  Biso   1.000  C
  C663     1.0000 0.95680  0.77210  0.63240  Biso   1.000  C
  C664     1.0000 0.97260  0.79640  0.63430  Biso   1.000  C
  C665     1.0000 0.96010  0.80870  0.59050  Biso   1.000  C
  C666     1.0000 0.93170  0.79670  0.54480  Biso   1.000  C
  C667     1.0000 0.71330  0.03280  0.19060  Biso   1.000  C
  C668     1.0000 0.72490  0.05900  0.19160  Biso   1.000  C
  C669     1.0000 0.69910  0.07900  0.15980  Biso   1.000  C
  C670     1.0000 0.66170  0.07280  0.12700  Biso   1.000  C
  C671     1.0000 0.65010  0.04660  0.12600  Biso   1.000  C
  C672     1.0000 0.67590  0.02660  0.15780  Biso   1.000  C
  C673     1.0000 0.84340  0.92200  0.01350  Biso   1.000  C
  C674     1.0000 0.87330  0.93820  0.05030  Biso   1.000  C
  C675     1.0000 0.90900  0.92830  0.07770  Biso   1.000  C
  C676     1.0000 0.91470  0.90240  0.06820  Biso   1.000  C
  C677     1.0000 0.88480  0.88620  0.03130  Biso   1.000  C
  C678     1.0000 0.84910  0.89610  0.00400  Biso   1.000  C
  C679     1.0000 0.64000  0.00400  0.20610  Biso   1.000  C
  C680     1.0000 0.64390  0.02850  0.22880  Biso   1.000  C
  C681     1.0000 0.61560  0.04770  0.20290  Biso   1.000  C
  C682     1.0000 0.58350  0.04230  0.15430  Biso   1.000  C
  C683     1.0000 0.57960  0.01780  0.13160  Biso   1.000  C
  C684     1.0000 0.60790  0.99870  0.15750  Biso   1.000  C
  C685     1.0000 0.86400  0.01150  0.34470  Biso   1.000  C
  C686     1.0000 0.89480  0.01920  0.39280  Biso   1.000  C
  C687     1.0000 0.91780  0.03980  0.40020  Biso   1.000  C
  C688     1.0000 0.90990  0.05270  0.35960  Biso   1.000  C
  C689     1.0000 0.87910  0.04500  0.31150  Biso   1.000  C
  C690     1.0000 0.85610  0.02440  0.30400  Biso   1.000  C
  C691     1.0000 0.65540  0.78400  0.31020  Biso   1.000  C
  C692     1.0000 0.65420  0.80720  0.33140  Biso   1.000  C
  C693     1.0000 0.64570  0.80490  0.36150  Biso   1.000  C
  C694     1.0000 0.63850  0.77940  0.37040  Biso   1.000  C
  C695     1.0000 0.63960  0.75610  0.34910  Biso   1.000  C
  C696     1.0000 0.64810  0.75840  0.31900  Biso   1.000  C
  C697     1.0000 0.55800  0.90920  0.99090  Biso   1.000  C
  C698     1.0000 0.52570  0.89810  0.95500  Biso   1.000  C
  C699     1.0000 0.50890  0.93810  0.90750  Biso   1.000  C
  C700     1.0000 0.56380  0.93130  0.97650  Biso   1.000  C
  C701     1.0000 0.73230  0.00130  0.09400  Biso   1.000  C
  C702     1.0000 0.70160  0.00710  0.04470  Biso   1.000  C
  C703     1.0000 0.69290  0.03410  0.02840  Biso   1.000  C
  C704     1.0000 0.71490  0.05520  0.06150  Biso   1.000  C
  C705     1.0000 0.74550  0.04940  0.11080  Biso   1.000  C
  C706     1.0000 0.75420  0.02240  0.12700  Biso   1.000  C
  C707     1.0000 0.90090  0.96680  0.28800  Biso   1.000  C
  C708     1.0000 0.92430  0.94180  0.30350  Biso   1.000  C
  C709     1.0000 0.96630  0.95030  0.35070  Biso   1.000  C
  C710     1.0000 0.92550  0.98630  0.33200  Biso   1.000  C
  C711     1.0000 0.83160  0.81770  0.50840  Biso   1.000  C
  C712     1.0000 0.79490  0.81550  0.49510  Biso   1.000  C
  C713     1.0000 0.79880  0.79420  0.52900  Biso   1.000  C
  C714     1.0000 0.84140  0.80020  0.57760  Biso   1.000  C
  C715     1.0000 0.86480  0.81410  0.56100  Biso   1.000  C
  C716     1.0000 0.92390  0.94740  0.48390  Biso   1.000  C
  C717     1.0000 0.94810  0.94980  0.53730  Biso   1.000  C
  C718     1.0000 0.98450  0.96350  0.55880  Biso   1.000  C
  C719     1.0000 0.99020  0.97120  0.52710  Biso   1.000  C
  C720     1.0000 0.96880  0.96860  0.47750  Biso   1.000  C
  C721     1.0000 0.93050  0.95670  0.45520  Biso   1.000  C
  C722     1.0000 0.43380  0.81070  0.04240  Biso   1.000  C
  C723     1.0000 0.45730  0.80830  0.09490  Biso   1.000  C
  C724     1.0000 0.44470  0.81640  0.11820  Biso   1.000  C
  C725     1.0000 0.40730  0.82500  0.09200  Biso   1.000  C
  C726     1.0000 0.37890  0.82400  0.03560  Biso   1.000  C
  C727     1.0000 0.39600  0.81680  0.01350  Biso   1.000  C
  C728     1.0000 0.84110  0.74030  0.23520  Biso   1.000  C
  C729     1.0000 0.75530  0.66160  0.23060  Biso   1.000  C
  C730     1.0000 0.80030  0.85680  0.02430  Biso   1.000  C
  C731     1.0000 0.75920  0.66470  0.19540  Biso   1.000  C
  C732     1.0000 0.62090  0.68410  0.07240  Biso   1.000  C
  C733     1.0000 0.02650  0.83220  0.42770  Biso   1.000  C
  C734     1.0000 0.63890  0.99170  0.86040  Biso   1.000  C
  C735     1.0000 0.63430  0.76250  0.02670  Biso   1.000  C
  C736     1.0000 0.62600  0.73820  0.99930  Biso   1.000  C
  C737     1.0000 0.77690  0.91950  0.50630  Biso   1.000  C
  C738     1.0000 0.75390  0.68700  0.25490  Biso   1.000  C
  C739     1.0000 0.76410  0.68910  0.18350  Biso   1.000  C
  C740     1.0000 0.84440  0.64700  0.39240  Biso   1.000  C
  C741     1.0000 0.72850  0.81520  0.99370  Biso   1.000  C
  C742     1.0000 0.68660  0.00090  0.85860  Biso   1.000  C
  C743     1.0000 0.03830  0.88310  0.54900  Biso   1.000  C
  C744     1.0000 0.96850  0.89360  0.49270  Biso   1.000  C
  C745     1.0000 0.66530  0.99540  0.91250  Biso   1.000  C
  C746     1.0000 0.59370  0.70140  0.06100  Biso   1.000  C
  C747     1.0000 0.69560  0.89400  0.95560  Biso   1.000  C
  C748     1.0000 0.46590  0.83260  0.87480  Biso   1.000  C
  C749     1.0000 0.67410  0.87710  0.91310  Biso   1.000  C
  C750     1.0000 0.00930  0.90460  0.52070  Biso   1.000  C
  C751     1.0000 0.84850  0.69480  0.38070  Biso   1.000  C
  C752     1.0000 0.60230  0.72620  0.08380  Biso   1.000  C
  C753     1.0000 0.71320  0.76890  0.96610  Biso   1.000  C
  C754     1.0000 0.00740  0.87780  0.43540  Biso   1.000  C
  C755     1.0000 0.82070  0.89640  0.85520  Biso   1.000  C
  C756     1.0000 0.99440  0.75090  0.38650  Biso   1.000  C
  C757     1.0000 0.82100  0.70180  0.38180  Biso   1.000  C
  C758     1.0000 0.81920  0.81660  0.99910  Biso   1.000  C
  C759     1.0000 0.61580  0.78590  0.99960  Biso   1.000  C
  C760     1.0000 0.82170  0.92380  0.83860  Biso   1.000  C
  C761     1.0000 0.68540  0.88240  0.43670  Biso   1.000  C
  C762     1.0000 0.64840  0.99360  0.83220  Biso   1.000  C
  C763     1.0000 0.67190  0.91380  0.86540  Biso   1.000  C
  C764     1.0000 0.66640  0.71950  0.13040  Biso   1.000  C
  C765     1.0000 0.82030  0.71420  0.16190  Biso   1.000  C
  C766     1.0000 0.79010  0.82470  0.94700  Biso   1.000  C
  C767     1.0000 0.58350  0.76210  0.92280  Biso   1.000  C
  C768     1.0000 0.72850  0.79340  0.96890  Biso   1.000  C
  C769     1.0000 0.98850  0.82310  0.39670  Biso   1.000  C
  C770     1.0000 0.69400  0.89140  0.40820  Biso   1.000  C
  C771     1.0000 0.60110  0.73880  0.94810  Biso   1.000  C
  C772     1.0000 0.81980  0.73810  0.18330  Biso   1.000  C
  C773     1.0000 0.66330  0.90170  0.43960  Biso   1.000  C
  C774     1.0000 0.76290  0.71340  0.20480  Biso   1.000  C
  C775     1.0000 0.01860  0.75670  0.43890  Biso   1.000  C
  C776     1.0000 0.76540  0.84660  0.93180  Biso   1.000  C
  C777     1.0000 0.71070  0.00530  0.91030  Biso   1.000  C
  C778     1.0000 0.81540  0.65360  0.39100  Biso   1.000  C
  C779     1.0000 0.86260  0.69340  0.24310  Biso   1.000  C
  C780     1.0000 0.03390  0.85800  0.44880  Biso   1.000  C
  C781     1.0000 0.45170  0.81690  0.89050  Biso   1.000  C
  C782     1.0000 0.70010  0.00290  0.93710  Biso   1.000  C
  C783     1.0000 0.68010  0.91490  0.38230  Biso   1.000  C
  C784     1.0000 0.91520  0.88270  0.24810  Biso   1.000  C
  C785     1.0000 0.69950  0.78770  0.01570  Biso   1.000  C
  C786     1.0000 0.02880  0.85530  0.55080  Biso   1.000  C
  C787     1.0000 0.86360  0.71810  0.26650  Biso   1.000  C
  C788     1.0000 0.96070  0.84190  0.38420  Biso   1.000  C
  C789     1.0000 0.96360  0.86490  0.49720  Biso   1.000  C
  C790     1.0000 0.00500  0.76480  0.46000  Biso   1.000  C
  C791     1.0000 0.84050  0.69170  0.19140  Biso   1.000  C
  C792     1.0000 0.47500  0.80480  0.93700  Biso   1.000  C
  C793     1.0000 0.96670  0.76710  0.43170  Biso   1.000  C
  C794     1.0000 0.59040  0.78670  0.94830  Biso   1.000  C
  C795     1.0000 0.71420  0.81210  0.01780  Biso   1.000  C
  C796     1.0000 0.80200  0.89070  0.87080  Biso   1.000  C
  C797     1.0000 0.70410  0.92080  0.95280  Biso   1.000  C
  C798     1.0000 0.51280  0.80930  0.96910  Biso   1.000  C
  C799     1.0000 0.99010  0.84730  0.51910  Biso   1.000  C
  C800     1.0000 0.75940  0.71160  0.23960  Biso   1.000  C
  C801     1.0000 0.69780  0.76560  0.98910  Biso   1.000  C
  C802     1.0000 0.94270  0.76070  0.38190  Biso   1.000  C
  C803     1.0000 0.63720  0.73550  0.11790  Biso   1.000  C
  C804     1.0000 0.86000  0.66880  0.38510  Biso   1.000  C
  C805     1.0000 0.95580  0.75240  0.35830  Biso   1.000  C
  C806     1.0000 0.82730  0.83530  0.04250  Biso   1.000  C
  C807     1.0000 0.79750  0.94430  0.83470  Biso   1.000  C
  C808     1.0000 0.48460  0.88060  0.01500  Biso   1.000  C
  C809     1.0000 0.64750  0.92500  0.41340  Biso   1.000  C
  C810     1.0000 0.69350  0.93160  0.90960  Biso   1.000  C
  C811     1.0000 0.80550  0.68000  0.38970  Biso   1.000  C
  C812     1.0000 0.65710  0.69380  0.10560  Biso   1.000  C
  C813     1.0000 0.66270  0.88710  0.86700  Biso   1.000  C
  C814     1.0000 0.77270  0.86220  0.97150  Biso   1.000  C
  C815     1.0000 0.96920  0.86850  0.40210  Biso   1.000  C
  C816     1.0000 0.77710  0.93860  0.84500  Biso   1.000  C
  C817     1.0000 0.77870  0.91290  0.86590  Biso   1.000  C
  C818     1.0000 0.50470  0.83660  0.90690  Biso   1.000  C
  C819     1.0000 0.65560  0.93280  0.38190  Biso   1.000  C
  C820     1.0000 0.52820  0.82470  0.95430  Biso   1.000  C
  C821     1.0000 0.76900  0.75390  0.40860  Biso   1.000  C
  C822     1.0000 0.58150  0.71700  0.19160  Biso   1.000  C
  C823     1.0000 0.79200  0.74390  0.45120  Biso   1.000  C
  C824     1.0000 0.57970  0.74600  0.19440  Biso   1.000  C
  C825     1.0000 0.53300  0.71650  0.09960  Biso   1.000  C
  C826     1.0000 0.55920  0.70200  0.14360  Biso   1.000  C
  C827     1.0000 0.53230  0.74720  0.10270  Biso   1.000  C
  C828     1.0000 0.91940  0.78180  0.21170  Biso   1.000  C
  C829     1.0000 0.89170  0.77630  0.16220  Biso   1.000  C
  C830     1.0000 0.85380  0.78550  0.13470  Biso   1.000  C
  C831     1.0000 0.91490  0.79620  0.24260  Biso   1.000  C
  C832     1.0000 0.87670  0.80520  0.21480  Biso   1.000  C
  C833     1.0000 0.55660  0.75970  0.14820  Biso   1.000  C
  C834     1.0000 0.84820  0.80030  0.16540  Biso   1.000  C
  C835     1.0000 0.79860  0.90200  0.49730  Biso   1.000  C
  C836     1.0000 0.77320  0.90950  0.53990  Biso   1.000  C
  S157     1.0000 0.84175  0.80128  0.36162  Biso   1.000  S
  S158     1.0000 0.69799  0.86883  0.13675  Biso   1.000  S
  S159     1.0000 0.73103  0.81909  0.25433  Biso   1.000  S
  S160     1.0000 0.69554  0.89880  0.24393  Biso   1.000  S
  S161     1.0000 0.80752  0.84745  0.24546  Biso   1.000  S
  S162     1.0000 0.77246  0.92732  0.23826  Biso   1.000  S
  S163     1.0000 0.80655  0.87769  0.35456  Biso   1.000  S
  S164     1.0000 0.95119  0.77832  0.46230  Biso   1.000  S
  S165     1.0000 0.76993  0.95539  0.34472  Biso   1.000  S
  S166     1.0000 0.62396  0.84002  0.14571  Biso   1.000  S
  S167     1.0000 0.84285  0.77006  0.26480  Biso   1.000  S
  S168     1.0000 0.58926  0.88605  0.03951  Biso   1.000  S
  S169     1.0000 0.73052  0.78434  0.14489  Biso   1.000  S
  S170     1.0000 0.77577  0.89995  0.13473  Biso   1.000  S
  S171     1.0000 0.66051  0.91035  0.01850  Biso   1.000  S
  S172     1.0000 0.71347  0.84187  0.04567  Biso   1.000  S
  S173     1.0000 0.86978  0.72017  0.37147  Biso   1.000  S
  S174     1.0000 0.54096  0.79313  0.02794  Biso   1.000  S
  S175     1.0000 0.75841  0.74151  0.26761  Biso   1.000  S
  S176     1.0000 0.67342  0.97786  0.24597  Biso   1.000  S
  S177     1.0000 0.64808  0.76772  0.14875  Biso   1.000  S
  S178     1.0000 0.66120  0.95131  0.12324  Biso   1.000  S
  S179     1.0000 0.62554  0.81790  0.03124  Biso   1.000  S
  S180     1.0000 0.91458  0.82921  0.34350  Biso   1.000  S
  S181     1.0000 0.73046  0.94289  0.00346  Biso   1.000  S
  S182     1.0000 0.72897  0.84834  0.36479  Biso   1.000  S
  S183     1.0000 0.91543  0.85396  0.45925  Biso   1.000  S
  S184     1.0000 0.88031  0.75569  0.48590  Biso   1.000  S
  S185     1.0000 0.80251  0.80866  0.13453  Biso   1.000  S
  S186     1.0000 0.88590  0.90864  0.34881  Biso   1.000  S
  S187     1.0000 0.66376  0.78356  0.26926  Biso   1.000  S
  S188     1.0000 0.55378  0.79596  0.15359  Biso   1.000  S
  S189     1.0000 0.75772  0.01476  0.94194  Biso   1.000  S
  S190     1.0000 0.77471  0.77238  0.37162  Biso   1.000  S
  S191     1.0000 0.68530  0.92623  0.33914  Biso   1.000  S
  S192     1.0000 0.85029  0.96431  0.24066  Biso   1.000  S
  S193     1.0000 0.74640  0.00680  0.22710  Biso   1.000  S
  S194     1.0000 0.74709  0.96232  0.83912  Biso   1.000  S
  S195     1.0000 0.74814  0.96985  0.12563  Biso   1.000  S
  S196     1.0000 0.84611  0.83654  0.47392  Biso   1.000  S
  S197     1.0000 0.61718  0.86465  0.23286  Biso   1.000  S
  S198     1.0000 0.86899  0.88058  0.22145  Biso   1.000  S
  S199     1.0000 0.88114  0.93009  0.45862  Biso   1.000  S
  S200     1.0000 0.80797  0.87625  0.06652  Biso   1.000  S
  S201     1.0000 0.84819  0.99584  0.96445  Biso   1.000  S
  S202     1.0000 0.51972  0.86525  0.07344  Biso   1.000  S
  S203     1.0000 0.83539  0.98410  0.33646  Biso   1.000  S
  S204     1.0000 0.80268  0.91150  0.45546  Biso   1.000  S
  S205     1.0000 0.84440  0.94655  0.12659  Biso   1.000  S
  S206     1.0000 0.59156  0.92455  0.14500  Biso   1.000  S
  S207     1.0000 0.44855  0.80308  0.00987  Biso   1.000  S
  S208     1.0000 0.79984  0.93340  0.97808  Biso   1.000  S
  Cd97     1.0000 0.68922  0.85742  0.19696  Biso   1.000  Cd
  Cd98     1.0000 0.76324  0.88547  0.19029  Biso   1.000  Cd
  Cd99     1.0000 0.76130  0.91408  0.29532  Biso   1.000  Cd
  Cd100    1.0000 0.71701  0.77825  0.19976  Biso   1.000  Cd
  Cd101    1.0000 0.65243  0.90722  0.08272  Biso   1.000  Cd
  Cd102    1.0000 0.79518  0.83737  0.30206  Biso   1.000  Cd
  Cd103    1.0000 0.87071  0.86963  0.29393  Biso   1.000  Cd
  Cd104    1.0000 0.87244  0.89305  0.40095  Biso   1.000  Cd
  Cd105    1.0000 0.65683  0.93896  0.18650  Biso   1.000  Cd
  Cd106    1.0000 0.72722  0.96311  0.17492  Biso   1.000  Cd
  Cd107    1.0000 0.60907  0.80532  0.08261  Biso   1.000  Cd
  Cd108    1.0000 0.82306  0.75709  0.31326  Biso   1.000  Cd
  Cd109    1.0000 0.69570  0.82558  0.09531  Biso   1.000  Cd
  Cd110    1.0000 0.83841  0.94352  0.29400  Biso   1.000  Cd
  Cd111    1.0000 0.58066  0.88046  0.10263  Biso   1.000  Cd
  Cd112    1.0000 0.79106  0.86719  0.40841  Biso   1.000  Cd
  Cd113    1.0000 0.83802  0.79414  0.42800  Biso   1.000  Cd
  Cd114    1.0000 0.51677  0.81385  0.06583  Biso   1.000  Cd
  Cd115    1.0000 0.79388  0.80325  0.19750  Biso   1.000  Cd
  Cd116    1.0000 0.90616  0.81625  0.40328  Biso   1.000  Cd
  Cd117    1.0000 0.78265  0.85679  0.10355  Biso   1.000  Cd
  Cd118    1.0000 0.78721  0.97677  0.93046  Biso   1.000  Cd
  Cd119    1.0000 0.72523  0.80904  0.31837  Biso   1.000  Cd
  Cd120    1.0000 0.73729  0.99640  0.28728  Biso   1.000  Cd
  Cd121    1.0000 0.72373  0.92993  0.06557  Biso   1.000  Cd
  Cd122    1.0000 0.68391  0.88222  0.29989  Biso   1.000  Cd
  Cd123    1.0000 0.75019  0.94364  0.39279  Biso   1.000  Cd
  Cd124    1.0000 0.61754  0.81727  0.20295  Biso   1.000  Cd
  Cd125    1.0000 0.83722  0.96822  0.40551  Biso   1.000  Cd
  Cd126    1.0000 0.79345  0.92586  0.04210  Biso   1.000  Cd
  Cd127    1.0000 0.91441  0.74014  0.45899  Biso   1.000  Cd
  Cd128    1.0000 0.83568  0.92611  0.18333  Biso   1.000  Cd
  C837     1.0000 0.79990  0.87720  0.52500  Biso   1.000  C
  C838     1.0000 0.96700  0.97750  0.35300  Biso   1.000  C
  C839     1.0000 0.45920  0.87540  0.95690  Biso   1.000  C
  C840     1.0000 0.53590  0.94910  0.94200  Biso   1.000  C
  C841     1.0000 0.88480  0.97490  0.98230  Biso   1.000  C
  C842     1.0000 0.97940  0.86820  0.30140  Biso   1.000  C
  C843     1.0000 0.49360  0.91700  0.90400  Biso   1.000  C
  C844     1.0000 0.91490  0.90740  0.21700  Biso   1.000  C
  C845     1.0000 0.75030  0.71130  0.42760  Biso   1.000  C
  C846     1.0000 0.93910  0.86990  0.27880  Biso   1.000  C
  C847     1.0000 0.98910  0.88810  0.29220  Biso   1.000  C
  C848     1.0000 0.78860  0.72150  0.47220  Biso   1.000  C
  C849     1.0000 0.66580  0.51690  0.87690  Biso   1.000  C
  C850     1.0000 0.69370  0.50240  0.91950  Biso   1.000  C
  C851     1.0000 0.69670  0.47430  0.91690  Biso   1.000  C
  C852     1.0000 0.67180  0.46080  0.87160  Biso   1.000  C
  C853     1.0000 0.64390  0.47540  0.82900  Biso   1.000  C
  C854     1.0000 0.64090  0.50340  0.83160  Biso   1.000  C
  C855     1.0000 0.94400  0.55630  0.89750  Biso   1.000  C
  C856     1.0000 0.97310  0.54670  0.90190  Biso   1.000  C
  C857     1.0000 0.00040  0.53060  0.94240  Biso   1.000  C
  C858     1.0000 0.99870  0.52410  0.97860  Biso   1.000  C
  C859     1.0000 0.96960  0.53370  0.97420  Biso   1.000  C
  C860     1.0000 0.94230  0.54980  0.93370  Biso   1.000  C
  C861     1.0000 0.90750  0.63630  0.74780  Biso   1.000  C
  C862     1.0000 0.94370  0.64560  0.78140  Biso   1.000  C
  C863     1.0000 0.96440  0.64710  0.76730  Biso   1.000  C
  C864     1.0000 0.94880  0.63930  0.71960  Biso   1.000  C
  C865     1.0000 0.91270  0.63000  0.68600  Biso   1.000  C
  C866     1.0000 0.89200  0.62850  0.70010  Biso   1.000  C
  C867     1.0000 0.86540  0.56331  0.02420  Biso   1.000  C
  C868     1.0000 0.88310  0.56750  0.07390  Biso   1.000  C
  C869     1.0000 0.90670  0.54770  0.10920  Biso   1.000  C
  C870     1.0000 0.91270  0.52366  0.09470  Biso   1.000  C
  C871     1.0000 0.89510  0.51947  0.04500  Biso   1.000  C
  C872     1.0000 0.87140  0.53930  0.00970  Biso   1.000  C
  C873     1.0000 0.58410  0.72760  0.45710  Biso   1.000  C
  C874     1.0000 0.57160  0.73990  0.41330  Biso   1.000  C
  C875     1.0000 0.54320  0.72790  0.36760  Biso   1.000  C
  C876     1.0000 0.52740  0.70360  0.36570  Biso   1.000  C
  C877     1.0000 0.53990  0.69130  0.40950  Biso   1.000  C
  C878     1.0000 0.56830  0.70330  0.45520  Biso   1.000  C
  C879     1.0000 0.78670  0.46720  0.80940  Biso   1.000  C
  C880     1.0000 0.77510  0.44100  0.80840  Biso   1.000  C
  C881     1.0000 0.80090  0.42100  0.84020  Biso   1.000  C
  C882     1.0000 0.83830  0.42720  0.87300  Biso   1.000  C
  C883     1.0000 0.84990  0.45340  0.87400  Biso   1.000  C
  C884     1.0000 0.82410  0.47340  0.84220  Biso   1.000  C
  C885     1.0000 0.65660  0.57800  0.98650  Biso   1.000  C
  C886     1.0000 0.62670  0.56180  0.94970  Biso   1.000  C
  C887     1.0000 0.59100  0.57170  0.92230  Biso   1.000  C
  C888     1.0000 0.58530  0.59760  0.93180  Biso   1.000  C
  C889     1.0000 0.61520  0.61380  0.96870  Biso   1.000  C
  C890     1.0000 0.65090  0.60390  0.99600  Biso   1.000  C
  C891     1.0000 0.86000  0.49600  0.79390  Biso   1.000  C
  C892     1.0000 0.85610  0.47150  0.77120  Biso   1.000  C
  C893     1.0000 0.88440  0.45230  0.79710  Biso   1.000  C
  C894     1.0000 0.91650  0.45770  0.84570  Biso   1.000  C
  C895     1.0000 0.92040  0.48220  0.86840  Biso   1.000  C
  C896     1.0000 0.89210  0.50130  0.84250  Biso   1.000  C
  C897     1.0000 0.63600  0.48850  0.65530  Biso   1.000  C
  C898     1.0000 0.60520  0.48080  0.60720  Biso   1.000  C
  C899     1.0000 0.58220  0.46020  0.59980  Biso   1.000  C
  C900     1.0000 0.59010  0.44730  0.64040  Biso   1.000  C
  C901     1.0000 0.62090  0.45500  0.68850  Biso   1.000  C
  C902     1.0000 0.64390  0.47560  0.69600  Biso   1.000  C
  C903     1.0000 0.84460  0.71600  0.68980  Biso   1.000  C
  C904     1.0000 0.84580  0.69280  0.66860  Biso   1.000  C
  C905     1.0000 0.85430  0.69510  0.63850  Biso   1.000  C
  C906     1.0000 0.86150  0.72060  0.62960  Biso   1.000  C
  C907     1.0000 0.86040  0.74390  0.65090  Biso   1.000  C
  C908     1.0000 0.85190  0.74160  0.68100  Biso   1.000  C
  C909     1.0000 0.94200  0.59080  0.00910  Biso   1.000  C
  C910     1.0000 0.97430  0.60190  0.04500  Biso   1.000  C
  C911     1.0000 0.99110  0.56190  0.09250  Biso   1.000  C
  C912     1.0000 0.93620  0.56870  0.02350  Biso   1.000  C
  C913     1.0000 0.76770  0.49870  0.90600  Biso   1.000  C
  C914     1.0000 0.79840  0.49290  0.95530  Biso   1.000  C
  C915     1.0000 0.80710  0.46590  0.97160  Biso   1.000  C
  C916     1.0000 0.78510  0.44480  0.93850  Biso   1.000  C
  C917     1.0000 0.75450  0.45060  0.88920  Biso   1.000  C
  C918     1.0000 0.74580  0.47760  0.87300  Biso   1.000  C
  C919     1.0000 0.59910  0.53320  0.71200  Biso   1.000  C
  C920     1.0000 0.57570  0.55820  0.69650  Biso   1.000  C
  C921     1.0000 0.53370  0.54970  0.64930  Biso   1.000  C
  C922     1.0000 0.57450  0.51370  0.66800  Biso   1.000  C
  C923     1.0000 0.66840  0.68230  0.49160  Biso   1.000  C
  C924     1.0000 0.70510  0.68450  0.50490  Biso   1.000  C
  C925     1.0000 0.70120  0.70580  0.47100  Biso   1.000  C
  C926     1.0000 0.65860  0.69980  0.42240  Biso   1.000  C
  C927     1.0000 0.63520  0.68590  0.43900  Biso   1.000  C
  C928     1.0000 0.57610  0.55260  0.51610  Biso   1.000  C
  C929     1.0000 0.55190  0.55020  0.46270  Biso   1.000  C
  C930     1.0000 0.51550  0.53650  0.44120  Biso   1.000  C
  C931     1.0000 0.50980  0.52880  0.47290  Biso   1.000  C
  C932     1.0000 0.53120  0.53140  0.52250  Biso   1.000  C
  C933     1.0000 0.56950  0.54330  0.54480  Biso   1.000  C
  C934     1.0000 0.06620  0.68930  0.95760  Biso   1.000  C
  C935     1.0000 0.04270  0.69170  0.90510  Biso   1.000  C
  C936     1.0000 0.05530  0.68360  0.88180  Biso   1.000  C
  C937     1.0000 0.09270  0.67500  0.90800  Biso   1.000  C
  C938     1.0000 0.12110  0.67600  0.96440  Biso   1.000  C
  C939     1.0000 0.10400  0.68320  0.98650  Biso   1.000  C
  C940     1.0000 0.65890  0.75970  0.76480  Biso   1.000  C
  C941     1.0000 0.74470  0.83840  0.76940  Biso   1.000  C
  C942     1.0000 0.69970  0.64320  0.97570  Biso   1.000  C
  C943     1.0000 0.74080  0.83530  0.80460  Biso   1.000  C
  C944     1.0000 0.87910  0.81590  0.92760  Biso   1.000  C
  C945     1.0000 0.47350  0.66780  0.57230  Biso   1.000  C
  C946     1.0000 0.86110  0.50830  0.13960  Biso   1.000  C
  C947     1.0000 0.86570  0.73750  0.97330  Biso   1.000  C
  C948     1.0000 0.87400  0.76180  0.00070  Biso   1.000  C
  C949     1.0000 0.72310  0.58050  0.49370  Biso   1.000  C
  C950     1.0000 0.74610  0.81300  0.74510  Biso   1.000  C
  C951     1.0000 0.73590  0.81090  0.81650  Biso   1.000  C
  C952     1.0000 0.65560  0.85300  0.60760  Biso   1.000  C
  C953     1.0000 0.77150  0.68480  0.00630  Biso   1.000  C
  C954     1.0000 0.81340  0.49910  0.14140  Biso   1.000  C
  C955     1.0000 0.46170  0.61690  0.45100  Biso   1.000  C
  C956     1.0000 0.53150  0.60640  0.50730  Biso   1.000  C
  C957     1.0000 0.83470  0.50460  0.08750  Biso   1.000  C
  C958     1.0000 0.90630  0.79860  0.93900  Biso   1.000  C
  C959     1.0000 0.80440  0.60600  0.04440  Biso   1.000  C
  C960     1.0000 0.03410  0.66740  0.12520  Biso   1.000  C
  C961     1.0000 0.82590  0.62290  0.08690  Biso   1.000  C
  C962     1.0000 0.49070  0.59540  0.47930  Biso   1.000  C
  C963     1.0000 0.65150  0.80520  0.61930  Biso   1.000  C
  C964     1.0000 0.89770  0.77380  0.91620  Biso   1.000  C
  C965     1.0000 0.78680  0.73110  0.03390  Biso   1.000  C
  C966     1.0000 0.49260  0.62220  0.56460  Biso   1.000  C
  C967     1.0000 0.67930  0.60360  0.14480  Biso   1.000  C
  C968     1.0000 0.50560  0.74910  0.61350  Biso   1.000  C
  C969     1.0000 0.67900  0.79820  0.61820  Biso   1.000  C
  C970     1.0000 0.68080  0.68340  0.00090  Biso   1.000  C
  C971     1.0000 0.88420  0.71410  0.00040  Biso   1.000  C
  C972     1.0000 0.67830  0.57620  0.16140  Biso   1.000  C
  C973     1.0000 0.81460  0.61760  0.56330  Biso   1.000  C
  C974     1.0000 0.85160  0.50640  0.16780  Biso   1.000  C
  C975     1.0000 0.82810  0.58620  0.13460  Biso   1.000  C
  C976     1.0000 0.83360  0.78050  0.86960  Biso   1.000  C
  C977     1.0000 0.67970  0.78580  0.83810  Biso   1.000  C
  C978     1.0000 0.70990  0.67530  0.05300  Biso   1.000  C
  C979     1.0000 0.91650  0.73790  0.07720  Biso   1.000  C
  C980     1.0000 0.77150  0.70660  0.03110  Biso   1.000  C
  C981     1.0000 0.51150  0.67690  0.60330  Biso   1.000  C
  C982     1.0000 0.80600  0.60860  0.59180  Biso   1.000  C
  C983     1.0000 0.89890  0.76120  0.05190  Biso   1.000  C
  C984     1.0000 0.68020  0.76190  0.81670  Biso   1.000  C
  C985     1.0000 0.83670  0.59830  0.56040  Biso   1.000  C
  C986     1.0000 0.73710  0.78660  0.79520  Biso   1.000  C
  C987     1.0000 0.48140  0.74330  0.56110  Biso   1.000  C
  C988     1.0000 0.73460  0.65340  0.06820  Biso   1.000  C
  C989     1.0000 0.78930  0.49470  0.08970  Biso   1.000  C
  C990     1.0000 0.68460  0.84640  0.60900  Biso   1.000  C
  C991     1.0000 0.63740  0.80660  0.75690  Biso   1.000  C
  C992     1.0000 0.46610  0.64200  0.55120  Biso   1.000  C
  C993     1.0000 0.04830  0.68310  0.10950  Biso   1.000  C
  C994     1.0000 0.79990  0.49710  0.06290  Biso   1.000  C
  C995     1.0000 0.81990  0.58510  0.61770  Biso   1.000  C
  C996     1.0000 0.58480  0.61730  0.75190  Biso   1.000  C
  C997     1.0000 0.80050  0.71230  0.98430  Biso   1.000  C
  C998     1.0000 0.47120  0.64470  0.44920  Biso   1.000  C
  C999     1.0000 0.63640  0.78190  0.73350  Biso   1.000  C
  C1000    1.0000 0.53930  0.65810  0.61580  Biso   1.000  C
  C1001    1.0000 0.53640  0.63510  0.50280  Biso   1.000  C
  C1002    1.0000 0.49500  0.73520  0.54000  Biso   1.000  C
  C1003    1.0000 0.65950  0.80830  0.80860  Biso   1.000  C
  C1004    1.0000 0.02500  0.69520  0.06300  Biso   1.000  C
  C1005    1.0000 0.53330  0.73290  0.56830  Biso   1.000  C
  C1006    1.0000 0.90960  0.71330  0.05170  Biso   1.000  C
  C1007    1.0000 0.78580  0.68790  0.98220  Biso   1.000  C
  C1008    1.0000 0.69800  0.60930  0.12920  Biso   1.000  C
  C1009    1.0000 0.79590  0.57920  0.04720  Biso   1.000  C
  C1010    1.0000 0.98720  0.69070  0.03090  Biso   1.000  C
  C1011    1.0000 0.50990  0.65270  0.48090  Biso   1.000  C
  C1012    1.0000 0.74060  0.78840  0.76040  Biso   1.000  C
  C1013    1.0000 0.80220  0.73440  0.01090  Biso   1.000  C
  C1014    1.0000 0.55730  0.73930  0.61810  Biso   1.000  C
  C1015    1.0000 0.86280  0.76450  0.88210  Biso   1.000  C
  C1016    1.0000 0.64000  0.83120  0.61490  Biso   1.000  C
  C1017    1.0000 0.54420  0.74760  0.64170  Biso   1.000  C
  C1018    1.0000 0.67270  0.66470  0.95750  Biso   1.000  C
  C1019    1.0000 0.70250  0.55570  0.16530  Biso   1.000  C
  C1020    1.0000 0.01540  0.61940  0.98500  Biso   1.000  C
  C1021    1.0000 0.85250  0.57500  0.58660  Biso   1.000  C
  C1022    1.0000 0.80650  0.56840  0.09040  Biso   1.000  C
  C1023    1.0000 0.69450  0.82000  0.61030  Biso   1.000  C
  C1024    1.0000 0.84290  0.80620  0.89440  Biso   1.000  C
  C1025    1.0000 0.83730  0.61290  0.13300  Biso   1.000  C
  C1026    1.0000 0.72730  0.63780  0.02850  Biso   1.000  C
  C1027    1.0000 0.53080  0.63150  0.59790  Biso   1.000  C
  C1028    1.0000 0.72290  0.56140  0.15500  Biso   1.000  C
  C1029    1.0000 0.72130  0.58710  0.13410  Biso   1.000  C
  C1030    1.0000 0.99530  0.66340  0.09310  Biso   1.000  C
  C1031    1.0000 0.84440  0.56720  0.61810  Biso   1.000  C
  C1032    1.0000 0.97180  0.67530  0.04570  Biso   1.000  C
  C1033    1.0000 0.73100  0.74610  0.59140  Biso   1.000  C
  C1034    1.0000 0.91850  0.78300  0.80840  Biso   1.000  C
  C1035    1.0000 0.70800  0.75610  0.54880  Biso   1.000  C
  C1036    1.0000 0.92030  0.75400  0.80560  Biso   1.000  C
  C1037    1.0000 0.96700  0.78350  0.90040  Biso   1.000  C
  C1038    1.0000 0.94080  0.79800  0.85640  Biso   1.000  C
  C1039    1.0000 0.96770  0.75280  0.89730  Biso   1.000  C
  C1040    1.0000 0.58060  0.71820  0.78830  Biso   1.000  C
  C1041    1.0000 0.60830  0.72370  0.83780  Biso   1.000  C
  C1042    1.0000 0.64620  0.71450  0.86530  Biso   1.000  C
  C1043    1.0000 0.58510  0.70380  0.75740  Biso   1.000  C
  C1044    1.0000 0.62330  0.69480  0.78520  Biso   1.000  C
  C1045    1.0000 0.94340  0.74030  0.85180  Biso   1.000  C
  C1046    1.0000 0.65180  0.69970  0.83460  Biso   1.000  C
  C1047    1.0000 0.70140  0.59800  0.50270  Biso   1.000  C
  C1048    1.0000 0.72680  0.59050  0.46010  Biso   1.000  C
  S209     1.0000 0.65825  0.69872  0.63838  Biso   1.000  S
  S210     1.0000 0.80201  0.63117  0.86325  Biso   1.000  S
  S211     1.0000 0.76897  0.68091  0.74567  Biso   1.000  S
  S212     1.0000 0.80446  0.60120  0.75607  Biso   1.000  S
  S213     1.0000 0.69248  0.65255  0.75454  Biso   1.000  S
  S214     1.0000 0.72754  0.57268  0.76174  Biso   1.000  S
  S215     1.0000 0.69345  0.62231  0.64544  Biso   1.000  S
  S216     1.0000 0.54881  0.72168  0.53770  Biso   1.000  S
  S217     1.0000 0.73007  0.54461  0.65528  Biso   1.000  S
  S218     1.0000 0.87604  0.65998  0.85429  Biso   1.000  S
  S219     1.0000 0.65715  0.72994  0.73520  Biso   1.000  S
  S220     1.0000 0.91074  0.61395  0.96049  Biso   1.000  S
  S221     1.0000 0.76948  0.71566  0.85511  Biso   1.000  S
  S222     1.0000 0.72423  0.60005  0.86527  Biso   1.000  S
  S223     1.0000 0.83949  0.58965  0.98150  Biso   1.000  S
  S224     1.0000 0.78653  0.65813  0.95433  Biso   1.000  S
  S225     1.0000 0.63022  0.77983  0.62853  Biso   1.000  S
  S226     1.0000 0.95904  0.70687  0.97206  Biso   1.000  S
  S227     1.0000 0.74159  0.75849  0.73239  Biso   1.000  S
  S228     1.0000 0.82658  0.52214  0.75403  Biso   1.000  S
  S229     1.0000 0.85192  0.73228  0.85125  Biso   1.000  S
  S230     1.0000 0.83880  0.54869  0.87676  Biso   1.000  S
  S231     1.0000 0.87446  0.68210  0.96876  Biso   1.000  S
  S232     1.0000 0.58542  0.67079  0.65650  Biso   1.000  S
  S233     1.0000 0.76954  0.55711  0.99654  Biso   1.000  S
  S234     1.0000 0.77103  0.65166  0.63521  Biso   1.000  S
  S235     1.0000 0.58457  0.64604  0.54075  Biso   1.000  S
  S236     1.0000 0.61969  0.74431  0.51410  Biso   1.000  S
  S237     1.0000 0.69749  0.69134  0.86547  Biso   1.000  S
  S238     1.0000 0.61410  0.59136  0.65119  Biso   1.000  S
  S239     1.0000 0.83624  0.71644  0.73074  Biso   1.000  S
  S240     1.0000 0.94622  0.70404  0.84641  Biso   1.000  S
  S241     1.0000 0.74228  0.48524  0.05806  Biso   1.000  S
  S242     1.0000 0.72529  0.72762  0.62838  Biso   1.000  S
  S243     1.0000 0.81470  0.57377  0.66086  Biso   1.000  S
  S244     1.0000 0.64971  0.53569  0.75934  Biso   1.000  S
  S245     1.0000 0.75360  0.49320  0.77290  Biso   1.000  S
  S246     1.0000 0.75291  0.53768  0.16088  Biso   1.000  S
  S247     1.0000 0.75186  0.53015  0.87437  Biso   1.000  S
  S248     1.0000 0.65389  0.66346  0.52608  Biso   1.000  S
  S249     1.0000 0.88282  0.63535  0.76714  Biso   1.000  S
  S250     1.0000 0.63101  0.61942  0.77855  Biso   1.000  S
  S251     1.0000 0.61886  0.56991  0.54138  Biso   1.000  S
  S252     1.0000 0.69203  0.62375  0.93348  Biso   1.000  S
  S253     1.0000 0.65181  0.50416  0.03555  Biso   1.000  S
  S254     1.0000 0.98028  0.63475  0.92656  Biso   1.000  S
  S255     1.0000 0.66461  0.51590  0.66354  Biso   1.000  S
  S256     1.0000 0.69732  0.58850  0.54454  Biso   1.000  S
  S257     1.0000 0.65560  0.55345  0.87341  Biso   1.000  S
  S258     1.0000 0.90844  0.57545  0.85500  Biso   1.000  S
  S259     1.0000 0.05145  0.69692  0.99013  Biso   1.000  S
  S260     1.0000 0.70016  0.56660  0.02192  Biso   1.000  S
  Cd129    1.0000 0.81078  0.64258  0.80304  Biso   1.000  Cd
  Cd130    1.0000 0.73676  0.61453  0.80971  Biso   1.000  Cd
  Cd131    1.0000 0.73870  0.58592  0.70468  Biso   1.000  Cd
  Cd132    1.0000 0.78299  0.72175  0.80024  Biso   1.000  Cd
  Cd133    1.0000 0.84757  0.59278  0.91728  Biso   1.000  Cd
  Cd134    1.0000 0.70482  0.66263  0.69794  Biso   1.000  Cd
  Cd135    1.0000 0.62929  0.63037  0.70607  Biso   1.000  Cd
  Cd136    1.0000 0.62756  0.60695  0.59905  Biso   1.000  Cd
  Cd137    1.0000 0.84317  0.56104  0.81350  Biso   1.000  Cd
  Cd138    1.0000 0.77278  0.53689  0.82508  Biso   1.000  Cd
  Cd139    1.0000 0.89093  0.69468  0.91739  Biso   1.000  Cd
  Cd140    1.0000 0.67694  0.74291  0.68674  Biso   1.000  Cd
  Cd141    1.0000 0.80430  0.67442  0.90469  Biso   1.000  Cd
  Cd142    1.0000 0.66159  0.55647  0.70600  Biso   1.000  Cd
  Cd143    1.0000 0.91934  0.61954  0.89737  Biso   1.000  Cd
  Cd144    1.0000 0.70894  0.63281  0.59159  Biso   1.000  Cd
  Cd145    1.0000 0.66198  0.70586  0.57200  Biso   1.000  Cd
  Cd146    1.0000 0.98323  0.68615  0.93417  Biso   1.000  Cd
  Cd147    1.0000 0.70612  0.69675  0.80250  Biso   1.000  Cd
  Cd148    1.0000 0.59384  0.68374  0.59672  Biso   1.000  Cd
  Cd149    1.0000 0.71735  0.64321  0.89645  Biso   1.000  Cd
  Cd150    1.0000 0.71279  0.52323  0.06954  Biso   1.000  Cd
  Cd151    1.0000 0.77477  0.69096  0.68163  Biso   1.000  Cd
  Cd152    1.0000 0.76271  0.50360  0.71272  Biso   1.000  Cd
  Cd153    1.0000 0.77627  0.57006  0.93443  Biso   1.000  Cd
  Cd154    1.0000 0.81609  0.61778  0.70011  Biso   1.000  Cd
  Cd155    1.0000 0.74981  0.55636  0.60721  Biso   1.000  Cd
  Cd156    1.0000 0.88246  0.68273  0.79705  Biso   1.000  Cd
  Cd157    1.0000 0.66278  0.53178  0.59449  Biso   1.000  Cd
  Cd158    1.0000 0.70655  0.57414  0.95790  Biso   1.000  Cd
  Cd159    1.0000 0.58559  0.75986  0.54101  Biso   1.000  Cd
  Cd160    1.0000 0.66432  0.57389  0.81667  Biso   1.000  Cd
  C1049    1.0000 0.70010  0.62280  0.47500  Biso   1.000  C
  C1050    1.0000 0.53300  0.52250  0.64700  Biso   1.000  C
  C1051    1.0000 0.04080  0.62460  0.04310  Biso   1.000  C
  C1052    1.0000 0.96410  0.55090  0.05800  Biso   1.000  C
  C1053    1.0000 0.61520  0.52510  0.01770  Biso   1.000  C
  C1054    1.0000 0.52060  0.63180  0.69860  Biso   1.000  C
  C1055    1.0000 0.00640  0.58300  0.09600  Biso   1.000  C
  C1056    1.0000 0.58510  0.59260  0.78300  Biso   1.000  C
  C1057    1.0000 0.74970  0.78870  0.57240  Biso   1.000  C
  C1058    1.0000 0.56090  0.63010  0.72120  Biso   1.000  C
  C1059    1.0000 0.51090  0.61190  0.70780  Biso   1.000  C
  C1060    1.0000 0.71140  0.77850  0.52780  Biso   1.000  C
  C1061    1.0000 0.16580  0.01690  0.87690  Biso   1.000  C
  C1062    1.0000 0.19370  0.00240  0.91950  Biso   1.000  C
  C1063    1.0000 0.19670  0.97430  0.91690  Biso   1.000  C
  C1064    1.0000 0.17180  0.96080  0.87160  Biso   1.000  C
  C1065    1.0000 0.14390  0.97540  0.82900  Biso   1.000  C
  C1066    1.0000 0.14090  0.00340  0.83160  Biso   1.000  C
  C1067    1.0000 0.44400  0.05630  0.89750  Biso   1.000  C
  C1068    1.0000 0.47310  0.04670  0.90190  Biso   1.000  C
  C1069    1.0000 0.50040  0.03060  0.94240  Biso   1.000  C
  C1070    1.0000 0.49870  0.02410  0.97860  Biso   1.000  C
  C1071    1.0000 0.46960  0.03370  0.97420  Biso   1.000  C
  C1072    1.0000 0.44230  0.04980  0.93370  Biso   1.000  C
  C1073    1.0000 0.40750  0.13630  0.74780  Biso   1.000  C
  C1074    1.0000 0.44370  0.14560  0.78140  Biso   1.000  C
  C1075    1.0000 0.46440  0.14710  0.76730  Biso   1.000  C
  C1076    1.0000 0.44880  0.13930  0.71960  Biso   1.000  C
  C1077    1.0000 0.41270  0.13000  0.68600  Biso   1.000  C
  C1078    1.0000 0.39200  0.12850  0.70010  Biso   1.000  C
  C1079    1.0000 0.36540  0.06331  0.02420  Biso   1.000  C
  C1080    1.0000 0.38310  0.06750  0.07390  Biso   1.000  C
  C1081    1.0000 0.40670  0.04770  0.10920  Biso   1.000  C
  C1082    1.0000 0.41270  0.02366  0.09470  Biso   1.000  C
  C1083    1.0000 0.39510  0.01947  0.04500  Biso   1.000  C
  C1084    1.0000 0.37140  0.03930  0.00970  Biso   1.000  C
  C1085    1.0000 0.08410  0.22760  0.45710  Biso   1.000  C
  C1086    1.0000 0.07160  0.23990  0.41330  Biso   1.000  C
  C1087    1.0000 0.04320  0.22790  0.36760  Biso   1.000  C
  C1088    1.0000 0.02740  0.20360  0.36570  Biso   1.000  C
  C1089    1.0000 0.03990  0.19130  0.40950  Biso   1.000  C
  C1090    1.0000 0.06830  0.20330  0.45520  Biso   1.000  C
  C1091    1.0000 0.28670  0.96720  0.80940  Biso   1.000  C
  C1092    1.0000 0.27510  0.94100  0.80840  Biso   1.000  C
  C1093    1.0000 0.30090  0.92100  0.84020  Biso   1.000  C
  C1094    1.0000 0.33830  0.92720  0.87300  Biso   1.000  C
  C1095    1.0000 0.34990  0.95340  0.87400  Biso   1.000  C
  C1096    1.0000 0.32410  0.97340  0.84220  Biso   1.000  C
  C1097    1.0000 0.15660  0.07800  0.98650  Biso   1.000  C
  C1098    1.0000 0.12670  0.06180  0.94970  Biso   1.000  C
  C1099    1.0000 0.09100  0.07170  0.92230  Biso   1.000  C
  C1100    1.0000 0.08530  0.09760  0.93180  Biso   1.000  C
  C1101    1.0000 0.11520  0.11380  0.96870  Biso   1.000  C
  C1102    1.0000 0.15090  0.10390  0.99600  Biso   1.000  C
  C1103    1.0000 0.36000  0.99600  0.79390  Biso   1.000  C
  C1104    1.0000 0.35610  0.97150  0.77120  Biso   1.000  C
  C1105    1.0000 0.38440  0.95230  0.79710  Biso   1.000  C
  C1106    1.0000 0.41650  0.95770  0.84570  Biso   1.000  C
  C1107    1.0000 0.42040  0.98220  0.86840  Biso   1.000  C
  C1108    1.0000 0.39210  0.00130  0.84250  Biso   1.000  C
  C1109    1.0000 0.13600  0.98850  0.65530  Biso   1.000  C
  C1110    1.0000 0.10520  0.98080  0.60720  Biso   1.000  C
  C1111    1.0000 0.08220  0.96020  0.59980  Biso   1.000  C
  C1112    1.0000 0.09010  0.94730  0.64040  Biso   1.000  C
  C1113    1.0000 0.12090  0.95500  0.68850  Biso   1.000  C
  C1114    1.0000 0.14390  0.97560  0.69600  Biso   1.000  C
  C1115    1.0000 0.34460  0.21600  0.68980  Biso   1.000  C
  C1116    1.0000 0.34580  0.19280  0.66860  Biso   1.000  C
  C1117    1.0000 0.35430  0.19510  0.63850  Biso   1.000  C
  C1118    1.0000 0.36150  0.22060  0.62960  Biso   1.000  C
  C1119    1.0000 0.36040  0.24390  0.65090  Biso   1.000  C
  C1120    1.0000 0.35190  0.24160  0.68100  Biso   1.000  C
  C1121    1.0000 0.44200  0.09080  0.00910  Biso   1.000  C
  C1122    1.0000 0.47430  0.10190  0.04500  Biso   1.000  C
  C1123    1.0000 0.49110  0.06190  0.09250  Biso   1.000  C
  C1124    1.0000 0.43620  0.06870  0.02350  Biso   1.000  C
  C1125    1.0000 0.26770  0.99870  0.90600  Biso   1.000  C
  C1126    1.0000 0.29840  0.99290  0.95530  Biso   1.000  C
  C1127    1.0000 0.30710  0.96590  0.97160  Biso   1.000  C
  C1128    1.0000 0.28510  0.94480  0.93850  Biso   1.000  C
  C1129    1.0000 0.25450  0.95060  0.88920  Biso   1.000  C
  C1130    1.0000 0.24580  0.97760  0.87300  Biso   1.000  C
  C1131    1.0000 0.09910  0.03320  0.71200  Biso   1.000  C
  C1132    1.0000 0.07570  0.05820  0.69650  Biso   1.000  C
  C1133    1.0000 0.03370  0.04970  0.64930  Biso   1.000  C
  C1134    1.0000 0.07450  0.01370  0.66800  Biso   1.000  C
  C1135    1.0000 0.16840  0.18230  0.49160  Biso   1.000  C
  C1136    1.0000 0.20510  0.18450  0.50490  Biso   1.000  C
  C1137    1.0000 0.20120  0.20580  0.47100  Biso   1.000  C
  C1138    1.0000 0.15860  0.19980  0.42240  Biso   1.000  C
  C1139    1.0000 0.13520  0.18590  0.43900  Biso   1.000  C
  C1140    1.0000 0.07610  0.05260  0.51610  Biso   1.000  C
  C1141    1.0000 0.05190  0.05020  0.46270  Biso   1.000  C
  C1142    1.0000 0.01550  0.03650  0.44120  Biso   1.000  C
  C1143    1.0000 0.00980  0.02880  0.47290  Biso   1.000  C
  C1144    1.0000 0.03120  0.03140  0.52250  Biso   1.000  C
  C1145    1.0000 0.06950  0.04330  0.54480  Biso   1.000  C
  C1146    1.0000 0.56620  0.18930  0.95760  Biso   1.000  C
  C1147    1.0000 0.54270  0.19170  0.90510  Biso   1.000  C
  C1148    1.0000 0.55530  0.18360  0.88180  Biso   1.000  C
  C1149    1.0000 0.59270  0.17500  0.90800  Biso   1.000  C
  C1150    1.0000 0.62110  0.17600  0.96440  Biso   1.000  C
  C1151    1.0000 0.60400  0.18320  0.98650  Biso   1.000  C
  C1152    1.0000 0.15890  0.25970  0.76480  Biso   1.000  C
  C1153    1.0000 0.24470  0.33840  0.76940  Biso   1.000  C
  C1154    1.0000 0.19970  0.14320  0.97570  Biso   1.000  C
  C1155    1.0000 0.24080  0.33530  0.80460  Biso   1.000  C
  C1156    1.0000 0.37910  0.31590  0.92760  Biso   1.000  C
  C1157    1.0000 0.97350  0.16780  0.57230  Biso   1.000  C
  C1158    1.0000 0.36110  0.00830  0.13960  Biso   1.000  C
  C1159    1.0000 0.36570  0.23750  0.97330  Biso   1.000  C
  C1160    1.0000 0.37400  0.26180  0.00070  Biso   1.000  C
  C1161    1.0000 0.22310  0.08050  0.49370  Biso   1.000  C
  C1162    1.0000 0.24610  0.31300  0.74510  Biso   1.000  C
  C1163    1.0000 0.23590  0.31090  0.81650  Biso   1.000  C
  C1164    1.0000 0.15560  0.35300  0.60760  Biso   1.000  C
  C1165    1.0000 0.27150  0.18480  0.00630  Biso   1.000  C
  C1166    1.0000 0.31340  0.99910  0.14140  Biso   1.000  C
  C1167    1.0000 0.96170  0.11690  0.45100  Biso   1.000  C
  C1168    1.0000 0.03150  0.10640  0.50730  Biso   1.000  C
  C1169    1.0000 0.33470  0.00460  0.08750  Biso   1.000  C
  C1170    1.0000 0.40630  0.29860  0.93900  Biso   1.000  C
  C1171    1.0000 0.30440  0.10600  0.04440  Biso   1.000  C
  C1172    1.0000 0.53410  0.16740  0.12520  Biso   1.000  C
  C1173    1.0000 0.32590  0.12290  0.08690  Biso   1.000  C
  C1174    1.0000 0.99070  0.09540  0.47930  Biso   1.000  C
  C1175    1.0000 0.15150  0.30520  0.61930  Biso   1.000  C
  C1176    1.0000 0.39770  0.27380  0.91620  Biso   1.000  C
  C1177    1.0000 0.28680  0.23110  0.03390  Biso   1.000  C
  C1178    1.0000 0.99260  0.12220  0.56460  Biso   1.000  C
  C1179    1.0000 0.17930  0.10360  0.14480  Biso   1.000  C
  C1180    1.0000 0.00560  0.24910  0.61350  Biso   1.000  C
  C1181    1.0000 0.17900  0.29820  0.61820  Biso   1.000  C
  C1182    1.0000 0.18080  0.18340  0.00090  Biso   1.000  C
  C1183    1.0000 0.38420  0.21410  0.00040  Biso   1.000  C
  C1184    1.0000 0.17830  0.07620  0.16140  Biso   1.000  C
  C1185    1.0000 0.31460  0.11760  0.56330  Biso   1.000  C
  C1186    1.0000 0.35160  0.00640  0.16780  Biso   1.000  C
  C1187    1.0000 0.32810  0.08620  0.13460  Biso   1.000  C
  C1188    1.0000 0.33360  0.28050  0.86960  Biso   1.000  C
  C1189    1.0000 0.17970  0.28580  0.83810  Biso   1.000  C
  C1190    1.0000 0.20990  0.17530  0.05300  Biso   1.000  C
  C1191    1.0000 0.41650  0.23790  0.07720  Biso   1.000  C
  C1192    1.0000 0.27150  0.20660  0.03110  Biso   1.000  C
  C1193    1.0000 0.01150  0.17690  0.60330  Biso   1.000  C
  C1194    1.0000 0.30600  0.10860  0.59180  Biso   1.000  C
  C1195    1.0000 0.39890  0.26120  0.05190  Biso   1.000  C
  C1196    1.0000 0.18020  0.26190  0.81670  Biso   1.000  C
  C1197    1.0000 0.33670  0.09830  0.56040  Biso   1.000  C
  C1198    1.0000 0.23710  0.28660  0.79520  Biso   1.000  C
  C1199    1.0000 0.98140  0.24330  0.56110  Biso   1.000  C
  C1200    1.0000 0.23460  0.15340  0.06820  Biso   1.000  C
  C1201    1.0000 0.28930  0.99470  0.08970  Biso   1.000  C
  C1202    1.0000 0.18460  0.34640  0.60900  Biso   1.000  C
  C1203    1.0000 0.13740  0.30660  0.75690  Biso   1.000  C
  C1204    1.0000 0.96610  0.14200  0.55120  Biso   1.000  C
  C1205    1.0000 0.54830  0.18310  0.10950  Biso   1.000  C
  C1206    1.0000 0.29990  0.99710  0.06290  Biso   1.000  C
  C1207    1.0000 0.31990  0.08510  0.61770  Biso   1.000  C
  C1208    1.0000 0.08480  0.11730  0.75190  Biso   1.000  C
  C1209    1.0000 0.30050  0.21230  0.98430  Biso   1.000  C
  C1210    1.0000 0.97120  0.14470  0.44920  Biso   1.000  C
  C1211    1.0000 0.13640  0.28190  0.73350  Biso   1.000  C
  C1212    1.0000 0.03930  0.15810  0.61580  Biso   1.000  C
  C1213    1.0000 0.03640  0.13510  0.50280  Biso   1.000  C
  C1214    1.0000 0.99500  0.23520  0.54000  Biso   1.000  C
  C1215    1.0000 0.15950  0.30830  0.80860  Biso   1.000  C
  C1216    1.0000 0.52500  0.19520  0.06300  Biso   1.000  C
  C1217    1.0000 0.03330  0.23290  0.56830  Biso   1.000  C
  C1218    1.0000 0.40960  0.21330  0.05170  Biso   1.000  C
  C1219    1.0000 0.28580  0.18790  0.98220  Biso   1.000  C
  C1220    1.0000 0.19800  0.10930  0.12920  Biso   1.000  C
  C1221    1.0000 0.29590  0.07920  0.04720  Biso   1.000  C
  C1222    1.0000 0.48720  0.19070  0.03090  Biso   1.000  C
  C1223    1.0000 0.00990  0.15270  0.48090  Biso   1.000  C
  C1224    1.0000 0.24060  0.28840  0.76040  Biso   1.000  C
  C1225    1.0000 0.30220  0.23440  0.01090  Biso   1.000  C
  C1226    1.0000 0.05730  0.23930  0.61810  Biso   1.000  C
  C1227    1.0000 0.36280  0.26450  0.88210  Biso   1.000  C
  C1228    1.0000 0.14000  0.33120  0.61490  Biso   1.000  C
  C1229    1.0000 0.04420  0.24760  0.64170  Biso   1.000  C
  C1230    1.0000 0.17270  0.16470  0.95750  Biso   1.000  C
  C1231    1.0000 0.20250  0.05570  0.16530  Biso   1.000  C
  C1232    1.0000 0.51540  0.11940  0.98500  Biso   1.000  C
  C1233    1.0000 0.35250  0.07500  0.58660  Biso   1.000  C
  C1234    1.0000 0.30650  0.06840  0.09040  Biso   1.000  C
  C1235    1.0000 0.19450  0.32000  0.61030  Biso   1.000  C
  C1236    1.0000 0.34290  0.30620  0.89440  Biso   1.000  C
  C1237    1.0000 0.33730  0.11290  0.13300  Biso   1.000  C
  C1238    1.0000 0.22730  0.13780  0.02850  Biso   1.000  C
  C1239    1.0000 0.03080  0.13150  0.59790  Biso   1.000  C
  C1240    1.0000 0.22290  0.06140  0.15500  Biso   1.000  C
  C1241    1.0000 0.22130  0.08710  0.13410  Biso   1.000  C
  C1242    1.0000 0.49530  0.16340  0.09310  Biso   1.000  C
  C1243    1.0000 0.34440  0.06720  0.61810  Biso   1.000  C
  C1244    1.0000 0.47180  0.17530  0.04570  Biso   1.000  C
  C1245    1.0000 0.23100  0.24610  0.59140  Biso   1.000  C
  C1246    1.0000 0.41850  0.28300  0.80840  Biso   1.000  C
  C1247    1.0000 0.20800  0.25610  0.54880  Biso   1.000  C
  C1248    1.0000 0.42030  0.25400  0.80560  Biso   1.000  C
  C1249    1.0000 0.46700  0.28350  0.90040  Biso   1.000  C
  C1250    1.0000 0.44080  0.29800  0.85640  Biso   1.000  C
  C1251    1.0000 0.46770  0.25280  0.89730  Biso   1.000  C
  C1252    1.0000 0.08060  0.21820  0.78830  Biso   1.000  C
  C1253    1.0000 0.10830  0.22370  0.83780  Biso   1.000  C
  C1254    1.0000 0.14620  0.21450  0.86530  Biso   1.000  C
  C1255    1.0000 0.08510  0.20380  0.75740  Biso   1.000  C
  C1256    1.0000 0.12330  0.19480  0.78520  Biso   1.000  C
  C1257    1.0000 0.44340  0.24030  0.85180  Biso   1.000  C
  C1258    1.0000 0.15180  0.19970  0.83460  Biso   1.000  C
  C1259    1.0000 0.20140  0.09800  0.50270  Biso   1.000  C
  C1260    1.0000 0.22680  0.09050  0.46010  Biso   1.000  C
  S261     1.0000 0.15825  0.19872  0.63838  Biso   1.000  S
  S262     1.0000 0.30201  0.13117  0.86325  Biso   1.000  S
  S263     1.0000 0.26897  0.18091  0.74567  Biso   1.000  S
  S264     1.0000 0.30446  0.10120  0.75607  Biso   1.000  S
  S265     1.0000 0.19248  0.15255  0.75454  Biso   1.000  S
  S266     1.0000 0.22754  0.07268  0.76174  Biso   1.000  S
  S267     1.0000 0.19345  0.12231  0.64544  Biso   1.000  S
  S268     1.0000 0.04881  0.22168  0.53770  Biso   1.000  S
  S269     1.0000 0.23007  0.04461  0.65528  Biso   1.000  S
  S270     1.0000 0.37604  0.15998  0.85429  Biso   1.000  S
  S271     1.0000 0.15715  0.22994  0.73520  Biso   1.000  S
  S272     1.0000 0.41074  0.11395  0.96049  Biso   1.000  S
  S273     1.0000 0.26948  0.21566  0.85511  Biso   1.000  S
  S274     1.0000 0.22423  0.10005  0.86527  Biso   1.000  S
  S275     1.0000 0.33949  0.08965  0.98150  Biso   1.000  S
  S276     1.0000 0.28653  0.15813  0.95433  Biso   1.000  S
  S277     1.0000 0.13022  0.27983  0.62853  Biso   1.000  S
  S278     1.0000 0.45904  0.20687  0.97206  Biso   1.000  S
  S279     1.0000 0.24159  0.25849  0.73239  Biso   1.000  S
  S280     1.0000 0.32658  0.02214  0.75403  Biso   1.000  S
  S281     1.0000 0.35192  0.23228  0.85125  Biso   1.000  S
  S282     1.0000 0.33880  0.04869  0.87676  Biso   1.000  S
  S283     1.0000 0.37446  0.18210  0.96876  Biso   1.000  S
  S284     1.0000 0.08542  0.17079  0.65650  Biso   1.000  S
  S285     1.0000 0.26954  0.05711  0.99654  Biso   1.000  S
  S286     1.0000 0.27103  0.15166  0.63521  Biso   1.000  S
  S287     1.0000 0.08457  0.14604  0.54075  Biso   1.000  S
  S288     1.0000 0.11969  0.24431  0.51410  Biso   1.000  S
  S289     1.0000 0.19749  0.19134  0.86547  Biso   1.000  S
  S290     1.0000 0.11410  0.09136  0.65119  Biso   1.000  S
  S291     1.0000 0.33624  0.21644  0.73074  Biso   1.000  S
  S292     1.0000 0.44622  0.20404  0.84641  Biso   1.000  S
  S293     1.0000 0.24228  0.98524  0.05806  Biso   1.000  S
  S294     1.0000 0.22529  0.22762  0.62838  Biso   1.000  S
  S295     1.0000 0.31470  0.07377  0.66086  Biso   1.000  S
  S296     1.0000 0.14971  0.03569  0.75934  Biso   1.000  S
  S297     1.0000 0.25360  0.99320  0.77290  Biso   1.000  S
  S298     1.0000 0.25291  0.03768  0.16088  Biso   1.000  S
  S299     1.0000 0.25186  0.03015  0.87437  Biso   1.000  S
  S300     1.0000 0.15389  0.16346  0.52608  Biso   1.000  S
  S301     1.0000 0.38282  0.13535  0.76714  Biso   1.000  S
  S302     1.0000 0.13101  0.11942  0.77855  Biso   1.000  S
  S303     1.0000 0.11886  0.06991  0.54138  Biso   1.000  S
  S304     1.0000 0.19203  0.12375  0.93348  Biso   1.000  S
  S305     1.0000 0.15181  0.00416  0.03555  Biso   1.000  S
  S306     1.0000 0.48028  0.13475  0.92656  Biso   1.000  S
  S307     1.0000 0.16461  0.01590  0.66354  Biso   1.000  S
  S308     1.0000 0.19732  0.08850  0.54454  Biso   1.000  S
  S309     1.0000 0.15560  0.05345  0.87341  Biso   1.000  S
  S310     1.0000 0.40844  0.07545  0.85500  Biso   1.000  S
  S311     1.0000 0.55145  0.19692  0.99013  Biso   1.000  S
  S312     1.0000 0.20016  0.06660  0.02192  Biso   1.000  S
  Cd161    1.0000 0.31078  0.14258  0.80304  Biso   1.000  Cd
  Cd162    1.0000 0.23676  0.11453  0.80971  Biso   1.000  Cd
  Cd163    1.0000 0.23870  0.08592  0.70468  Biso   1.000  Cd
  Cd164    1.0000 0.28299  0.22175  0.80024  Biso   1.000  Cd
  Cd165    1.0000 0.34757  0.09278  0.91728  Biso   1.000  Cd
  Cd166    1.0000 0.20482  0.16263  0.69794  Biso   1.000  Cd
  Cd167    1.0000 0.12929  0.13037  0.70607  Biso   1.000  Cd
  Cd168    1.0000 0.12756  0.10695  0.59905  Biso   1.000  Cd
  Cd169    1.0000 0.34317  0.06104  0.81350  Biso   1.000  Cd
  Cd170    1.0000 0.27278  0.03689  0.82508  Biso   1.000  Cd
  Cd171    1.0000 0.39093  0.19468  0.91739  Biso   1.000  Cd
  Cd172    1.0000 0.17694  0.24291  0.68674  Biso   1.000  Cd
  Cd173    1.0000 0.30430  0.17442  0.90469  Biso   1.000  Cd
  Cd174    1.0000 0.16159  0.05647  0.70600  Biso   1.000  Cd
  Cd175    1.0000 0.41934  0.11954  0.89737  Biso   1.000  Cd
  Cd176    1.0000 0.20894  0.13281  0.59159  Biso   1.000  Cd
  Cd177    1.0000 0.16198  0.20586  0.57200  Biso   1.000  Cd
  Cd178    1.0000 0.48323  0.18615  0.93417  Biso   1.000  Cd
  Cd179    1.0000 0.20612  0.19675  0.80250  Biso   1.000  Cd
  Cd180    1.0000 0.09384  0.18374  0.59672  Biso   1.000  Cd
  Cd181    1.0000 0.21735  0.14321  0.89645  Biso   1.000  Cd
  Cd182    1.0000 0.21279  0.02323  0.06954  Biso   1.000  Cd
  Cd183    1.0000 0.27477  0.19096  0.68163  Biso   1.000  Cd
  Cd184    1.0000 0.26271  0.00360  0.71272  Biso   1.000  Cd
  Cd185    1.0000 0.27627  0.07006  0.93443  Biso   1.000  Cd
  Cd186    1.0000 0.31609  0.11778  0.70011  Biso   1.000  Cd
  Cd187    1.0000 0.24981  0.05636  0.60721  Biso   1.000  Cd
  Cd188    1.0000 0.38246  0.18273  0.79705  Biso   1.000  Cd
  Cd189    1.0000 0.16278  0.03178  0.59449  Biso   1.000  Cd
  Cd190    1.0000 0.20655  0.07414  0.95790  Biso   1.000  Cd
  Cd191    1.0000 0.08559  0.25986  0.54101  Biso   1.000  Cd
  Cd192    1.0000 0.16432  0.07389  0.81667  Biso   1.000  Cd
  C1261    1.0000 0.20010  0.12280  0.47500  Biso   1.000  C
  C1262    1.0000 0.03300  0.02250  0.64700  Biso   1.000  C
  C1263    1.0000 0.54080  0.12460  0.04310  Biso   1.000  C
  C1264    1.0000 0.46410  0.05090  0.05800  Biso   1.000  C
  C1265    1.0000 0.11520  0.02510  0.01770  Biso   1.000  C
  C1266    1.0000 0.02060  0.13180  0.69860  Biso   1.000  C
  C1267    1.0000 0.50640  0.08300  0.09600  Biso   1.000  C
  C1268    1.0000 0.08510  0.09260  0.78300  Biso   1.000  C
  C1269    1.0000 0.24970  0.28870  0.57240  Biso   1.000  C
  C1270    1.0000 0.06090  0.13010  0.72120  Biso   1.000  C
  C1271    1.0000 0.01090  0.11190  0.70780  Biso   1.000  C
  C1272    1.0000 0.21140  0.27850  0.52780  Biso   1.000  C
  C1273    1.0000 0.66580  0.48310  0.37690  Biso   1.000  C
  C1274    1.0000 0.69370  0.49760  0.41950  Biso   1.000  C
  C1275    1.0000 0.69670  0.52570  0.41690  Biso   1.000  C
  C1276    1.0000 0.67180  0.53920  0.37160  Biso   1.000  C
  C1277    1.0000 0.64390  0.52460  0.32900  Biso   1.000  C
  C1278    1.0000 0.64090  0.49660  0.33160  Biso   1.000  C
  C1279    1.0000 0.94400  0.44370  0.39750  Biso   1.000  C
  C1280    1.0000 0.97310  0.45330  0.40190  Biso   1.000  C
  C1281    1.0000 0.00040  0.46940  0.44240  Biso   1.000  C
  C1282    1.0000 0.99870  0.47590  0.47860  Biso   1.000  C
  C1283    1.0000 0.96960  0.46630  0.47420  Biso   1.000  C
  C1284    1.0000 0.94230  0.45020  0.43370  Biso   1.000  C
  C1285    1.0000 0.90750  0.36370  0.24780  Biso   1.000  C
  C1286    1.0000 0.94370  0.35440  0.28140  Biso   1.000  C
  C1287    1.0000 0.96440  0.35290  0.26730  Biso   1.000  C
  C1288    1.0000 0.94880  0.36070  0.21960  Biso   1.000  C
  C1289    1.0000 0.91270  0.37000  0.18600  Biso   1.000  C
  C1290    1.0000 0.89200  0.37150  0.20010  Biso   1.000  C
  C1291    1.0000 0.86540  0.43669  0.52420  Biso   1.000  C
  C1292    1.0000 0.88310  0.43250  0.57390  Biso   1.000  C
  C1293    1.0000 0.90670  0.45230  0.60920  Biso   1.000  C
  C1294    1.0000 0.91270  0.47634  0.59470  Biso   1.000  C
  C1295    1.0000 0.89510  0.48053  0.54500  Biso   1.000  C
  C1296    1.0000 0.87140  0.46070  0.50970  Biso   1.000  C
  C1297    1.0000 0.58410  0.27240  0.95710  Biso   1.000  C
  C1298    1.0000 0.57160  0.26010  0.91330  Biso   1.000  C
  C1299    1.0000 0.54320  0.27210  0.86760  Biso   1.000  C
  C1300    1.0000 0.52740  0.29640  0.86570  Biso   1.000  C
  C1301    1.0000 0.53990  0.30870  0.90950  Biso   1.000  C
  C1302    1.0000 0.56830  0.29670  0.95520  Biso   1.000  C
  C1303    1.0000 0.78670  0.53280  0.30940  Biso   1.000  C
  C1304    1.0000 0.77510  0.55900  0.30840  Biso   1.000  C
  C1305    1.0000 0.80090  0.57900  0.34020  Biso   1.000  C
  C1306    1.0000 0.83830  0.57280  0.37300  Biso   1.000  C
  C1307    1.0000 0.84990  0.54660  0.37400  Biso   1.000  C
  C1308    1.0000 0.82410  0.52660  0.34220  Biso   1.000  C
  C1309    1.0000 0.65660  0.42200  0.48650  Biso   1.000  C
  C1310    1.0000 0.62670  0.43820  0.44970  Biso   1.000  C
  C1311    1.0000 0.59100  0.42830  0.42230  Biso   1.000  C
  C1312    1.0000 0.58530  0.40240  0.43180  Biso   1.000  C
  C1313    1.0000 0.61520  0.38620  0.46870  Biso   1.000  C
  C1314    1.0000 0.65090  0.39610  0.49600  Biso   1.000  C
  C1315    1.0000 0.86000  0.50400  0.29390  Biso   1.000  C
  C1316    1.0000 0.85610  0.52850  0.27120  Biso   1.000  C
  C1317    1.0000 0.88440  0.54770  0.29710  Biso   1.000  C
  C1318    1.0000 0.91650  0.54230  0.34570  Biso   1.000  C
  C1319    1.0000 0.92040  0.51780  0.36840  Biso   1.000  C
  C1320    1.0000 0.89210  0.49870  0.34250  Biso   1.000  C
  C1321    1.0000 0.63600  0.51150  0.15530  Biso   1.000  C
  C1322    1.0000 0.60520  0.51920  0.10720  Biso   1.000  C
  C1323    1.0000 0.58220  0.53980  0.09980  Biso   1.000  C
  C1324    1.0000 0.59010  0.55270  0.14040  Biso   1.000  C
  C1325    1.0000 0.62090  0.54500  0.18850  Biso   1.000  C
  C1326    1.0000 0.64390  0.52440  0.19600  Biso   1.000  C
  C1327    1.0000 0.84460  0.28400  0.18980  Biso   1.000  C
  C1328    1.0000 0.84580  0.30720  0.16860  Biso   1.000  C
  C1329    1.0000 0.85430  0.30490  0.13850  Biso   1.000  C
  C1330    1.0000 0.86150  0.27940  0.12960  Biso   1.000  C
  C1331    1.0000 0.86040  0.25610  0.15090  Biso   1.000  C
  C1332    1.0000 0.85190  0.25840  0.18100  Biso   1.000  C
  C1333    1.0000 0.94200  0.40920  0.50910  Biso   1.000  C
  C1334    1.0000 0.97430  0.39810  0.54500  Biso   1.000  C
  C1335    1.0000 0.99110  0.43810  0.59250  Biso   1.000  C
  C1336    1.0000 0.93620  0.43130  0.52350  Biso   1.000  C
  C1337    1.0000 0.76770  0.50130  0.40600  Biso   1.000  C
  C1338    1.0000 0.79840  0.50710  0.45530  Biso   1.000  C
  C1339    1.0000 0.80710  0.53410  0.47160  Biso   1.000  C
  C1340    1.0000 0.78510  0.55520  0.43850  Biso   1.000  C
  C1341    1.0000 0.75450  0.54940  0.38920  Biso   1.000  C
  C1342    1.0000 0.74580  0.52240  0.37300  Biso   1.000  C
  C1343    1.0000 0.59910  0.46680  0.21200  Biso   1.000  C
  C1344    1.0000 0.57570  0.44180  0.19650  Biso   1.000  C
  C1345    1.0000 0.53370  0.45030  0.14930  Biso   1.000  C
  C1346    1.0000 0.57450  0.48630  0.16800  Biso   1.000  C
  C1347    1.0000 0.66840  0.31770  0.99160  Biso   1.000  C
  C1348    1.0000 0.70510  0.31550  0.00490  Biso   1.000  C
  C1349    1.0000 0.70120  0.29420  0.97100  Biso   1.000  C
  C1350    1.0000 0.65860  0.30020  0.92240  Biso   1.000  C
  C1351    1.0000 0.63520  0.31410  0.93900  Biso   1.000  C
  C1352    1.0000 0.57610  0.44740  0.01610  Biso   1.000  C
  C1353    1.0000 0.55190  0.44980  0.96270  Biso   1.000  C
  C1354    1.0000 0.51550  0.46350  0.94120  Biso   1.000  C
  C1355    1.0000 0.50980  0.47120  0.97290  Biso   1.000  C
  C1356    1.0000 0.53120  0.46860  0.02250  Biso   1.000  C
  C1357    1.0000 0.56950  0.45670  0.04480  Biso   1.000  C
  C1358    1.0000 0.06620  0.31070  0.45760  Biso   1.000  C
  C1359    1.0000 0.04270  0.30830  0.40510  Biso   1.000  C
  C1360    1.0000 0.05530  0.31640  0.38180  Biso   1.000  C
  C1361    1.0000 0.09270  0.32500  0.40800  Biso   1.000  C
  C1362    1.0000 0.12110  0.32400  0.46440  Biso   1.000  C
  C1363    1.0000 0.10400  0.31680  0.48650  Biso   1.000  C
  C1364    1.0000 0.65890  0.24030  0.26480  Biso   1.000  C
  C1365    1.0000 0.74470  0.16160  0.26940  Biso   1.000  C
  C1366    1.0000 0.69970  0.35680  0.47570  Biso   1.000  C
  C1367    1.0000 0.74080  0.16470  0.30460  Biso   1.000  C
  C1368    1.0000 0.87910  0.18410  0.42760  Biso   1.000  C
  C1369    1.0000 0.47350  0.33220  0.07230  Biso   1.000  C
  C1370    1.0000 0.86110  0.49170  0.63960  Biso   1.000  C
  C1371    1.0000 0.86570  0.26250  0.47330  Biso   1.000  C
  C1372    1.0000 0.87400  0.23820  0.50070  Biso   1.000  C
  C1373    1.0000 0.72310  0.41950  0.99370  Biso   1.000  C
  C1374    1.0000 0.74610  0.18700  0.24510  Biso   1.000  C
  C1375    1.0000 0.73590  0.18910  0.31650  Biso   1.000  C
  C1376    1.0000 0.65560  0.14700  0.10760  Biso   1.000  C
  C1377    1.0000 0.77150  0.31520  0.50630  Biso   1.000  C
  C1378    1.0000 0.81340  0.50090  0.64140  Biso   1.000  C
  C1379    1.0000 0.46170  0.38310  0.95100  Biso   1.000  C
  C1380    1.0000 0.53150  0.39360  0.00730  Biso   1.000  C
  C1381    1.0000 0.83470  0.49540  0.58750  Biso   1.000  C
  C1382    1.0000 0.90630  0.20140  0.43900  Biso   1.000  C
  C1383    1.0000 0.80440  0.39400  0.54440  Biso   1.000  C
  C1384    1.0000 0.03410  0.33260  0.62520  Biso   1.000  C
  C1385    1.0000 0.82590  0.37710  0.58690  Biso   1.000  C
  C1386    1.0000 0.49070  0.40460  0.97930  Biso   1.000  C
  C1387    1.0000 0.65150  0.19480  0.11930  Biso   1.000  C
  C1388    1.0000 0.89770  0.22620  0.41620  Biso   1.000  C
  C1389    1.0000 0.78680  0.26890  0.53390  Biso   1.000  C
  C1390    1.0000 0.49260  0.37780  0.06460  Biso   1.000  C
  C1391    1.0000 0.67930  0.39640  0.64480  Biso   1.000  C
  C1392    1.0000 0.50560  0.25090  0.11350  Biso   1.000  C
  C1393    1.0000 0.67900  0.20180  0.11820  Biso   1.000  C
  C1394    1.0000 0.68080  0.31660  0.50090  Biso   1.000  C
  C1395    1.0000 0.88420  0.28590  0.50040  Biso   1.000  C
  C1396    1.0000 0.67830  0.42380  0.66140  Biso   1.000  C
  C1397    1.0000 0.81460  0.38240  0.06330  Biso   1.000  C
  C1398    1.0000 0.85160  0.49360  0.66780  Biso   1.000  C
  C1399    1.0000 0.82810  0.41380  0.63460  Biso   1.000  C
  C1400    1.0000 0.83360  0.21950  0.36960  Biso   1.000  C
  C1401    1.0000 0.67970  0.21420  0.33810  Biso   1.000  C
  C1402    1.0000 0.70990  0.32470  0.55300  Biso   1.000  C
  C1403    1.0000 0.91650  0.26210  0.57720  Biso   1.000  C
  C1404    1.0000 0.77150  0.29340  0.53110  Biso   1.000  C
  C1405    1.0000 0.51150  0.32310  0.10330  Biso   1.000  C
  C1406    1.0000 0.80600  0.39140  0.09180  Biso   1.000  C
  C1407    1.0000 0.89890  0.23880  0.55190  Biso   1.000  C
  C1408    1.0000 0.68020  0.23810  0.31670  Biso   1.000  C
  C1409    1.0000 0.83670  0.40170  0.06040  Biso   1.000  C
  C1410    1.0000 0.73710  0.21340  0.29520  Biso   1.000  C
  C1411    1.0000 0.48140  0.25670  0.06110  Biso   1.000  C
  C1412    1.0000 0.73460  0.34660  0.56820  Biso   1.000  C
  C1413    1.0000 0.78930  0.50530  0.58970  Biso   1.000  C
  C1414    1.0000 0.68460  0.15360  0.10900  Biso   1.000  C
  C1415    1.0000 0.63740  0.19340  0.25690  Biso   1.000  C
  C1416    1.0000 0.46610  0.35800  0.05120  Biso   1.000  C
  C1417    1.0000 0.04830  0.31690  0.60950  Biso   1.000  C
  C1418    1.0000 0.79990  0.50290  0.56290  Biso   1.000  C
  C1419    1.0000 0.81990  0.41490  0.11770  Biso   1.000  C
  C1420    1.0000 0.58480  0.38270  0.25190  Biso   1.000  C
  C1421    1.0000 0.80050  0.28770  0.48430  Biso   1.000  C
  C1422    1.0000 0.47120  0.35530  0.94920  Biso   1.000  C
  C1423    1.0000 0.63640  0.21810  0.23350  Biso   1.000  C
  C1424    1.0000 0.53930  0.34190  0.11580  Biso   1.000  C
  C1425    1.0000 0.53640  0.36490  0.00280  Biso   1.000  C
  C1426    1.0000 0.49500  0.26480  0.04000  Biso   1.000  C
  C1427    1.0000 0.65950  0.19170  0.30860  Biso   1.000  C
  C1428    1.0000 0.02500  0.30480  0.56300  Biso   1.000  C
  C1429    1.0000 0.53330  0.26710  0.06830  Biso   1.000  C
  C1430    1.0000 0.90960  0.28670  0.55170  Biso   1.000  C
  C1431    1.0000 0.78580  0.31210  0.48220  Biso   1.000  C
  C1432    1.0000 0.69800  0.39070  0.62920  Biso   1.000  C
  C1433    1.0000 0.79590  0.42080  0.54720  Biso   1.000  C
  C1434    1.0000 0.98720  0.30930  0.53090  Biso   1.000  C
  C1435    1.0000 0.50990  0.34730  0.98090  Biso   1.000  C
  C1436    1.0000 0.74060  0.21160  0.26040  Biso   1.000  C
  C1437    1.0000 0.80220  0.26560  0.51090  Biso   1.000  C
  C1438    1.0000 0.55730  0.26070  0.11810  Biso   1.000  C
  C1439    1.0000 0.86280  0.23550  0.38210  Biso   1.000  C
  C1440    1.0000 0.64000  0.16880  0.11490  Biso   1.000  C
  C1441    1.0000 0.54420  0.25240  0.14170  Biso   1.000  C
  C1442    1.0000 0.67270  0.33530  0.45750  Biso   1.000  C
  C1443    1.0000 0.70250  0.44430  0.66530  Biso   1.000  C
  C1444    1.0000 0.01540  0.38060  0.48500  Biso   1.000  C
  C1445    1.0000 0.85250  0.42500  0.08660  Biso   1.000  C
  C1446    1.0000 0.80650  0.43160  0.59040  Biso   1.000  C
  C1447    1.0000 0.69450  0.18000  0.11030  Biso   1.000  C
  C1448    1.0000 0.84290  0.19380  0.39440  Biso   1.000  C
  C1449    1.0000 0.83730  0.38710  0.63300  Biso   1.000  C
  C1450    1.0000 0.72730  0.36220  0.52850  Biso   1.000  C
  C1451    1.0000 0.53080  0.36850  0.09790  Biso   1.000  C
  C1452    1.0000 0.72290  0.43860  0.65500  Biso   1.000  C
  C1453    1.0000 0.72130  0.41290  0.63410  Biso   1.000  C
  C1454    1.0000 0.99530  0.33660  0.59310  Biso   1.000  C
  C1455    1.0000 0.84440  0.43280  0.11810  Biso   1.000  C
  C1456    1.0000 0.97180  0.32470  0.54570  Biso   1.000  C
  C1457    1.0000 0.73100  0.25390  0.09140  Biso   1.000  C
  C1458    1.0000 0.91850  0.21700  0.30840  Biso   1.000  C
  C1459    1.0000 0.70800  0.24390  0.04880  Biso   1.000  C
  C1460    1.0000 0.92030  0.24600  0.30560  Biso   1.000  C
  C1461    1.0000 0.96700  0.21650  0.40040  Biso   1.000  C
  C1462    1.0000 0.94080  0.20200  0.35640  Biso   1.000  C
  C1463    1.0000 0.96770  0.24720  0.39730  Biso   1.000  C
  C1464    1.0000 0.58060  0.28180  0.28830  Biso   1.000  C
  C1465    1.0000 0.60830  0.27630  0.33780  Biso   1.000  C
  C1466    1.0000 0.64620  0.28550  0.36530  Biso   1.000  C
  C1467    1.0000 0.58510  0.29620  0.25740  Biso   1.000  C
  C1468    1.0000 0.62330  0.30520  0.28520  Biso   1.000  C
  C1469    1.0000 0.94340  0.25970  0.35180  Biso   1.000  C
  C1470    1.0000 0.65180  0.30030  0.33460  Biso   1.000  C
  C1471    1.0000 0.70140  0.40200  0.00270  Biso   1.000  C
  C1472    1.0000 0.72680  0.40950  0.96010  Biso   1.000  C
  S313     1.0000 0.65825  0.30128  0.13838  Biso   1.000  S
  S314     1.0000 0.80201  0.36883  0.36325  Biso   1.000  S
  S315     1.0000 0.76897  0.31909  0.24567  Biso   1.000  S
  S316     1.0000 0.80446  0.39880  0.25607  Biso   1.000  S
  S317     1.0000 0.69248  0.34745  0.25454  Biso   1.000  S
  S318     1.0000 0.72754  0.42732  0.26174  Biso   1.000  S
  S319     1.0000 0.69345  0.37769  0.14544  Biso   1.000  S
  S320     1.0000 0.54881  0.27832  0.03770  Biso   1.000  S
  S321     1.0000 0.73007  0.45539  0.15528  Biso   1.000  S
  S322     1.0000 0.87604  0.34002  0.35429  Biso   1.000  S
  S323     1.0000 0.65715  0.27006  0.23520  Biso   1.000  S
  S324     1.0000 0.91074  0.38605  0.46049  Biso   1.000  S
  S325     1.0000 0.76948  0.28434  0.35511  Biso   1.000  S
  S326     1.0000 0.72423  0.39995  0.36527  Biso   1.000  S
  S327     1.0000 0.83949  0.41035  0.48150  Biso   1.000  S
  S328     1.0000 0.78653  0.34187  0.45433  Biso   1.000  S
  S329     1.0000 0.63022  0.22017  0.12853  Biso   1.000  S
  S330     1.0000 0.95904  0.29313  0.47206  Biso   1.000  S
  S331     1.0000 0.74159  0.24151  0.23239  Biso   1.000  S
  S332     1.0000 0.82658  0.47786  0.25403  Biso   1.000  S
  S333     1.0000 0.85192  0.26772  0.35125  Biso   1.000  S
  S334     1.0000 0.83880  0.45131  0.37676  Biso   1.000  S
  S335     1.0000 0.87446  0.31790  0.46876  Biso   1.000  S
  S336     1.0000 0.58542  0.32921  0.15650  Biso   1.000  S
  S337     1.0000 0.76954  0.44289  0.49654  Biso   1.000  S
  S338     1.0000 0.77103  0.34834  0.13521  Biso   1.000  S
  S339     1.0000 0.58457  0.35396  0.04075  Biso   1.000  S
  S340     1.0000 0.61969  0.25569  0.01410  Biso   1.000  S
  S341     1.0000 0.69749  0.30866  0.36547  Biso   1.000  S
  S342     1.0000 0.61410  0.40864  0.15119  Biso   1.000  S
  S343     1.0000 0.83624  0.28356  0.23074  Biso   1.000  S
  S344     1.0000 0.94622  0.29596  0.34641  Biso   1.000  S
  S345     1.0000 0.74228  0.51476  0.55806  Biso   1.000  S
  S346     1.0000 0.72529  0.27238  0.12838  Biso   1.000  S
  S347     1.0000 0.81470  0.42623  0.16086  Biso   1.000  S
  S348     1.0000 0.64971  0.46431  0.25934  Biso   1.000  S
  S349     1.0000 0.75360  0.50680  0.27290  Biso   1.000  S
  S350     1.0000 0.75291  0.46232  0.66088  Biso   1.000  S
  S351     1.0000 0.75186  0.46985  0.37437  Biso   1.000  S
  S352     1.0000 0.65389  0.33654  0.02608  Biso   1.000  S
  S353     1.0000 0.88282  0.36465  0.26714  Biso   1.000  S
  S354     1.0000 0.63101  0.38058  0.27855  Biso   1.000  S
  S355     1.0000 0.61886  0.43009  0.04138  Biso   1.000  S
  S356     1.0000 0.69203  0.37625  0.43348  Biso   1.000  S
  S357     1.0000 0.65181  0.49584  0.53555  Biso   1.000  S
  S358     1.0000 0.98028  0.36525  0.42656  Biso   1.000  S
  S359     1.0000 0.66461  0.48410  0.16354  Biso   1.000  S
  S360     1.0000 0.69732  0.41150  0.04454  Biso   1.000  S
  S361     1.0000 0.65560  0.44655  0.37341  Biso   1.000  S
  S362     1.0000 0.90844  0.42455  0.35500  Biso   1.000  S
  S363     1.0000 0.05145  0.30308  0.49013  Biso   1.000  S
  S364     1.0000 0.70016  0.43340  0.52192  Biso   1.000  S
  Cd193    1.0000 0.81078  0.35742  0.30304  Biso   1.000  Cd
  Cd194    1.0000 0.73676  0.38547  0.30971  Biso   1.000  Cd
  Cd195    1.0000 0.73870  0.41408  0.20468  Biso   1.000  Cd
  Cd196    1.0000 0.78299  0.27825  0.30024  Biso   1.000  Cd
  Cd197    1.0000 0.84757  0.40722  0.41728  Biso   1.000  Cd
  Cd198    1.0000 0.70482  0.33737  0.19794  Biso   1.000  Cd
  Cd199    1.0000 0.62929  0.36963  0.20607  Biso   1.000  Cd
  Cd200    1.0000 0.62756  0.39305  0.09905  Biso   1.000  Cd
  Cd201    1.0000 0.84317  0.43896  0.31350  Biso   1.000  Cd
  Cd202    1.0000 0.77278  0.46311  0.32508  Biso   1.000  Cd
  Cd203    1.0000 0.89093  0.30532  0.41739  Biso   1.000  Cd
  Cd204    1.0000 0.67694  0.25709  0.18674  Biso   1.000  Cd
  Cd205    1.0000 0.80430  0.32558  0.40469  Biso   1.000  Cd
  Cd206    1.0000 0.66159  0.44353  0.20600  Biso   1.000  Cd
  Cd207    1.0000 0.91934  0.38046  0.39737  Biso   1.000  Cd
  Cd208    1.0000 0.70894  0.36719  0.09159  Biso   1.000  Cd
  Cd209    1.0000 0.66198  0.29414  0.07200  Biso   1.000  Cd
  Cd210    1.0000 0.98323  0.31385  0.43417  Biso   1.000  Cd
  Cd211    1.0000 0.70612  0.30325  0.30250  Biso   1.000  Cd
  Cd212    1.0000 0.59384  0.31626  0.09672  Biso   1.000  Cd
  Cd213    1.0000 0.71735  0.35679  0.39645  Biso   1.000  Cd
  Cd214    1.0000 0.71279  0.47677  0.56954  Biso   1.000  Cd
  Cd215    1.0000 0.77477  0.30904  0.18163  Biso   1.000  Cd
  Cd216    1.0000 0.76271  0.49640  0.21272  Biso   1.000  Cd
  Cd217    1.0000 0.77627  0.42994  0.43443  Biso   1.000  Cd
  Cd218    1.0000 0.81609  0.38222  0.20011  Biso   1.000  Cd
  Cd219    1.0000 0.74981  0.44364  0.10721  Biso   1.000  Cd
  Cd220    1.0000 0.88246  0.31727  0.29705  Biso   1.000  Cd
  Cd221    1.0000 0.66278  0.46822  0.09449  Biso   1.000  Cd
  Cd222    1.0000 0.70655  0.42586  0.45790  Biso   1.000  Cd
  Cd223    1.0000 0.58559  0.24014  0.04101  Biso   1.000  Cd
  Cd224    1.0000 0.66432  0.42611  0.31667  Biso   1.000  Cd
  C1473    1.0000 0.70010  0.37720  0.97500  Biso   1.000  C
  C1474    1.0000 0.53300  0.47750  0.14700  Biso   1.000  C
  C1475    1.0000 0.04080  0.37540  0.54310  Biso   1.000  C
  C1476    1.0000 0.96410  0.44910  0.55800  Biso   1.000  C
  C1477    1.0000 0.61520  0.47490  0.51770  Biso   1.000  C
  C1478    1.0000 0.52060  0.36820  0.19860  Biso   1.000  C
  C1479    1.0000 0.00640  0.41700  0.59600  Biso   1.000  C
  C1480    1.0000 0.58510  0.40740  0.28300  Biso   1.000  C
  C1481    1.0000 0.74970  0.21130  0.07240  Biso   1.000  C
  C1482    1.0000 0.56090  0.36990  0.22120  Biso   1.000  C
  C1483    1.0000 0.51090  0.38810  0.20780  Biso   1.000  C
  C1484    1.0000 0.71140  0.22150  0.02780  Biso   1.000  C
  C1485    1.0000 0.16580  0.98310  0.37690  Biso   1.000  C
  C1486    1.0000 0.19370  0.99760  0.41950  Biso   1.000  C
  C1487    1.0000 0.19670  0.02570  0.41690  Biso   1.000  C
  C1488    1.0000 0.17180  0.03920  0.37160  Biso   1.000  C
  C1489    1.0000 0.14390  0.02460  0.32900  Biso   1.000  C
  C1490    1.0000 0.14090  0.99660  0.33160  Biso   1.000  C
  C1491    1.0000 0.44400  0.94370  0.39750  Biso   1.000  C
  C1492    1.0000 0.47310  0.95330  0.40190  Biso   1.000  C
  C1493    1.0000 0.50040  0.96940  0.44240  Biso   1.000  C
  C1494    1.0000 0.49870  0.97590  0.47860  Biso   1.000  C
  C1495    1.0000 0.46960  0.96630  0.47420  Biso   1.000  C
  C1496    1.0000 0.44230  0.95020  0.43370  Biso   1.000  C
  C1497    1.0000 0.40750  0.86370  0.24780  Biso   1.000  C
  C1498    1.0000 0.44370  0.85440  0.28140  Biso   1.000  C
  C1499    1.0000 0.46440  0.85290  0.26730  Biso   1.000  C
  C1500    1.0000 0.44880  0.86070  0.21960  Biso   1.000  C
  C1501    1.0000 0.41270  0.87000  0.18600  Biso   1.000  C
  C1502    1.0000 0.39200  0.87150  0.20010  Biso   1.000  C
  C1503    1.0000 0.36540  0.93669  0.52420  Biso   1.000  C
  C1504    1.0000 0.38310  0.93250  0.57390  Biso   1.000  C
  C1505    1.0000 0.40670  0.95230  0.60920  Biso   1.000  C
  C1506    1.0000 0.41270  0.97634  0.59470  Biso   1.000  C
  C1507    1.0000 0.39510  0.98053  0.54500  Biso   1.000  C
  C1508    1.0000 0.37140  0.96070  0.50970  Biso   1.000  C
  C1509    1.0000 0.08410  0.77240  0.95710  Biso   1.000  C
  C1510    1.0000 0.07160  0.76010  0.91330  Biso   1.000  C
  C1511    1.0000 0.04320  0.77210  0.86760  Biso   1.000  C
  C1512    1.0000 0.02740  0.79640  0.86570  Biso   1.000  C
  C1513    1.0000 0.03990  0.80870  0.90950  Biso   1.000  C
  C1514    1.0000 0.06830  0.79670  0.95520  Biso   1.000  C
  C1515    1.0000 0.28670  0.03280  0.30940  Biso   1.000  C
  C1516    1.0000 0.27510  0.05900  0.30840  Biso   1.000  C
  C1517    1.0000 0.30090  0.07900  0.34020  Biso   1.000  C
  C1518    1.0000 0.33830  0.07280  0.37300  Biso   1.000  C
  C1519    1.0000 0.34990  0.04660  0.37400  Biso   1.000  C
  C1520    1.0000 0.32410  0.02660  0.34220  Biso   1.000  C
  C1521    1.0000 0.15660  0.92200  0.48650  Biso   1.000  C
  C1522    1.0000 0.12670  0.93820  0.44970  Biso   1.000  C
  C1523    1.0000 0.09100  0.92830  0.42230  Biso   1.000  C
  C1524    1.0000 0.08530  0.90240  0.43180  Biso   1.000  C
  C1525    1.0000 0.11520  0.88620  0.46870  Biso   1.000  C
  C1526    1.0000 0.15090  0.89610  0.49600  Biso   1.000  C
  C1527    1.0000 0.36000  0.00400  0.29390  Biso   1.000  C
  C1528    1.0000 0.35610  0.02850  0.27120  Biso   1.000  C
  C1529    1.0000 0.38440  0.04770  0.29710  Biso   1.000  C
  C1530    1.0000 0.41650  0.04230  0.34570  Biso   1.000  C
  C1531    1.0000 0.42040  0.01780  0.36840  Biso   1.000  C
  C1532    1.0000 0.39210  0.99870  0.34250  Biso   1.000  C
  C1533    1.0000 0.13600  0.01150  0.15530  Biso   1.000  C
  C1534    1.0000 0.10520  0.01920  0.10720  Biso   1.000  C
  C1535    1.0000 0.08220  0.03980  0.09980  Biso   1.000  C
  C1536    1.0000 0.09010  0.05270  0.14040  Biso   1.000  C
  C1537    1.0000 0.12090  0.04500  0.18850  Biso   1.000  C
  C1538    1.0000 0.14390  0.02440  0.19600  Biso   1.000  C
  C1539    1.0000 0.34460  0.78400  0.18980  Biso   1.000  C
  C1540    1.0000 0.34580  0.80720  0.16860  Biso   1.000  C
  C1541    1.0000 0.35430  0.80490  0.13850  Biso   1.000  C
  C1542    1.0000 0.36150  0.77940  0.12960  Biso   1.000  C
  C1543    1.0000 0.36040  0.75610  0.15090  Biso   1.000  C
  C1544    1.0000 0.35190  0.75840  0.18100  Biso   1.000  C
  C1545    1.0000 0.44200  0.90920  0.50910  Biso   1.000  C
  C1546    1.0000 0.47430  0.89810  0.54500  Biso   1.000  C
  C1547    1.0000 0.49110  0.93810  0.59250  Biso   1.000  C
  C1548    1.0000 0.43620  0.93130  0.52350  Biso   1.000  C
  C1549    1.0000 0.26770  0.00130  0.40600  Biso   1.000  C
  C1550    1.0000 0.29840  0.00710  0.45530  Biso   1.000  C
  C1551    1.0000 0.30710  0.03410  0.47160  Biso   1.000  C
  C1552    1.0000 0.28510  0.05520  0.43850  Biso   1.000  C
  C1553    1.0000 0.25450  0.04940  0.38920  Biso   1.000  C
  C1554    1.0000 0.24580  0.02240  0.37300  Biso   1.000  C
  C1555    1.0000 0.09910  0.96680  0.21200  Biso   1.000  C
  C1556    1.0000 0.07570  0.94180  0.19650  Biso   1.000  C
  C1557    1.0000 0.03370  0.95030  0.14930  Biso   1.000  C
  C1558    1.0000 0.07450  0.98630  0.16800  Biso   1.000  C
  C1559    1.0000 0.16840  0.81770  0.99160  Biso   1.000  C
  C1560    1.0000 0.20510  0.81550  0.00490  Biso   1.000  C
  C1561    1.0000 0.20120  0.79420  0.97100  Biso   1.000  C
  C1562    1.0000 0.15860  0.80020  0.92240  Biso   1.000  C
  C1563    1.0000 0.13520  0.81410  0.93900  Biso   1.000  C
  C1564    1.0000 0.07610  0.94740  0.01610  Biso   1.000  C
  C1565    1.0000 0.05190  0.94980  0.96270  Biso   1.000  C
  C1566    1.0000 0.01550  0.96350  0.94120  Biso   1.000  C
  C1567    1.0000 0.00980  0.97120  0.97290  Biso   1.000  C
  C1568    1.0000 0.03120  0.96860  0.02250  Biso   1.000  C
  C1569    1.0000 0.06950  0.95670  0.04480  Biso   1.000  C
  C1570    1.0000 0.56620  0.81070  0.45760  Biso   1.000  C
  C1571    1.0000 0.54270  0.80830  0.40510  Biso   1.000  C
  C1572    1.0000 0.55530  0.81640  0.38180  Biso   1.000  C
  C1573    1.0000 0.59270  0.82500  0.40800  Biso   1.000  C
  C1574    1.0000 0.62110  0.82400  0.46440  Biso   1.000  C
  C1575    1.0000 0.60400  0.81680  0.48650  Biso   1.000  C
  C1576    1.0000 0.15890  0.74030  0.26480  Biso   1.000  C
  C1577    1.0000 0.24470  0.66160  0.26940  Biso   1.000  C
  C1578    1.0000 0.19970  0.85680  0.47570  Biso   1.000  C
  C1579    1.0000 0.24080  0.66470  0.30460  Biso   1.000  C
  C1580    1.0000 0.37910  0.68410  0.42760  Biso   1.000  C
  C1581    1.0000 0.97350  0.83220  0.07230  Biso   1.000  C
  C1582    1.0000 0.36110  0.99170  0.63960  Biso   1.000  C
  C1583    1.0000 0.36570  0.76250  0.47330  Biso   1.000  C
  C1584    1.0000 0.37400  0.73820  0.50070  Biso   1.000  C
  C1585    1.0000 0.22310  0.91950  0.99370  Biso   1.000  C
  C1586    1.0000 0.24610  0.68700  0.24510  Biso   1.000  C
  C1587    1.0000 0.23590  0.68910  0.31650  Biso   1.000  C
  C1588    1.0000 0.15560  0.64700  0.10760  Biso   1.000  C
  C1589    1.0000 0.27150  0.81520  0.50630  Biso   1.000  C
  C1590    1.0000 0.31340  0.00090  0.64140  Biso   1.000  C
  C1591    1.0000 0.96170  0.88310  0.95100  Biso   1.000  C
  C1592    1.0000 0.03150  0.89360  0.00730  Biso   1.000  C
  C1593    1.0000 0.33470  0.99540  0.58750  Biso   1.000  C
  C1594    1.0000 0.40630  0.70140  0.43900  Biso   1.000  C
  C1595    1.0000 0.30440  0.89400  0.54440  Biso   1.000  C
  C1596    1.0000 0.53410  0.83260  0.62520  Biso   1.000  C
  C1597    1.0000 0.32590  0.87710  0.58690  Biso   1.000  C
  C1598    1.0000 0.99070  0.90460  0.97930  Biso   1.000  C
  C1599    1.0000 0.15150  0.69480  0.11930  Biso   1.000  C
  C1600    1.0000 0.39770  0.72620  0.41620  Biso   1.000  C
  C1601    1.0000 0.28680  0.76890  0.53390  Biso   1.000  C
  C1602    1.0000 0.99260  0.87780  0.06460  Biso   1.000  C
  C1603    1.0000 0.17930  0.89640  0.64480  Biso   1.000  C
  C1604    1.0000 0.00560  0.75090  0.11350  Biso   1.000  C
  C1605    1.0000 0.17900  0.70180  0.11820  Biso   1.000  C
  C1606    1.0000 0.18080  0.81660  0.50090  Biso   1.000  C
  C1607    1.0000 0.38420  0.78590  0.50040  Biso   1.000  C
  C1608    1.0000 0.17830  0.92380  0.66140  Biso   1.000  C
  C1609    1.0000 0.31460  0.88240  0.06330  Biso   1.000  C
  C1610    1.0000 0.35160  0.99360  0.66780  Biso   1.000  C
  C1611    1.0000 0.32810  0.91380  0.63460  Biso   1.000  C
  C1612    1.0000 0.33360  0.71950  0.36960  Biso   1.000  C
  C1613    1.0000 0.17970  0.71420  0.33810  Biso   1.000  C
  C1614    1.0000 0.20990  0.82470  0.55300  Biso   1.000  C
  C1615    1.0000 0.41650  0.76210  0.57720  Biso   1.000  C
  C1616    1.0000 0.27150  0.79340  0.53110  Biso   1.000  C
  C1617    1.0000 0.01150  0.82310  0.10330  Biso   1.000  C
  C1618    1.0000 0.30600  0.89140  0.09180  Biso   1.000  C
  C1619    1.0000 0.39890  0.73880  0.55190  Biso   1.000  C
  C1620    1.0000 0.18020  0.73810  0.31670  Biso   1.000  C
  C1621    1.0000 0.33670  0.90170  0.06040  Biso   1.000  C
  C1622    1.0000 0.23710  0.71340  0.29520  Biso   1.000  C
  C1623    1.0000 0.98140  0.75670  0.06110  Biso   1.000  C
  C1624    1.0000 0.23460  0.84660  0.56820  Biso   1.000  C
  C1625    1.0000 0.28930  0.00530  0.58970  Biso   1.000  C
  C1626    1.0000 0.18460  0.65360  0.10900  Biso   1.000  C
  C1627    1.0000 0.13740  0.69340  0.25690  Biso   1.000  C
  C1628    1.0000 0.96610  0.85800  0.05120  Biso   1.000  C
  C1629    1.0000 0.54830  0.81690  0.60950  Biso   1.000  C
  C1630    1.0000 0.29990  0.00290  0.56290  Biso   1.000  C
  C1631    1.0000 0.31990  0.91490  0.11770  Biso   1.000  C
  C1632    1.0000 0.08480  0.88270  0.25190  Biso   1.000  C
  C1633    1.0000 0.30050  0.78770  0.48430  Biso   1.000  C
  C1634    1.0000 0.97120  0.85530  0.94920  Biso   1.000  C
  C1635    1.0000 0.13640  0.71810  0.23350  Biso   1.000  C
  C1636    1.0000 0.03930  0.84190  0.11580  Biso   1.000  C
  C1637    1.0000 0.03640  0.86490  0.00280  Biso   1.000  C
  C1638    1.0000 0.99500  0.76480  0.04000  Biso   1.000  C
  C1639    1.0000 0.15950  0.69170  0.30860  Biso   1.000  C
  C1640    1.0000 0.52500  0.80480  0.56300  Biso   1.000  C
  C1641    1.0000 0.03330  0.76710  0.06830  Biso   1.000  C
  C1642    1.0000 0.40960  0.78670  0.55170  Biso   1.000  C
  C1643    1.0000 0.28580  0.81210  0.48220  Biso   1.000  C
  C1644    1.0000 0.19800  0.89070  0.62920  Biso   1.000  C
  C1645    1.0000 0.29590  0.92080  0.54720  Biso   1.000  C
  C1646    1.0000 0.48720  0.80930  0.53090  Biso   1.000  C
  C1647    1.0000 0.00990  0.84730  0.98090  Biso   1.000  C
  C1648    1.0000 0.24060  0.71160  0.26040  Biso   1.000  C
  C1649    1.0000 0.30220  0.76560  0.51090  Biso   1.000  C
  C1650    1.0000 0.05730  0.76070  0.11810  Biso   1.000  C
  C1651    1.0000 0.36280  0.73550  0.38210  Biso   1.000  C
  C1652    1.0000 0.14000  0.66880  0.11490  Biso   1.000  C
  C1653    1.0000 0.04420  0.75240  0.14170  Biso   1.000  C
  C1654    1.0000 0.17270  0.83530  0.45750  Biso   1.000  C
  C1655    1.0000 0.20250  0.94430  0.66530  Biso   1.000  C
  C1656    1.0000 0.51540  0.88060  0.48500  Biso   1.000  C
  C1657    1.0000 0.35250  0.92500  0.08660  Biso   1.000  C
  C1658    1.0000 0.30650  0.93160  0.59040  Biso   1.000  C
  C1659    1.0000 0.19450  0.68000  0.11030  Biso   1.000  C
  C1660    1.0000 0.34290  0.69380  0.39440  Biso   1.000  C
  C1661    1.0000 0.33730  0.88710  0.63300  Biso   1.000  C
  C1662    1.0000 0.22730  0.86220  0.52850  Biso   1.000  C
  C1663    1.0000 0.03080  0.86850  0.09790  Biso   1.000  C
  C1664    1.0000 0.22290  0.93860  0.65500  Biso   1.000  C
  C1665    1.0000 0.22130  0.91290  0.63410  Biso   1.000  C
  C1666    1.0000 0.49530  0.83660  0.59310  Biso   1.000  C
  C1667    1.0000 0.34440  0.93280  0.11810  Biso   1.000  C
  C1668    1.0000 0.47180  0.82470  0.54570  Biso   1.000  C
  C1669    1.0000 0.23100  0.75390  0.09140  Biso   1.000  C
  C1670    1.0000 0.41850  0.71700  0.30840  Biso   1.000  C
  C1671    1.0000 0.20800  0.74390  0.04880  Biso   1.000  C
  C1672    1.0000 0.42030  0.74600  0.30560  Biso   1.000  C
  C1673    1.0000 0.46700  0.71650  0.40040  Biso   1.000  C
  C1674    1.0000 0.44080  0.70200  0.35640  Biso   1.000  C
  C1675    1.0000 0.46770  0.74720  0.39730  Biso   1.000  C
  C1676    1.0000 0.08060  0.78180  0.28830  Biso   1.000  C
  C1677    1.0000 0.10830  0.77630  0.33780  Biso   1.000  C
  C1678    1.0000 0.14620  0.78550  0.36530  Biso   1.000  C
  C1679    1.0000 0.08510  0.79620  0.25740  Biso   1.000  C
  C1680    1.0000 0.12330  0.80520  0.28520  Biso   1.000  C
  C1681    1.0000 0.44340  0.75970  0.35180  Biso   1.000  C
  C1682    1.0000 0.15180  0.80030  0.33460  Biso   1.000  C
  C1683    1.0000 0.20140  0.90200  0.00270  Biso   1.000  C
  C1684    1.0000 0.22680  0.90950  0.96010  Biso   1.000  C
  S365     1.0000 0.15825  0.80128  0.13838  Biso   1.000  S
  S366     1.0000 0.30201  0.86883  0.36325  Biso   1.000  S
  S367     1.0000 0.26897  0.81909  0.24567  Biso   1.000  S
  S368     1.0000 0.30446  0.89880  0.25607  Biso   1.000  S
  S369     1.0000 0.19248  0.84745  0.25454  Biso   1.000  S
  S370     1.0000 0.22754  0.92732  0.26174  Biso   1.000  S
  S371     1.0000 0.19345  0.87769  0.14544  Biso   1.000  S
  S372     1.0000 0.04881  0.77832  0.03770  Biso   1.000  S
  S373     1.0000 0.23007  0.95539  0.15528  Biso   1.000  S
  S374     1.0000 0.37604  0.84002  0.35429  Biso   1.000  S
  S375     1.0000 0.15715  0.77006  0.23520  Biso   1.000  S
  S376     1.0000 0.41074  0.88605  0.46049  Biso   1.000  S
  S377     1.0000 0.26948  0.78434  0.35511  Biso   1.000  S
  S378     1.0000 0.22423  0.89995  0.36527  Biso   1.000  S
  S379     1.0000 0.33949  0.91035  0.48150  Biso   1.000  S
  S380     1.0000 0.28653  0.84187  0.45433  Biso   1.000  S
  S381     1.0000 0.13022  0.72017  0.12853  Biso   1.000  S
  S382     1.0000 0.45904  0.79313  0.47206  Biso   1.000  S
  S383     1.0000 0.24159  0.74151  0.23239  Biso   1.000  S
  S384     1.0000 0.32658  0.97786  0.25403  Biso   1.000  S
  S385     1.0000 0.35192  0.76772  0.35125  Biso   1.000  S
  S386     1.0000 0.33880  0.95131  0.37676  Biso   1.000  S
  S387     1.0000 0.37446  0.81790  0.46876  Biso   1.000  S
  S388     1.0000 0.08542  0.82921  0.15650  Biso   1.000  S
  S389     1.0000 0.26954  0.94289  0.49654  Biso   1.000  S
  S390     1.0000 0.27103  0.84834  0.13521  Biso   1.000  S
  S391     1.0000 0.08457  0.85396  0.04075  Biso   1.000  S
  S392     1.0000 0.11969  0.75569  0.01410  Biso   1.000  S
  S393     1.0000 0.19749  0.80866  0.36547  Biso   1.000  S
  S394     1.0000 0.11410  0.90864  0.15119  Biso   1.000  S
  S395     1.0000 0.33624  0.78356  0.23074  Biso   1.000  S
  S396     1.0000 0.44622  0.79596  0.34641  Biso   1.000  S
  S397     1.0000 0.24228  0.01476  0.55806  Biso   1.000  S
  S398     1.0000 0.22529  0.77238  0.12838  Biso   1.000  S
  S399     1.0000 0.31470  0.92623  0.16086  Biso   1.000  S
  S400     1.0000 0.14971  0.96431  0.25934  Biso   1.000  S
  S401     1.0000 0.25360  0.00680  0.27290  Biso   1.000  S
  S402     1.0000 0.25291  0.96232  0.66088  Biso   1.000  S
  S403     1.0000 0.25186  0.96985  0.37437  Biso   1.000  S
  S404     1.0000 0.15389  0.83654  0.02608  Biso   1.000  S
  S405     1.0000 0.38282  0.86465  0.26714  Biso   1.000  S
  S406     1.0000 0.13101  0.88058  0.27855  Biso   1.000  S
  S407     1.0000 0.11886  0.93009  0.04138  Biso   1.000  S
  S408     1.0000 0.19203  0.87625  0.43348  Biso   1.000  S
  S409     1.0000 0.15181  0.99584  0.53555  Biso   1.000  S
  S410     1.0000 0.48028  0.86525  0.42656  Biso   1.000  S
  S411     1.0000 0.16461  0.98410  0.16354  Biso   1.000  S
  S412     1.0000 0.19732  0.91150  0.04454  Biso   1.000  S
  S413     1.0000 0.15560  0.94655  0.37341  Biso   1.000  S
  S414     1.0000 0.40844  0.92455  0.35500  Biso   1.000  S
  S415     1.0000 0.55145  0.80308  0.49013  Biso   1.000  S
  S416     1.0000 0.20016  0.93340  0.52192  Biso   1.000  S
  Cd225    1.0000 0.31078  0.85742  0.30304  Biso   1.000  Cd
  Cd226    1.0000 0.23676  0.88547  0.30971  Biso   1.000  Cd
  Cd227    1.0000 0.23870  0.91408  0.20468  Biso   1.000  Cd
  Cd228    1.0000 0.28299  0.77825  0.30024  Biso   1.000  Cd
  Cd229    1.0000 0.34757  0.90722  0.41728  Biso   1.000  Cd
  Cd230    1.0000 0.20482  0.83737  0.19794  Biso   1.000  Cd
  Cd231    1.0000 0.12929  0.86963  0.20607  Biso   1.000  Cd
  Cd232    1.0000 0.12756  0.89305  0.09905  Biso   1.000  Cd
  Cd233    1.0000 0.34317  0.93896  0.31350  Biso   1.000  Cd
  Cd234    1.0000 0.27278  0.96311  0.32508  Biso   1.000  Cd
  Cd235    1.0000 0.39093  0.80532  0.41739  Biso   1.000  Cd
  Cd236    1.0000 0.17694  0.75709  0.18674  Biso   1.000  Cd
  Cd237    1.0000 0.30430  0.82558  0.40469  Biso   1.000  Cd
  Cd238    1.0000 0.16159  0.94352  0.20600  Biso   1.000  Cd
  Cd239    1.0000 0.41934  0.88046  0.39737  Biso   1.000  Cd
  Cd240    1.0000 0.20894  0.86719  0.09159  Biso   1.000  Cd
  Cd241    1.0000 0.16198  0.79414  0.07200  Biso   1.000  Cd
  Cd242    1.0000 0.48323  0.81385  0.43417  Biso   1.000  Cd
  Cd243    1.0000 0.20612  0.80325  0.30250  Biso   1.000  Cd
  Cd244    1.0000 0.09384  0.81625  0.09672  Biso   1.000  Cd
  Cd245    1.0000 0.21735  0.85679  0.39645  Biso   1.000  Cd
  Cd246    1.0000 0.21279  0.97677  0.56954  Biso   1.000  Cd
  Cd247    1.0000 0.27477  0.80904  0.18163  Biso   1.000  Cd
  Cd248    1.0000 0.26271  0.99640  0.21272  Biso   1.000  Cd
  Cd249    1.0000 0.27627  0.92993  0.43443  Biso   1.000  Cd
  Cd250    1.0000 0.31609  0.88222  0.20011  Biso   1.000  Cd
  Cd251    1.0000 0.24981  0.94364  0.10721  Biso   1.000  Cd
  Cd252    1.0000 0.38246  0.81727  0.29705  Biso   1.000  Cd
  Cd253    1.0000 0.16278  0.96822  0.09449  Biso   1.000  Cd
  Cd254    1.0000 0.20655  0.92586  0.45790  Biso   1.000  Cd
  Cd255    1.0000 0.08559  0.74014  0.04101  Biso   1.000  Cd
  Cd256    1.0000 0.16432  0.92611  0.31667  Biso   1.000  Cd
  C1685    1.0000 0.20010  0.87720  0.97500  Biso   1.000  C
  C1686    1.0000 0.03300  0.97750  0.14700  Biso   1.000  C
  C1687    1.0000 0.54080  0.87540  0.54310  Biso   1.000  C
  C1688    1.0000 0.46410  0.94910  0.55800  Biso   1.000  C
  C1689    1.0000 0.11520  0.97490  0.51770  Biso   1.000  C
  C1690    1.0000 0.02060  0.86820  0.19860  Biso   1.000  C
  C1691    1.0000 0.50640  0.91700  0.59600  Biso   1.000  C
  C1692    1.0000 0.08510  0.90740  0.28300  Biso   1.000  C
  C1693    1.0000 0.24970  0.71130  0.07240  Biso   1.000  C
  C1694    1.0000 0.06090  0.86990  0.22120  Biso   1.000  C
  C1695    1.0000 0.01090  0.88810  0.20780  Biso   1.000  C
  C1696    1.0000 0.21140  0.72150  0.02780  Biso   1.000  C
