data_IGAGUU_clean
_audit_creation_date              2014-07-02
_audit_creation_method            'Materials Studio'
_symmetry_space_group_name_H-M    'P1'
_symmetry_Int_Tables_number       1
_symmetry_cell_setting            triclinic
loop_
_symmetry_equiv_pos_as_xyz
  x,y,z
_cell_length_a                    26.3880
_cell_length_b                    29.7200
_cell_length_c                    29.7200
_cell_angle_alpha                 120.0000
_cell_angle_beta                  90.0000
_cell_angle_gamma                 90.0000
loop_
_atom_site_label
_atom_site_type_symbol
_atom_site_fract_x
_atom_site_fract_y
_atom_site_fract_z
_atom_site_U_iso_or_equiv
_atom_site_adp_type
_atom_site_occupancy
Cr1    Cr    0.75000   0.00000   0.58370   0.01267  Uiso   1.00
Cr2    Cr    0.75000   0.58370  -0.00000   0.01267  Uiso   1.00
Cr3    Cr    0.75000   0.41630   0.41630   0.01267  Uiso   1.00
Cr4    Cr    0.25000   0.00000   0.41630   0.01267  Uiso   1.00
Cr5    Cr    0.25000   0.41630  -0.00000   0.01267  Uiso   1.00
Cr6    Cr    0.25000   0.58370   0.58370   0.01267  Uiso   1.00
Cr7    Cr    0.68800   0.00000   0.67810   0.01267  Uiso   1.00
Cr8    Cr    0.68800   0.67810   1.00000   0.01267  Uiso   1.00
Cr9    Cr    0.68800   0.32190   0.32190   0.01267  Uiso   1.00
Cr10   Cr    0.18800   0.00000   0.32190   0.01267  Uiso   1.00
Cr11   Cr    0.18800   0.32190  -0.00000   0.01267  Uiso   1.00
Cr12   Cr    0.18800   0.67810   0.67810   0.01267  Uiso   1.00
Cr13   Cr    0.81200   0.32190   0.32190   0.01267  Uiso   1.00
Cr14   Cr    0.81200   0.67810   1.00000   0.01267  Uiso   1.00
Cr15   Cr    0.81200  -0.00000   0.67810   0.01267  Uiso   1.00
Cr16   Cr    0.31200   0.67810   0.67810   0.01267  Uiso   1.00
Cr17   Cr    0.31200   0.32190  -0.00000   0.01267  Uiso   1.00
Cr18   Cr    0.31200   0.00000   0.32190   0.01267  Uiso   1.00
Cu1    Cu    0.50000   0.76346   0.38173   0.01267  Uiso   1.00
Cu2    Cu    0.50000   0.61827   0.23654   0.01267  Uiso   1.00
Cu3    Cu    0.50000   0.61827   0.38173   0.01267  Uiso   1.00
Cu4    Cu    1.00000   0.23654   0.61827   0.01267  Uiso   1.00
Cu5    Cu    1.00000   0.38173   0.76346   0.01267  Uiso   1.00
Cu6    Cu    1.00000   0.38173   0.61827   0.01267  Uiso   1.00
Cu7    Cu    0.50000   0.23654   0.61827   0.01267  Uiso   1.00
Cu8    Cu    0.50000   0.38173   0.76346   0.01267  Uiso   1.00
Cu9    Cu    0.50000   0.38173   0.61827   0.01267  Uiso   1.00
Cu10   Cu    0.00000   0.76346   0.38173   0.01267  Uiso   1.00
Cu11   Cu    0.00000   0.61827   0.23654   0.01267  Uiso   1.00
Cu12   Cu    0.00000   0.61827   0.38173   0.01267  Uiso   1.00
H1     H     0.55310   0.73390   0.43270   0.01267  Uiso   1.00
H2     H     0.58570   0.73140   0.39090   0.01267  Uiso   1.00
H3     H     0.63730   0.80540   0.40550   0.01267  Uiso   1.00
H4     H     0.59540   0.87560   0.57680   0.01267  Uiso   1.00
H5     H     0.55080   0.80360   0.51560   0.01267  Uiso   1.00
H6     H     0.67290   0.88480   0.46550   0.01267  Uiso   1.00
H7     H     0.67370   0.78530   0.67370   0.01267  Uiso   1.00
H8     H     0.67360   0.86840   0.68380   0.01267  Uiso   1.00
H9     H     0.77890   0.70960   0.66440   0.01267  Uiso   1.00
H10    H     0.55310   0.69880   0.26610   0.01267  Uiso   1.00
H11    H     0.58570   0.65950   0.26860   0.01267  Uiso   1.00
H12    H     0.63730   0.60010   0.19460   0.01267  Uiso   1.00
H13    H     0.59540   0.70120   0.12440   0.01267  Uiso   1.00
H14    H     0.55080   0.71200   0.19640   0.01267  Uiso   1.00
H15    H     0.67290   0.58070   0.11520   0.01267  Uiso   1.00
H16    H     0.67370   0.88840   0.21470   0.01267  Uiso   1.00
H17    H     0.67360   0.81540   0.13160   0.01267  Uiso   1.00
H18    H     0.77890   0.95480   0.29040   0.01267  Uiso   1.00
H19    H     0.55310   0.56730   0.30120   0.01267  Uiso   1.00
H20    H     0.58570   0.60910   0.34050   0.01267  Uiso   1.00
H21    H     0.63730   0.59450   0.39990   0.01267  Uiso   1.00
H22    H     0.59540   0.42320   0.29880   0.01267  Uiso   1.00
H23    H     0.55080   0.48440   0.28800   0.01267  Uiso   1.00
H24    H     0.67290   0.53450   0.41930   0.01267  Uiso   1.00
H25    H     0.67370   0.32630   0.11160   0.01267  Uiso   1.00
H26    H     0.67360   0.31620   0.18460   0.01267  Uiso   1.00
H27    H     0.77890   0.33560   0.04520   0.01267  Uiso   1.00
H28    H     0.05310   0.26610   0.56730   0.01267  Uiso   1.00
H29    H     0.08570   0.26860   0.60910   0.01267  Uiso   1.00
H30    H     0.13730   0.19460   0.59450   0.01267  Uiso   1.00
H31    H     0.09540   0.12440   0.42320   0.01267  Uiso   1.00
H32    H     0.05080   0.19640   0.48440   0.01267  Uiso   1.00
H33    H     0.17290   0.11520   0.53450   0.01267  Uiso   1.00
H34    H     0.17370   0.21470   0.32630   0.01267  Uiso   1.00
H35    H     0.17360   0.13160   0.31620   0.01267  Uiso   1.00
H36    H     0.27890   0.29040   0.33560   0.01267  Uiso   1.00
H37    H     0.05310   0.30120   0.73390   0.01267  Uiso   1.00
H38    H     0.08570   0.34050   0.73140   0.01267  Uiso   1.00
H39    H     0.13730   0.39990   0.80540   0.01267  Uiso   1.00
H40    H     0.09540   0.29880   0.87560   0.01267  Uiso   1.00
H41    H     0.05080   0.28800   0.80360   0.01267  Uiso   1.00
H42    H     0.17290   0.41930   0.88480   0.01267  Uiso   1.00
H43    H     0.17370   0.11160   0.78530   0.01267  Uiso   1.00
H44    H     0.17360   0.18460   0.86840   0.01267  Uiso   1.00
H45    H     0.27890   0.04520   0.70960   0.01267  Uiso   1.00
H46    H     0.05310   0.43270   0.69880   0.01267  Uiso   1.00
H47    H     0.08570   0.39090   0.65950   0.01267  Uiso   1.00
H48    H     0.13730   0.40550   0.60010   0.01267  Uiso   1.00
H49    H     0.09540   0.57680   0.70120   0.01267  Uiso   1.00
H50    H     0.05080   0.51560   0.71200   0.01267  Uiso   1.00
H51    H     0.17290   0.46550   0.58070   0.01267  Uiso   1.00
H52    H     0.17370   0.67370   0.88840   0.01267  Uiso   1.00
H53    H     0.17360   0.68380   0.81540   0.01267  Uiso   1.00
H54    H     0.27890   0.66440   0.95480   0.01267  Uiso   1.00
H55    H     0.94690   0.30120   0.56730   0.01267  Uiso   1.00
H56    H     0.91430   0.34050   0.60910   0.01267  Uiso   1.00
H57    H     0.86270   0.39990   0.59450   0.01267  Uiso   1.00
H58    H     0.90460   0.29880   0.42320   0.01267  Uiso   1.00
H59    H     0.94920   0.28800   0.48440   0.01267  Uiso   1.00
H60    H     0.82710   0.41930   0.53450   0.01267  Uiso   1.00
H61    H     0.82630   0.11160   0.32630   0.01267  Uiso   1.00
H62    H     0.82640   0.18460   0.31620   0.01267  Uiso   1.00
H63    H     0.72110   0.04520   0.33560   0.01267  Uiso   1.00
H64    H     0.94690   0.43270   0.73390   0.01267  Uiso   1.00
H65    H     0.91430   0.39090   0.73140   0.01267  Uiso   1.00
H66    H     0.86270   0.40550   0.80540   0.01267  Uiso   1.00
H67    H     0.90460   0.57680   0.87560   0.01267  Uiso   1.00
H68    H     0.94920   0.51560   0.80360   0.01267  Uiso   1.00
H69    H     0.82710   0.46550   0.88480   0.01267  Uiso   1.00
H70    H     0.82630   0.67370   0.78530   0.01267  Uiso   1.00
H71    H     0.82640   0.68380   0.86840   0.01267  Uiso   1.00
H72    H     0.72110   0.66440   0.70960   0.01267  Uiso   1.00
H73    H     0.94690   0.26610   0.69880   0.01267  Uiso   1.00
H74    H     0.91430   0.26860   0.65950   0.01267  Uiso   1.00
H75    H     0.86270   0.19460   0.60010   0.01267  Uiso   1.00
H76    H     0.90460   0.12440   0.70120   0.01267  Uiso   1.00
H77    H     0.94920   0.19640   0.71200   0.01267  Uiso   1.00
H78    H     0.82710   0.11520   0.58070   0.01267  Uiso   1.00
H79    H     0.82630   0.21470   0.88840   0.01267  Uiso   1.00
H80    H     0.82640   0.13160   0.81540   0.01267  Uiso   1.00
H81    H     0.72110   0.29040   0.95480   0.01267  Uiso   1.00
H82    H     0.44690   0.69880   0.43270   0.01267  Uiso   1.00
H83    H     0.41430   0.65950   0.39090   0.01267  Uiso   1.00
H84    H     0.36270   0.60010   0.40550   0.01267  Uiso   1.00
H85    H     0.40460   0.70120   0.57680   0.01267  Uiso   1.00
H86    H     0.44920   0.71200   0.51560   0.01267  Uiso   1.00
H87    H     0.32710   0.58070   0.46550   0.01267  Uiso   1.00
H88    H     0.32630   0.88840   0.67370   0.01267  Uiso   1.00
H89    H     0.32640   0.81540   0.68380   0.01267  Uiso   1.00
H90    H     0.22110   0.95480   0.66440   0.01267  Uiso   1.00
H91    H     0.44690   0.56730   0.26610   0.01267  Uiso   1.00
H92    H     0.41430   0.60910   0.26860   0.01267  Uiso   1.00
H93    H     0.36270   0.59450   0.19460   0.01267  Uiso   1.00
H94    H     0.40460   0.42320   0.12440   0.01267  Uiso   1.00
H95    H     0.44920   0.48440   0.19640   0.01267  Uiso   1.00
H96    H     0.32710   0.53450   0.11520   0.01267  Uiso   1.00
H97    H     0.32630   0.32630   0.21470   0.01267  Uiso   1.00
H98    H     0.32640   0.31620   0.13160   0.01267  Uiso   1.00
H99    H     0.22110   0.33560   0.29040   0.01267  Uiso   1.00
H100   H     0.44690   0.73390   0.30120   0.01267  Uiso   1.00
H101   H     0.41430   0.73140   0.34050   0.01267  Uiso   1.00
H102   H     0.36270   0.80540   0.39990   0.01267  Uiso   1.00
H103   H     0.40460   0.87560   0.29880   0.01267  Uiso   1.00
H104   H     0.44920   0.80360   0.28800   0.01267  Uiso   1.00
H105   H     0.32710   0.88480   0.41930   0.01267  Uiso   1.00
H106   H     0.32630   0.78530   0.11160   0.01267  Uiso   1.00
H107   H     0.32640   0.86840   0.18460   0.01267  Uiso   1.00
H108   H     0.22110   0.70960   0.04520   0.01267  Uiso   1.00
H109   H     0.44690   0.26610   0.56730   0.01267  Uiso   1.00
H110   H     0.41430   0.26860   0.60910   0.01267  Uiso   1.00
H111   H     0.36270   0.19460   0.59450   0.01267  Uiso   1.00
H112   H     0.40460   0.12440   0.42320   0.01267  Uiso   1.00
H113   H     0.44920   0.19640   0.48440   0.01267  Uiso   1.00
H114   H     0.32710   0.11520   0.53450   0.01267  Uiso   1.00
H115   H     0.32630   0.21470   0.32630   0.01267  Uiso   1.00
H116   H     0.32640   0.13160   0.31620   0.01267  Uiso   1.00
H117   H     0.22110   0.29040   0.33560   0.01267  Uiso   1.00
H118   H     0.44690   0.30120   0.73390   0.01267  Uiso   1.00
H119   H     0.41430   0.34050   0.73140   0.01267  Uiso   1.00
H120   H     0.36270   0.39990   0.80540   0.01267  Uiso   1.00
H121   H     0.40460   0.29880   0.87560   0.01267  Uiso   1.00
H122   H     0.44920   0.28800   0.80360   0.01267  Uiso   1.00
H123   H     0.32710   0.41930   0.88480   0.01267  Uiso   1.00
H124   H     0.32630   0.11160   0.78530   0.01267  Uiso   1.00
H125   H     0.32640   0.18460   0.86840   0.01267  Uiso   1.00
H126   H     0.22110   0.04520   0.70960   0.01267  Uiso   1.00
H127   H     0.44690   0.43270   0.69880   0.01267  Uiso   1.00
H128   H     0.41430   0.39090   0.65950   0.01267  Uiso   1.00
H129   H     0.36270   0.40550   0.60010   0.01267  Uiso   1.00
H130   H     0.40460   0.57680   0.70120   0.01267  Uiso   1.00
H131   H     0.44920   0.51560   0.71200   0.01267  Uiso   1.00
H132   H     0.32710   0.46550   0.58070   0.01267  Uiso   1.00
H133   H     0.32630   0.67370   0.88840   0.01267  Uiso   1.00
H134   H     0.32640   0.68380   0.81540   0.01267  Uiso   1.00
H135   H     0.22110   0.66440   0.95480   0.01267  Uiso   1.00
H136   H     0.94690   0.73390   0.43270   0.01267  Uiso   1.00
H137   H     0.91430   0.73140   0.39090   0.01267  Uiso   1.00
H138   H     0.86270   0.80540   0.40550   0.01267  Uiso   1.00
H139   H     0.90460   0.87560   0.57680   0.01267  Uiso   1.00
H140   H     0.94920   0.80360   0.51560   0.01267  Uiso   1.00
H141   H     0.82710   0.88480   0.46550   0.01267  Uiso   1.00
H142   H     0.82630   0.78530   0.67370   0.01267  Uiso   1.00
H143   H     0.82640   0.86840   0.68380   0.01267  Uiso   1.00
H144   H     0.72110   0.70960   0.66440   0.01267  Uiso   1.00
H145   H     0.94690   0.69880   0.26610   0.01267  Uiso   1.00
H146   H     0.91430   0.65950   0.26860   0.01267  Uiso   1.00
H147   H     0.86270   0.60010   0.19460   0.01267  Uiso   1.00
H148   H     0.90460   0.70120   0.12440   0.01267  Uiso   1.00
H149   H     0.94920   0.71200   0.19640   0.01267  Uiso   1.00
H150   H     0.82710   0.58070   0.11520   0.01267  Uiso   1.00
H151   H     0.82630   0.88840   0.21470   0.01267  Uiso   1.00
H152   H     0.82640   0.81540   0.13160   0.01267  Uiso   1.00
H153   H     0.72110   0.95480   0.29040   0.01267  Uiso   1.00
H154   H     0.94690   0.56730   0.30120   0.01267  Uiso   1.00
H155   H     0.91430   0.60910   0.34050   0.01267  Uiso   1.00
H156   H     0.86270   0.59450   0.39990   0.01267  Uiso   1.00
H157   H     0.90460   0.42320   0.29880   0.01267  Uiso   1.00
H158   H     0.94920   0.48440   0.28800   0.01267  Uiso   1.00
H159   H     0.82710   0.53450   0.41930   0.01267  Uiso   1.00
H160   H     0.82630   0.32630   0.11160   0.01267  Uiso   1.00
H161   H     0.82640   0.31620   0.18460   0.01267  Uiso   1.00
H162   H     0.72110   0.33560   0.04520   0.01267  Uiso   1.00
H163   H     0.05310   0.69880   0.43270   0.01267  Uiso   1.00
H164   H     0.08570   0.65950   0.39090   0.01267  Uiso   1.00
H165   H     0.13730   0.60010   0.40550   0.01267  Uiso   1.00
H166   H     0.09540   0.70120   0.57680   0.01267  Uiso   1.00
H167   H     0.05080   0.71200   0.51560   0.01267  Uiso   1.00
H168   H     0.17290   0.58070   0.46550   0.01267  Uiso   1.00
H169   H     0.17370   0.88840   0.67370   0.01267  Uiso   1.00
H170   H     0.17360   0.81540   0.68380   0.01267  Uiso   1.00
H171   H     0.27890   0.95480   0.66440   0.01267  Uiso   1.00
H172   H     0.05310   0.56730   0.26610   0.01267  Uiso   1.00
H173   H     0.08570   0.60910   0.26860   0.01267  Uiso   1.00
H174   H     0.13730   0.59450   0.19460   0.01267  Uiso   1.00
H175   H     0.09540   0.42320   0.12440   0.01267  Uiso   1.00
H176   H     0.05080   0.48440   0.19640   0.01267  Uiso   1.00
H177   H     0.17290   0.53450   0.11520   0.01267  Uiso   1.00
H178   H     0.17370   0.32630   0.21470   0.01267  Uiso   1.00
H179   H     0.17360   0.31620   0.13160   0.01267  Uiso   1.00
H180   H     0.27890   0.33560   0.29040   0.01267  Uiso   1.00
H181   H     0.05310   0.73390   0.30120   0.01267  Uiso   1.00
H182   H     0.08570   0.73140   0.34050   0.01267  Uiso   1.00
H183   H     0.13730   0.80540   0.39990   0.01267  Uiso   1.00
H184   H     0.09540   0.87560   0.29880   0.01267  Uiso   1.00
H185   H     0.05080   0.80360   0.28800   0.01267  Uiso   1.00
H186   H     0.17290   0.88480   0.41930   0.01267  Uiso   1.00
H187   H     0.17370   0.78530   0.11160   0.01267  Uiso   1.00
H188   H     0.17360   0.86840   0.18460   0.01267  Uiso   1.00
H189   H     0.27890   0.70960   0.04520   0.01267  Uiso   1.00
H190   H     0.55310   0.30120   0.56730   0.01267  Uiso   1.00
H191   H     0.58570   0.34050   0.60910   0.01267  Uiso   1.00
H192   H     0.63730   0.39990   0.59450   0.01267  Uiso   1.00
H193   H     0.59540   0.29880   0.42320   0.01267  Uiso   1.00
H194   H     0.55080   0.28800   0.48440   0.01267  Uiso   1.00
H195   H     0.67290   0.41930   0.53450   0.01267  Uiso   1.00
H196   H     0.67370   0.11160   0.32630   0.01267  Uiso   1.00
H197   H     0.67360   0.18460   0.31620   0.01267  Uiso   1.00
H198   H     0.77890   0.04520   0.33560   0.01267  Uiso   1.00
H199   H     0.55310   0.43270   0.73390   0.01267  Uiso   1.00
H200   H     0.58570   0.39090   0.73140   0.01267  Uiso   1.00
H201   H     0.63730   0.40550   0.80540   0.01267  Uiso   1.00
H202   H     0.59540   0.57680   0.87560   0.01267  Uiso   1.00
H203   H     0.55080   0.51560   0.80360   0.01267  Uiso   1.00
H204   H     0.67290   0.46550   0.88480   0.01267  Uiso   1.00
H205   H     0.67370   0.67370   0.78530   0.01267  Uiso   1.00
H206   H     0.67360   0.68380   0.86840   0.01267  Uiso   1.00
H207   H     0.77890   0.66440   0.70960   0.01267  Uiso   1.00
H208   H     0.55310   0.26610   0.69880   0.01267  Uiso   1.00
H209   H     0.58570   0.26860   0.65950   0.01267  Uiso   1.00
H210   H     0.63730   0.19460   0.60010   0.01267  Uiso   1.00
H211   H     0.59540   0.12440   0.70120   0.01267  Uiso   1.00
H212   H     0.55080   0.19640   0.71200   0.01267  Uiso   1.00
H213   H     0.67290   0.11520   0.58070   0.01267  Uiso   1.00
H214   H     0.67370   0.21470   0.88840   0.01267  Uiso   1.00
H215   H     0.67360   0.13160   0.81540   0.01267  Uiso   1.00
H216   H     0.77890   0.29040   0.95480   0.01267  Uiso   1.00
C1     C     0.58930   0.79960   0.45470   0.01267  Uiso   1.00
C2     C     0.62710   0.82180   0.44090   0.01267  Uiso   1.00
C3     C     0.64130   0.88420   0.52790   0.01267  Uiso   1.00
C4     C     0.60350   0.86130   0.54110   0.01267  Uiso   1.00
C5     C     0.57670   0.81880   0.50540   0.01267  Uiso   1.00
C6     C     0.65090   0.86660   0.47610   0.01267  Uiso   1.00
C7     C     0.66970   0.92990   0.56820   0.01267  Uiso   1.00
C8     C     0.70480   0.80240   0.67580   0.01267  Uiso   1.00
C9     C     0.70500   0.85180   0.68180   0.01267  Uiso   1.00
C10    C     0.58930   0.65510   0.20040   0.01267  Uiso   1.00
C11    C     0.62710   0.61910   0.17820   0.01267  Uiso   1.00
C12    C     0.64130   0.64370   0.11580   0.01267  Uiso   1.00
C13    C     0.60350   0.67980   0.13870   0.01267  Uiso   1.00
C14    C     0.57670   0.68660   0.18120   0.01267  Uiso   1.00
C15    C     0.65090   0.60950   0.13340   0.01267  Uiso   1.00
C16    C     0.66970   0.63830   0.07010   0.01267  Uiso   1.00
C17    C     0.70480   0.87340   0.19760   0.01267  Uiso   1.00
C18    C     0.70500   0.83000   0.14820   0.01267  Uiso   1.00
C19    C     0.58930   0.54530   0.34490   0.01267  Uiso   1.00
C20    C     0.62710   0.55910   0.38090   0.01267  Uiso   1.00
C21    C     0.64130   0.47210   0.35630   0.01267  Uiso   1.00
C22    C     0.60350   0.45890   0.32020   0.01267  Uiso   1.00
C23    C     0.57670   0.49460   0.31340   0.01267  Uiso   1.00
C24    C     0.65090   0.52390   0.39050   0.01267  Uiso   1.00
C25    C     0.66970   0.43180   0.36170   0.01267  Uiso   1.00
C26    C     0.70480   0.32420   0.12660   0.01267  Uiso   1.00
C27    C     0.70500   0.31820   0.17000   0.01267  Uiso   1.00
C28    C     0.08930   0.20040   0.54530   0.01267  Uiso   1.00
C29    C     0.12710   0.17820   0.55910   0.01267  Uiso   1.00
C30    C     0.14130   0.11580   0.47210   0.01267  Uiso   1.00
C31    C     0.10350   0.13870   0.45890   0.01267  Uiso   1.00
C32    C     0.07670   0.18120   0.49460   0.01267  Uiso   1.00
C33    C     0.15090   0.13340   0.52390   0.01267  Uiso   1.00
C34    C     0.16970   0.07010   0.43180   0.01267  Uiso   1.00
C35    C     0.20480   0.19760   0.32420   0.01267  Uiso   1.00
C36    C     0.20500   0.14820   0.31820   0.01267  Uiso   1.00
C37    C     0.08930   0.34490   0.79960   0.01267  Uiso   1.00
C38    C     0.12710   0.38090   0.82180   0.01267  Uiso   1.00
C39    C     0.14130   0.35630   0.88420   0.01267  Uiso   1.00
C40    C     0.10350   0.32020   0.86130   0.01267  Uiso   1.00
C41    C     0.07670   0.31340   0.81880   0.01267  Uiso   1.00
C42    C     0.15090   0.39050   0.86660   0.01267  Uiso   1.00
C43    C     0.16970   0.36170   0.92990   0.01267  Uiso   1.00
C44    C     0.20480   0.12660   0.80240   0.01267  Uiso   1.00
C45    C     0.20500   0.17000   0.85180   0.01267  Uiso   1.00
C46    C     0.08930   0.45470   0.65510   0.01267  Uiso   1.00
C47    C     0.12710   0.44090   0.61910   0.01267  Uiso   1.00
C48    C     0.14130   0.52790   0.64370   0.01267  Uiso   1.00
C49    C     0.10350   0.54110   0.67980   0.01267  Uiso   1.00
C50    C     0.07670   0.50540   0.68660   0.01267  Uiso   1.00
C51    C     0.15090   0.47610   0.60950   0.01267  Uiso   1.00
C52    C     0.16970   0.56820   0.63830   0.01267  Uiso   1.00
C53    C     0.20480   0.67580   0.87340   0.01267  Uiso   1.00
C54    C     0.20500   0.68180   0.83000   0.01267  Uiso   1.00
C55    C     0.91070   0.34490   0.54530   0.01267  Uiso   1.00
C56    C     0.87290   0.38090   0.55910   0.01267  Uiso   1.00
C57    C     0.85870   0.35630   0.47210   0.01267  Uiso   1.00
C58    C     0.89650   0.32020   0.45890   0.01267  Uiso   1.00
C59    C     0.92330   0.31340   0.49460   0.01267  Uiso   1.00
C60    C     0.84910   0.39050   0.52390   0.01267  Uiso   1.00
C61    C     0.83030   0.36170   0.43180   0.01267  Uiso   1.00
C62    C     0.79520   0.12660   0.32420   0.01267  Uiso   1.00
C63    C     0.79500   0.17000   0.31820   0.01267  Uiso   1.00
C64    C     0.91070   0.45470   0.79960   0.01267  Uiso   1.00
C65    C     0.87290   0.44090   0.82180   0.01267  Uiso   1.00
C66    C     0.85870   0.52790   0.88420   0.01267  Uiso   1.00
C67    C     0.89650   0.54110   0.86130   0.01267  Uiso   1.00
C68    C     0.92330   0.50540   0.81880   0.01267  Uiso   1.00
C69    C     0.84910   0.47610   0.86660   0.01267  Uiso   1.00
C70    C     0.83030   0.56820   0.92990   0.01267  Uiso   1.00
C71    C     0.79520   0.67580   0.80240   0.01267  Uiso   1.00
C72    C     0.79500   0.68180   0.85180   0.01267  Uiso   1.00
C73    C     0.91070   0.20040   0.65510   0.01267  Uiso   1.00
C74    C     0.87290   0.17820   0.61910   0.01267  Uiso   1.00
C75    C     0.85870   0.11580   0.64370   0.01267  Uiso   1.00
C76    C     0.89650   0.13870   0.67980   0.01267  Uiso   1.00
C77    C     0.92330   0.18120   0.68660   0.01267  Uiso   1.00
C78    C     0.84910   0.13340   0.60950   0.01267  Uiso   1.00
C79    C     0.83030   0.07010   0.63830   0.01267  Uiso   1.00
C80    C     0.79520   0.19760   0.87340   0.01267  Uiso   1.00
C81    C     0.79500   0.14820   0.83000   0.01267  Uiso   1.00
C82    C     0.41070   0.65510   0.45470   0.01267  Uiso   1.00
C83    C     0.37290   0.61910   0.44090   0.01267  Uiso   1.00
C84    C     0.35870   0.64370   0.52790   0.01267  Uiso   1.00
C85    C     0.39650   0.67980   0.54110   0.01267  Uiso   1.00
C86    C     0.42330   0.68660   0.50540   0.01267  Uiso   1.00
C87    C     0.34910   0.60950   0.47610   0.01267  Uiso   1.00
C88    C     0.33030   0.63830   0.56820   0.01267  Uiso   1.00
C89    C     0.29520   0.87340   0.67580   0.01267  Uiso   1.00
C90    C     0.29500   0.83000   0.68180   0.01267  Uiso   1.00
C91    C     0.41070   0.54530   0.20040   0.01267  Uiso   1.00
C92    C     0.37290   0.55910   0.17820   0.01267  Uiso   1.00
C93    C     0.35870   0.47210   0.11580   0.01267  Uiso   1.00
C94    C     0.39650   0.45890   0.13870   0.01267  Uiso   1.00
C95    C     0.42330   0.49460   0.18120   0.01267  Uiso   1.00
C96    C     0.34910   0.52390   0.13340   0.01267  Uiso   1.00
C97    C     0.33030   0.43180   0.07010   0.01267  Uiso   1.00
C98    C     0.29520   0.32420   0.19760   0.01267  Uiso   1.00
C99    C     0.29500   0.31820   0.14820   0.01267  Uiso   1.00
C100   C     0.41070   0.79960   0.34490   0.01267  Uiso   1.00
C101   C     0.37290   0.82180   0.38090   0.01267  Uiso   1.00
C102   C     0.35870   0.88420   0.35630   0.01267  Uiso   1.00
C103   C     0.39650   0.86130   0.32020   0.01267  Uiso   1.00
C104   C     0.42330   0.81880   0.31340   0.01267  Uiso   1.00
C105   C     0.34910   0.86660   0.39050   0.01267  Uiso   1.00
C106   C     0.33030   0.92990   0.36170   0.01267  Uiso   1.00
C107   C     0.29520   0.80240   0.12660   0.01267  Uiso   1.00
C108   C     0.29500   0.85180   0.17000   0.01267  Uiso   1.00
C109   C     0.41070   0.20040   0.54530   0.01267  Uiso   1.00
C110   C     0.37290   0.17820   0.55910   0.01267  Uiso   1.00
C111   C     0.35870   0.11580   0.47210   0.01267  Uiso   1.00
C112   C     0.39650   0.13870   0.45890   0.01267  Uiso   1.00
C113   C     0.42330   0.18120   0.49460   0.01267  Uiso   1.00
C114   C     0.34910   0.13340   0.52390   0.01267  Uiso   1.00
C115   C     0.33030   0.07010   0.43180   0.01267  Uiso   1.00
C116   C     0.29520   0.19760   0.32420   0.01267  Uiso   1.00
C117   C     0.29500   0.14820   0.31820   0.01267  Uiso   1.00
C118   C     0.41070   0.34490   0.79960   0.01267  Uiso   1.00
C119   C     0.37290   0.38090   0.82180   0.01267  Uiso   1.00
C120   C     0.35870   0.35630   0.88420   0.01267  Uiso   1.00
C121   C     0.39650   0.32020   0.86130   0.01267  Uiso   1.00
C122   C     0.42330   0.31340   0.81880   0.01267  Uiso   1.00
C123   C     0.34910   0.39050   0.86660   0.01267  Uiso   1.00
C124   C     0.33030   0.36170   0.92990   0.01267  Uiso   1.00
C125   C     0.29520   0.12660   0.80240   0.01267  Uiso   1.00
C126   C     0.29500   0.17000   0.85180   0.01267  Uiso   1.00
C127   C     0.41070   0.45470   0.65510   0.01267  Uiso   1.00
C128   C     0.37290   0.44090   0.61910   0.01267  Uiso   1.00
C129   C     0.35870   0.52790   0.64370   0.01267  Uiso   1.00
C130   C     0.39650   0.54110   0.67980   0.01267  Uiso   1.00
C131   C     0.42330   0.50540   0.68660   0.01267  Uiso   1.00
C132   C     0.34910   0.47610   0.60950   0.01267  Uiso   1.00
C133   C     0.33030   0.56820   0.63830   0.01267  Uiso   1.00
C134   C     0.29520   0.67580   0.87340   0.01267  Uiso   1.00
C135   C     0.29500   0.68180   0.83000   0.01267  Uiso   1.00
C136   C     0.91070   0.79960   0.45470   0.01267  Uiso   1.00
C137   C     0.87290   0.82180   0.44090   0.01267  Uiso   1.00
C138   C     0.85870   0.88420   0.52790   0.01267  Uiso   1.00
C139   C     0.89650   0.86130   0.54110   0.01267  Uiso   1.00
C140   C     0.92330   0.81880   0.50540   0.01267  Uiso   1.00
C141   C     0.84910   0.86660   0.47610   0.01267  Uiso   1.00
C142   C     0.83030   0.92990   0.56820   0.01267  Uiso   1.00
C143   C     0.79520   0.80240   0.67580   0.01267  Uiso   1.00
C144   C     0.79500   0.85180   0.68180   0.01267  Uiso   1.00
C145   C     0.91070   0.65510   0.20040   0.01267  Uiso   1.00
C146   C     0.87290   0.61910   0.17820   0.01267  Uiso   1.00
C147   C     0.85870   0.64370   0.11580   0.01267  Uiso   1.00
C148   C     0.89650   0.67980   0.13870   0.01267  Uiso   1.00
C149   C     0.92330   0.68660   0.18120   0.01267  Uiso   1.00
C150   C     0.84910   0.60950   0.13340   0.01267  Uiso   1.00
C151   C     0.83030   0.63830   0.07010   0.01267  Uiso   1.00
C152   C     0.79520   0.87340   0.19760   0.01267  Uiso   1.00
C153   C     0.79500   0.83000   0.14820   0.01267  Uiso   1.00
C154   C     0.91070   0.54530   0.34490   0.01267  Uiso   1.00
C155   C     0.87290   0.55910   0.38090   0.01267  Uiso   1.00
C156   C     0.85870   0.47210   0.35630   0.01267  Uiso   1.00
C157   C     0.89650   0.45890   0.32020   0.01267  Uiso   1.00
C158   C     0.92330   0.49460   0.31340   0.01267  Uiso   1.00
C159   C     0.84910   0.52390   0.39050   0.01267  Uiso   1.00
C160   C     0.83030   0.43180   0.36170   0.01267  Uiso   1.00
C161   C     0.79520   0.32420   0.12660   0.01267  Uiso   1.00
C162   C     0.79500   0.31820   0.17000   0.01267  Uiso   1.00
C163   C     0.08930   0.65510   0.45470   0.01267  Uiso   1.00
C164   C     0.12710   0.61910   0.44090   0.01267  Uiso   1.00
C165   C     0.14130   0.64370   0.52790   0.01267  Uiso   1.00
C166   C     0.10350   0.67980   0.54110   0.01267  Uiso   1.00
C167   C     0.07670   0.68660   0.50540   0.01267  Uiso   1.00
C168   C     0.15090   0.60950   0.47610   0.01267  Uiso   1.00
C169   C     0.16970   0.63830   0.56820   0.01267  Uiso   1.00
C170   C     0.20480   0.87340   0.67580   0.01267  Uiso   1.00
C171   C     0.20500   0.83000   0.68180   0.01267  Uiso   1.00
C172   C     0.08930   0.54530   0.20040   0.01267  Uiso   1.00
C173   C     0.12710   0.55910   0.17820   0.01267  Uiso   1.00
C174   C     0.14130   0.47210   0.11580   0.01267  Uiso   1.00
C175   C     0.10350   0.45890   0.13870   0.01267  Uiso   1.00
C176   C     0.07670   0.49460   0.18120   0.01267  Uiso   1.00
C177   C     0.15090   0.52390   0.13340   0.01267  Uiso   1.00
C178   C     0.16970   0.43180   0.07010   0.01267  Uiso   1.00
C179   C     0.20480   0.32420   0.19760   0.01267  Uiso   1.00
C180   C     0.20500   0.31820   0.14820   0.01267  Uiso   1.00
C181   C     0.08930   0.79960   0.34490   0.01267  Uiso   1.00
C182   C     0.12710   0.82180   0.38090   0.01267  Uiso   1.00
C183   C     0.14130   0.88420   0.35630   0.01267  Uiso   1.00
C184   C     0.10350   0.86130   0.32020   0.01267  Uiso   1.00
C185   C     0.07670   0.81880   0.31340   0.01267  Uiso   1.00
C186   C     0.15090   0.86660   0.39050   0.01267  Uiso   1.00
C187   C     0.16970   0.92990   0.36170   0.01267  Uiso   1.00
C188   C     0.20480   0.80240   0.12660   0.01267  Uiso   1.00
C189   C     0.20500   0.85180   0.17000   0.01267  Uiso   1.00
C190   C     0.58930   0.34490   0.54530   0.01267  Uiso   1.00
C191   C     0.62710   0.38090   0.55910   0.01267  Uiso   1.00
C192   C     0.64130   0.35630   0.47210   0.01267  Uiso   1.00
C193   C     0.60350   0.32020   0.45890   0.01267  Uiso   1.00
C194   C     0.57670   0.31340   0.49460   0.01267  Uiso   1.00
C195   C     0.65090   0.39050   0.52390   0.01267  Uiso   1.00
C196   C     0.66970   0.36170   0.43180   0.01267  Uiso   1.00
C197   C     0.70480   0.12660   0.32420   0.01267  Uiso   1.00
C198   C     0.70500   0.17000   0.31820   0.01267  Uiso   1.00
C199   C     0.58930   0.45470   0.79960   0.01267  Uiso   1.00
C200   C     0.62710   0.44090   0.82180   0.01267  Uiso   1.00
C201   C     0.64130   0.52790   0.88420   0.01267  Uiso   1.00
C202   C     0.60350   0.54110   0.86130   0.01267  Uiso   1.00
C203   C     0.57670   0.50540   0.81880   0.01267  Uiso   1.00
C204   C     0.65090   0.47610   0.86660   0.01267  Uiso   1.00
C205   C     0.66970   0.56820   0.92990   0.01267  Uiso   1.00
C206   C     0.70480   0.67580   0.80240   0.01267  Uiso   1.00
C207   C     0.70500   0.68180   0.85180   0.01267  Uiso   1.00
C208   C     0.58930   0.20040   0.65510   0.01267  Uiso   1.00
C209   C     0.62710   0.17820   0.61910   0.01267  Uiso   1.00
C210   C     0.64130   0.11580   0.64370   0.01267  Uiso   1.00
C211   C     0.60350   0.13870   0.67980   0.01267  Uiso   1.00
C212   C     0.57670   0.18120   0.68660   0.01267  Uiso   1.00
C213   C     0.65090   0.13340   0.60950   0.01267  Uiso   1.00
C214   C     0.66970   0.07010   0.63830   0.01267  Uiso   1.00
C215   C     0.70480   0.19760   0.87340   0.01267  Uiso   1.00
C216   C     0.70500   0.14820   0.83000   0.01267  Uiso   1.00
C217   C     0.75000   0.93100   0.69170   0.01267  Uiso   1.00
C218   C     0.75000   0.87760   0.68490   0.01267  Uiso   1.00
C219   C     0.75000   0.77850   0.67290   0.01267  Uiso   1.00
C220   C     0.75000   0.76070   0.06900   0.01267  Uiso   1.00
C221   C     0.75000   0.80730   0.12240   0.01267  Uiso   1.00
C222   C     0.75000   0.89440   0.22150   0.01267  Uiso   1.00
C223   C     0.75000   0.30830   0.23930   0.01267  Uiso   1.00
C224   C     0.75000   0.31510   0.19270   0.01267  Uiso   1.00
C225   C     0.75000   0.32710   0.10560   0.01267  Uiso   1.00
C226   C     0.25000   0.06900   0.30830   0.01267  Uiso   1.00
C227   C     0.25000   0.12240   0.31510   0.01267  Uiso   1.00
C228   C     0.25000   0.22150   0.32710   0.01267  Uiso   1.00
C229   C     0.25000   0.23930   0.93100   0.01267  Uiso   1.00
C230   C     0.25000   0.19270   0.87760   0.01267  Uiso   1.00
C231   C     0.25000   0.10560   0.77850   0.01267  Uiso   1.00
C232   C     0.25000   0.69170   0.76070   0.01267  Uiso   1.00
C233   C     0.25000   0.68490   0.80730   0.01267  Uiso   1.00
C234   C     0.25000   0.67290   0.89440   0.01267  Uiso   1.00
C235   C     0.75000   0.23930   0.30830   0.01267  Uiso   1.00
C236   C     0.75000   0.19270   0.31510   0.01267  Uiso   1.00
C237   C     0.75000   0.10560   0.32710   0.01267  Uiso   1.00
C238   C     0.75000   0.69170   0.93100   0.01267  Uiso   1.00
C239   C     0.75000   0.68490   0.87760   0.01267  Uiso   1.00
C240   C     0.75000   0.67290   0.77850   0.01267  Uiso   1.00
C241   C     0.75000   0.06900   0.76070   0.01267  Uiso   1.00
C242   C     0.75000   0.12240   0.80730   0.01267  Uiso   1.00
C243   C     0.75000   0.22150   0.89440   0.01267  Uiso   1.00
C244   C     0.25000   0.76070   0.69170   0.01267  Uiso   1.00
C245   C     0.25000   0.80730   0.68490   0.01267  Uiso   1.00
C246   C     0.25000   0.89440   0.67290   0.01267  Uiso   1.00
C247   C     0.25000   0.30830   0.06900   0.01267  Uiso   1.00
C248   C     0.25000   0.31510   0.12240   0.01267  Uiso   1.00
C249   C     0.25000   0.32710   0.22150   0.01267  Uiso   1.00
C250   C     0.25000   0.93100   0.23930   0.01267  Uiso   1.00
C251   C     0.25000   0.87760   0.19270   0.01267  Uiso   1.00
C252   C     0.25000   0.77850   0.10560   0.01267  Uiso   1.00
N1     N     0.56300   0.75190   0.41650   0.01267  Uiso   1.00
N2     N     0.56300   0.66460   0.24810   0.01267  Uiso   1.00
N3     N     0.56300   0.58350   0.33540   0.01267  Uiso   1.00
N4     N     0.06300   0.24810   0.58350   0.01267  Uiso   1.00
N5     N     0.06300   0.33540   0.75190   0.01267  Uiso   1.00
N6     N     0.06300   0.41650   0.66460   0.01267  Uiso   1.00
N7     N     0.93700   0.33540   0.58350   0.01267  Uiso   1.00
N8     N     0.93700   0.41650   0.75190   0.01267  Uiso   1.00
N9     N     0.93700   0.24810   0.66460   0.01267  Uiso   1.00
N10    N     0.43700   0.66460   0.41650   0.01267  Uiso   1.00
N11    N     0.43700   0.58350   0.24810   0.01267  Uiso   1.00
N12    N     0.43700   0.75190   0.33540   0.01267  Uiso   1.00
N13    N     0.43700   0.24810   0.58350   0.01267  Uiso   1.00
N14    N     0.43700   0.33540   0.75190   0.01267  Uiso   1.00
N15    N     0.43700   0.41650   0.66460   0.01267  Uiso   1.00
N16    N     0.93700   0.75190   0.41650   0.01267  Uiso   1.00
N17    N     0.93700   0.66460   0.24810   0.01267  Uiso   1.00
N18    N     0.93700   0.58350   0.33540   0.01267  Uiso   1.00
N19    N     0.06300   0.66460   0.41650   0.01267  Uiso   1.00
N20    N     0.06300   0.58350   0.24810   0.01267  Uiso   1.00
N21    N     0.06300   0.75190   0.33540   0.01267  Uiso   1.00
N22    N     0.56300   0.33540   0.58350   0.01267  Uiso   1.00
N23    N     0.56300   0.41650   0.75190   0.01267  Uiso   1.00
N24    N     0.56300   0.24810   0.66460   0.01267  Uiso   1.00
N25    N     0.75000   0.72500   0.66600   0.01267  Uiso   1.00
N26    N     0.75000   0.94100   0.27500   0.01267  Uiso   1.00
N27    N     0.75000   0.33400   0.05900   0.01267  Uiso   1.00
N28    N     0.25000   0.27500   0.33400   0.01267  Uiso   1.00
N29    N     0.25000   0.05900   0.72500   0.01267  Uiso   1.00
N30    N     0.25000   0.66600   0.94100   0.01267  Uiso   1.00
N31    N     0.75000   0.05900   0.33400   0.01267  Uiso   1.00
N32    N     0.75000   0.66600   0.72500   0.01267  Uiso   1.00
N33    N     0.75000   0.27500   0.94100   0.01267  Uiso   1.00
N34    N     0.25000   0.94100   0.66600   0.01267  Uiso   1.00
N35    N     0.25000   0.33400   0.27500   0.01267  Uiso   1.00
N36    N     0.25000   0.72500   0.05900   0.01267  Uiso   1.00
Cl1    Cl    0.45380   0.78640   0.45530   0.01267  Uiso   1.00
Cl2    Cl    0.45380   0.66890   0.21360   0.01267  Uiso   1.00
Cl3    Cl    0.45380   0.54470   0.33110   0.01267  Uiso   1.00
Cl4    Cl    0.95380   0.21360   0.54470   0.01267  Uiso   1.00
Cl5    Cl    0.95380   0.33110   0.78640   0.01267  Uiso   1.00
Cl6    Cl    0.95380   0.45530   0.66890   0.01267  Uiso   1.00
Cl7    Cl    0.04620   0.33110   0.54470   0.01267  Uiso   1.00
Cl8    Cl    0.04620   0.45530   0.78640   0.01267  Uiso   1.00
Cl9    Cl    0.04620   0.21360   0.66890   0.01267  Uiso   1.00
Cl10   Cl    0.54620   0.66890   0.45530   0.01267  Uiso   1.00
Cl11   Cl    0.54620   0.54470   0.21360   0.01267  Uiso   1.00
Cl12   Cl    0.54620   0.78640   0.33110   0.01267  Uiso   1.00
Cl13   Cl    0.54620   0.21360   0.54470   0.01267  Uiso   1.00
Cl14   Cl    0.54620   0.33110   0.78640   0.01267  Uiso   1.00
Cl15   Cl    0.54620   0.45530   0.66890   0.01267  Uiso   1.00
Cl16   Cl    0.04620   0.78640   0.45530   0.01267  Uiso   1.00
Cl17   Cl    0.04620   0.66890   0.21360   0.01267  Uiso   1.00
Cl18   Cl    0.04620   0.54470   0.33110   0.01267  Uiso   1.00
Cl19   Cl    0.95380   0.66890   0.45530   0.01267  Uiso   1.00
Cl20   Cl    0.95380   0.54470   0.21360   0.01267  Uiso   1.00
Cl21   Cl    0.95380   0.78640   0.33110   0.01267  Uiso   1.00
Cl22   Cl    0.45380   0.33110   0.54470   0.01267  Uiso   1.00
Cl23   Cl    0.45380   0.45530   0.78640   0.01267  Uiso   1.00
Cl24   Cl    0.45380   0.21360   0.66890   0.01267  Uiso   1.00
Cl25   Cl    0.50000   0.66667   0.33334   0.01267  Uiso   1.00
Cl26   Cl    1.00000   0.33333   0.66666   0.01267  Uiso   1.00
Cl27   Cl    0.50000   0.33333   0.66666   0.01267  Uiso   1.00
Cl28   Cl    0.00000   0.66667   0.33334   0.01267  Uiso   1.00
O1     O     0.70290   0.94790   0.55170   0.01267  Uiso   1.00
O2     O     0.65840   0.94620   0.61430   0.01267  Uiso   1.00
O3     O     0.70460   0.94780   0.69230   0.01267  Uiso   1.00
O4     O     0.70290   0.60380   0.05210   0.01267  Uiso   1.00
O5     O     0.65840   0.66810   0.05380   0.01267  Uiso   1.00
O6     O     0.70460   0.74450   0.05220   0.01267  Uiso   1.00
O7     O     0.70290   0.44830   0.39620   0.01267  Uiso   1.00
O8     O     0.65840   0.38570   0.33190   0.01267  Uiso   1.00
O9     O     0.70460   0.30770   0.25550   0.01267  Uiso   1.00
O10    O     0.20290   0.05210   0.44830   0.01267  Uiso   1.00
O11    O     0.15840   0.05380   0.38570   0.01267  Uiso   1.00
O12    O     0.20460   0.05220   0.30770   0.01267  Uiso   1.00
O13    O     0.20290   0.39620   0.94790   0.01267  Uiso   1.00
O14    O     0.15840   0.33190   0.94620   0.01267  Uiso   1.00
O15    O     0.20460   0.25550   0.94780   0.01267  Uiso   1.00
O16    O     0.20290   0.55170   0.60380   0.01267  Uiso   1.00
O17    O     0.15840   0.61430   0.66810   0.01267  Uiso   1.00
O18    O     0.20460   0.69230   0.74450   0.01267  Uiso   1.00
O19    O     0.79710   0.39620   0.44830   0.01267  Uiso   1.00
O20    O     0.84160   0.33190   0.38570   0.01267  Uiso   1.00
O21    O     0.79540   0.25550   0.30770   0.01267  Uiso   1.00
O22    O     0.79710   0.55170   0.94790   0.01267  Uiso   1.00
O23    O     0.84160   0.61430   0.94620   0.01267  Uiso   1.00
O24    O     0.79540   0.69230   0.94780   0.01267  Uiso   1.00
O25    O     0.79710   0.05210   0.60380   0.01267  Uiso   1.00
O26    O     0.84160   0.05380   0.66810   0.01267  Uiso   1.00
O27    O     0.79540   0.05220   0.74450   0.01267  Uiso   1.00
O28    O     0.29710   0.60380   0.55170   0.01267  Uiso   1.00
O29    O     0.34160   0.66810   0.61430   0.01267  Uiso   1.00
O30    O     0.29540   0.74450   0.69230   0.01267  Uiso   1.00
O31    O     0.29710   0.44830   0.05210   0.01267  Uiso   1.00
O32    O     0.34160   0.38570   0.05380   0.01267  Uiso   1.00
O33    O     0.29540   0.30770   0.05220   0.01267  Uiso   1.00
O34    O     0.29710   0.94790   0.39620   0.01267  Uiso   1.00
O35    O     0.34160   0.94620   0.33190   0.01267  Uiso   1.00
O36    O     0.29540   0.94780   0.25550   0.01267  Uiso   1.00
O37    O     0.29710   0.05210   0.44830   0.01267  Uiso   1.00
O38    O     0.34160   0.05380   0.38570   0.01267  Uiso   1.00
O39    O     0.29540   0.05220   0.30770   0.01267  Uiso   1.00
O40    O     0.29710   0.39620   0.94790   0.01267  Uiso   1.00
O41    O     0.34160   0.33190   0.94620   0.01267  Uiso   1.00
O42    O     0.29540   0.25550   0.94780   0.01267  Uiso   1.00
O43    O     0.29710   0.55170   0.60380   0.01267  Uiso   1.00
O44    O     0.34160   0.61430   0.66810   0.01267  Uiso   1.00
O45    O     0.29540   0.69230   0.74450   0.01267  Uiso   1.00
O46    O     0.79710   0.94790   0.55170   0.01267  Uiso   1.00
O47    O     0.84160   0.94620   0.61430   0.01267  Uiso   1.00
O48    O     0.79540   0.94780   0.69230   0.01267  Uiso   1.00
O49    O     0.79710   0.60380   0.05210   0.01267  Uiso   1.00
O50    O     0.84160   0.66810   0.05380   0.01267  Uiso   1.00
O51    O     0.79540   0.74450   0.05220   0.01267  Uiso   1.00
O52    O     0.79710   0.44830   0.39620   0.01267  Uiso   1.00
O53    O     0.84160   0.38570   0.33190   0.01267  Uiso   1.00
O54    O     0.79540   0.30770   0.25550   0.01267  Uiso   1.00
O55    O     0.20290   0.60380   0.55170   0.01267  Uiso   1.00
O56    O     0.15840   0.66810   0.61430   0.01267  Uiso   1.00
O57    O     0.20460   0.74450   0.69230   0.01267  Uiso   1.00
O58    O     0.20290   0.44830   0.05210   0.01267  Uiso   1.00
O59    O     0.15840   0.38570   0.05380   0.01267  Uiso   1.00
O60    O     0.20460   0.30770   0.05220   0.01267  Uiso   1.00
O61    O     0.20290   0.94790   0.39620   0.01267  Uiso   1.00
O62    O     0.15840   0.94620   0.33190   0.01267  Uiso   1.00
O63    O     0.20460   0.94780   0.25550   0.01267  Uiso   1.00
O64    O     0.70290   0.39620   0.44830   0.01267  Uiso   1.00
O65    O     0.65840   0.33190   0.38570   0.01267  Uiso   1.00
O66    O     0.70460   0.25550   0.30770   0.01267  Uiso   1.00
O67    O     0.70290   0.55170   0.94790   0.01267  Uiso   1.00
O68    O     0.65840   0.61430   0.94620   0.01267  Uiso   1.00
O69    O     0.70460   0.69230   0.94780   0.01267  Uiso   1.00
O70    O     0.70290   0.05210   0.60380   0.01267  Uiso   1.00
O71    O     0.65840   0.05380   0.66810   0.01267  Uiso   1.00
O72    O     0.70460   0.05220   0.74450   0.01267  Uiso   1.00
O73    O     0.75000   0.00000   0.64590   0.01267  Uiso   1.00
O74    O     0.75000   0.64590   1.00000   0.01267  Uiso   1.00
O75    O     0.75000   0.35410   0.35410   0.01267  Uiso   1.00
O76    O     0.25000   0.00000   0.35410   0.01267  Uiso   1.00
O77    O     0.25000   0.35410  -0.00000   0.01267  Uiso   1.00
O78    O     0.25000   0.64590   0.64590   0.01267  Uiso   1.00
