data_ILITUT_clean5b
_audit_creation_date              2014-07-02
_audit_creation_method            'Materials Studio'
_symmetry_space_group_name_H-M    'P1'
_symmetry_Int_Tables_number       1
_symmetry_cell_setting            triclinic
loop_
_symmetry_equiv_pos_as_xyz
  x,y,z
_cell_length_a                    33.3288
_cell_length_b                    33.3288
_cell_length_c                    27.8530
_cell_angle_alpha                 90.0000
_cell_angle_beta                  90.0000
_cell_angle_gamma                 90.0243
loop_
_atom_site_label
_atom_site_type_symbol
_atom_site_fract_x
_atom_site_fract_y
_atom_site_fract_z
_atom_site_U_iso_or_equiv
_atom_site_adp_type
_atom_site_occupancy
Co1    Co    0.25037   0.24259   0.74999   0.01267  Uiso   1.00
Co2    Co    0.24967   0.25741   0.24999   0.01267  Uiso   1.00
Co3    Co    0.00034   0.49253   0.70779   0.01267  Uiso   1.00
Co4    Co    0.49969   0.00747   0.20779   0.01267  Uiso   1.00
Co5    Co    0.00034   0.49253   0.79221   0.01267  Uiso   1.00
Co6    Co    0.49969   0.00747   0.29221   0.01267  Uiso   1.00
H7     H     0.35983   0.35117   0.82724   0.01267  Uiso   1.00
H8     H     0.41119   0.40409   0.82750   0.01267  Uiso   1.00
H9     H     0.50041   0.06228   0.54492   0.01267  Uiso   1.00
H10    H     0.00052   0.05578   0.63171   0.01267  Uiso   1.00
H11    H     0.14005   0.14898   0.32724   0.01267  Uiso   1.00
H12    H     0.08865   0.09610   0.32750   0.01267  Uiso   1.00
H13    H     0.00033   0.43772   0.04492   0.01267  Uiso   1.00
H14    H     0.50007   0.44422   0.13171   0.01267  Uiso   1.00
H15    H     0.14077   0.13408   0.67276   0.01267  Uiso   1.00
H16    H     0.08909   0.08146   0.67250   0.01267  Uiso   1.00
H17    H    -0.00012   0.43378   0.96726   0.01267  Uiso   1.00
H18    H     0.00027   0.41315   0.83714   0.01267  Uiso   1.00
H19    H     0.02710   0.39998   0.88975   0.01267  Uiso   1.00
H20    H     0.47305   0.40004   0.88953   0.01267  Uiso   1.00
H21    H     0.35941   0.36577   0.17276   0.01267  Uiso   1.00
H22    H     0.41112   0.41836   0.17250   0.01267  Uiso   1.00
H23    H     0.49955   0.06621   0.46726   0.01267  Uiso   1.00
H24    H     0.49951   0.08685   0.33714   0.01267  Uiso   1.00
H25    H     0.47228   0.09982   0.38955   0.01267  Uiso   1.00
H26    H     0.02634   0.10016   0.38972   0.01267  Uiso   1.00
H27    H     0.14005   0.14898   0.17276   0.01267  Uiso   1.00
H28    H     0.08865   0.09610   0.17250   0.01267  Uiso   1.00
H29    H     0.00033   0.43772   0.45508   0.01267  Uiso   1.00
H30    H     0.50007   0.44422   0.36829   0.01267  Uiso   1.00
H31    H     0.35983   0.35117   0.67276   0.01267  Uiso   1.00
H32    H     0.41120   0.40409   0.67250   0.01267  Uiso   1.00
H33    H     0.50041   0.06228   0.95508   0.01267  Uiso   1.00
H34    H     0.00052   0.05578   0.86829   0.01267  Uiso   1.00
H35    H     0.35941   0.36577   0.32724   0.01267  Uiso   1.00
H36    H     0.41112   0.41836   0.32750   0.01267  Uiso   1.00
H37    H     0.49955   0.06621   0.03274   0.01267  Uiso   1.00
H38    H     0.49951   0.08685   0.16286   0.01267  Uiso   1.00
H39    H     0.47228   0.09982   0.11045   0.01267  Uiso   1.00
H40    H     0.02634   0.10016   0.11028   0.01267  Uiso   1.00
H41    H     0.14077   0.13408   0.82724   0.01267  Uiso   1.00
H42    H     0.08909   0.08146   0.82750   0.01267  Uiso   1.00
H43    H    -0.00012   0.43378   0.53274   0.01267  Uiso   1.00
H44    H     0.00027   0.41315   0.66286   0.01267  Uiso   1.00
H45    H     0.02710   0.39998   0.61025   0.01267  Uiso   1.00
H46    H     0.47305   0.40004   0.61047   0.01267  Uiso   1.00
H47    H     0.35891   0.13302   0.67276   0.01267  Uiso   1.00
H48    H     0.41148   0.08132   0.67250   0.01267  Uiso   1.00
H49    H     0.14194   0.35227   0.67276   0.01267  Uiso   1.00
H50    H     0.08966   0.40425   0.67250   0.01267  Uiso   1.00
H51    H     0.14126   0.36713   0.17276   0.01267  Uiso   1.00
H52    H     0.08873   0.41886   0.17250   0.01267  Uiso   1.00
H53    H     0.35794   0.14758   0.17276   0.01267  Uiso   1.00
H54    H     0.41018   0.09557   0.17251   0.01267  Uiso   1.00
H55    H     0.35891   0.13302   0.82724   0.01267  Uiso   1.00
H56    H     0.41148   0.08132   0.82750   0.01267  Uiso   1.00
H57    H     0.14194   0.35227   0.82724   0.01267  Uiso   1.00
H58    H     0.08966   0.40425   0.82749   0.01267  Uiso   1.00
H59    H     0.14126   0.36713   0.32724   0.01267  Uiso   1.00
H60    H     0.08873   0.41886   0.32750   0.01267  Uiso   1.00
H61    H     0.35794   0.14758   0.32724   0.01267  Uiso   1.00
H62    H     0.41018   0.09557   0.32749   0.01267  Uiso   1.00
H63    H     0.40219   0.20407   0.75000   0.01267  Uiso   1.00
H64    H     0.40432   0.28071   0.75000   0.01267  Uiso   1.00
H65    H     0.28897   0.39441   0.75000   0.01267  Uiso   1.00
H66    H     0.21235   0.39655   0.75000   0.01267  Uiso   1.00
H67    H     0.09789   0.29615   0.25000   0.01267  Uiso   1.00
H68    H     0.09566   0.21951   0.25000   0.01267  Uiso   1.00
H69    H     0.21085   0.10564   0.25000   0.01267  Uiso   1.00
H70    H     0.28746   0.10340   0.25000   0.01267  Uiso   1.00
H71    H     0.28840   0.08864   0.75000   0.01267  Uiso   1.00
H72    H     0.21176   0.09077   0.75000   0.01267  Uiso   1.00
H73    H     0.09640   0.20452   0.75000   0.01267  Uiso   1.00
H74    H     0.09855   0.28116   0.75000   0.01267  Uiso   1.00
H75    H     0.21185   0.41141   0.25000   0.01267  Uiso   1.00
H76    H     0.28848   0.40918   0.25000   0.01267  Uiso   1.00
H77    H     0.40368   0.29527   0.25000   0.01267  Uiso   1.00
H78    H     0.40142   0.21863   0.25000   0.01267  Uiso   1.00
C79    C     0.37091   0.36262   0.79335   0.01267  Uiso   1.00
C80    C     0.40033   0.39293   0.79338   0.01267  Uiso   1.00
C81    C     0.00030   0.03228   0.55938   0.01267  Uiso   1.00
C82    C     0.00038   0.02855   0.61059   0.01267  Uiso   1.00
C83    C     0.12896   0.13755   0.29335   0.01267  Uiso   1.00
C84    C     0.09952   0.10725   0.29338   0.01267  Uiso   1.00
C85    C     0.50009   0.46772   0.05938   0.01267  Uiso   1.00
C86    C     0.49996   0.47145   0.11059   0.01267  Uiso   1.00
C87    C     0.12964   0.12268   0.70665   0.01267  Uiso   1.00
C88    C     0.10003   0.09254   0.70662   0.01267  Uiso   1.00
C89    C     0.00016   0.45827   0.89542   0.01267  Uiso   1.00
C90    C     0.00004   0.46136   0.94693   0.01267  Uiso   1.00
C91    C     0.00014   0.41599   0.87625   0.01267  Uiso   1.00
C92    C     0.37055   0.37716   0.20665   0.01267  Uiso   1.00
C93    C     0.40017   0.40728   0.20662   0.01267  Uiso   1.00
C94    C     0.49962   0.04173   0.39542   0.01267  Uiso   1.00
C95    C     0.49970   0.03864   0.44693   0.01267  Uiso   1.00
C96    C     0.49942   0.08401   0.37625   0.01267  Uiso   1.00
C97    C     0.12896   0.13755   0.20665   0.01267  Uiso   1.00
C98    C     0.09952   0.10725   0.20661   0.01267  Uiso   1.00
C99    C     0.50009   0.46772   0.44061   0.01267  Uiso   1.00
C100   C     0.49996   0.47145   0.38941   0.01267  Uiso   1.00
C101   C     0.37091   0.36262   0.70665   0.01267  Uiso   1.00
C102   C     0.40033   0.39293   0.70662   0.01267  Uiso   1.00
C103   C     0.00030   0.03228   0.94062   0.01267  Uiso   1.00
C104   C     0.00038   0.02855   0.88941   0.01267  Uiso   1.00
C105   C     0.37055   0.37716   0.29335   0.01267  Uiso   1.00
C106   C     0.40017   0.40728   0.29338   0.01267  Uiso   1.00
C107   C     0.49962   0.04173   0.10458   0.01267  Uiso   1.00
C108   C     0.49970   0.03864   0.05307   0.01267  Uiso   1.00
C109   C     0.49942   0.08401   0.12375   0.01267  Uiso   1.00
C110   C     0.12964   0.12268   0.79335   0.01267  Uiso   1.00
C111   C     0.10003   0.09254   0.79338   0.01267  Uiso   1.00
C112   C     0.00016   0.45827   0.60458   0.01267  Uiso   1.00
C113   C     0.00004   0.46136   0.55307   0.01267  Uiso   1.00
C114   C     0.00014   0.41599   0.62375   0.01267  Uiso   1.00
C115   C     0.32235   0.16834   0.75000   0.01267  Uiso   1.00
C116   C     0.35483   0.13696   0.75000   0.01267  Uiso   1.00
C117   C     0.41590   0.07686   0.75000   0.01267  Uiso   1.00
C118   C     0.44784   0.04501   0.75000   0.01267  Uiso   1.00
C119   C     0.17839   0.31686   0.75000   0.01267  Uiso   1.00
C120   C     0.14596   0.34827   0.75000   0.01267  Uiso   1.00
C121   C     0.08525   0.40871   0.75000   0.01267  Uiso   1.00
C122   C     0.05334   0.44056   0.75000   0.01267  Uiso   1.00
C123   C     0.17778   0.33176   0.25000   0.01267  Uiso   1.00
C124   C     0.14534   0.36319   0.25000   0.01267  Uiso   1.00
C125   C     0.08431   0.42332   0.25000   0.01267  Uiso   1.00
C126   C     0.05234   0.45514   0.25000   0.01267  Uiso   1.00
C127   C     0.32153   0.18304   0.25000   0.01267  Uiso   1.00
C128   C     0.35392   0.15158   0.25000   0.01267  Uiso   1.00
C129   C     0.41460   0.09111   0.25000   0.01267  Uiso   1.00
C130   C     0.44654   0.05929   0.25000   0.01267  Uiso   1.00
C131   C     0.37029   0.12188   0.70665   0.01267  Uiso   1.00
C132   C     0.40039   0.09224   0.70662   0.01267  Uiso   1.00
C133   C     0.13060   0.36345   0.70665   0.01267  Uiso   1.00
C134   C     0.10067   0.39325   0.70662   0.01267  Uiso   1.00
C135   C     0.00009   0.49846   0.52828   0.01267  Uiso   1.00
C136   C     0.12990   0.37828   0.20665   0.01267  Uiso   1.00
C137   C     0.09982   0.40793   0.20662   0.01267  Uiso   1.00
C138   C     0.36926   0.13639   0.20665   0.01267  Uiso   1.00
C139   C     0.39918   0.10657   0.20662   0.01267  Uiso   1.00
C140   C     0.49995   0.00154   0.02828   0.01267  Uiso   1.00
C141   C     0.37029   0.12188   0.79335   0.01267  Uiso   1.00
C142   C     0.40039   0.09224   0.79338   0.01267  Uiso   1.00
C143   C     0.13060   0.36345   0.79335   0.01267  Uiso   1.00
C144   C     0.10067   0.39325   0.79338   0.01267  Uiso   1.00
C145   C     0.00009   0.49846   0.97171   0.01267  Uiso   1.00
C146   C     0.12990   0.37828   0.29335   0.01267  Uiso   1.00
C147   C     0.09982   0.40793   0.29338   0.01267  Uiso   1.00
C148   C     0.36926   0.13639   0.29335   0.01267  Uiso   1.00
C149   C     0.39918   0.10657   0.29338   0.01267  Uiso   1.00
C150   C     0.49995   0.00154   0.47171   0.01267  Uiso   1.00
C151   C     0.33383   0.21104   0.75000   0.01267  Uiso   1.00
C152   C     0.37609   0.22337   0.75000   0.01267  Uiso   1.00
C153   C     0.37731   0.26265   0.75000   0.01267  Uiso   1.00
C154   C     0.33572   0.27607   0.75000   0.01267  Uiso   1.00
C155   C     0.32461   0.31457   0.75000   0.01267  Uiso   1.00
C156   C     0.28193   0.32604   0.75000   0.01267  Uiso   1.00
C157   C     0.26965   0.36831   0.75000   0.01267  Uiso   1.00
C158   C     0.23038   0.36954   0.75000   0.01267  Uiso   1.00
C159   C     0.21691   0.32795   0.75000   0.01267  Uiso   1.00
C160   C     0.35594   0.34708   0.75000   0.01267  Uiso   1.00
C161   C     0.41557   0.40857   0.75000   0.01267  Uiso   1.00
C162   C     0.44730   0.44059   0.75000   0.01267  Uiso   1.00
C163   C     0.16625   0.28908   0.25000   0.01267  Uiso   1.00
C164   C     0.12397   0.27681   0.25000   0.01267  Uiso   1.00
C165   C     0.12269   0.23753   0.25000   0.01267  Uiso   1.00
C166   C     0.16426   0.22405   0.25000   0.01267  Uiso   1.00
C167   C     0.17532   0.18553   0.25000   0.01267  Uiso   1.00
C168   C     0.21799   0.17400   0.25000   0.01267  Uiso   1.00
C169   C     0.23021   0.13172   0.25000   0.01267  Uiso   1.00
C170   C     0.26948   0.13043   0.25000   0.01267  Uiso   1.00
C171   C     0.28300   0.17200   0.25000   0.01267  Uiso   1.00
C172   C     0.14395   0.15307   0.25000   0.01267  Uiso   1.00
C173   C     0.08428   0.09162   0.25000   0.01267  Uiso   1.00
C174   C     0.05258   0.05956   0.25000   0.01267  Uiso   1.00
C175   C     0.28383   0.15724   0.75000   0.01267  Uiso   1.00
C176   C     0.27037   0.11565   0.75000   0.01267  Uiso   1.00
C177   C     0.23109   0.11687   0.75000   0.01267  Uiso   1.00
C178   C     0.21879   0.15914   0.75000   0.01267  Uiso   1.00
C179   C     0.17610   0.17061   0.75000   0.01267  Uiso   1.00
C180   C     0.16500   0.20912   0.75000   0.01267  Uiso   1.00
C181   C     0.12342   0.22257   0.75000   0.01267  Uiso   1.00
C182   C     0.12465   0.26185   0.75000   0.01267  Uiso   1.00
C183   C     0.16691   0.27416   0.75000   0.01267  Uiso   1.00
C184   C     0.14472   0.13813   0.75000   0.01267  Uiso   1.00
C185   C     0.08469   0.07698   0.75000   0.01267  Uiso   1.00
C186   C     0.05291   0.04497   0.75000   0.01267  Uiso   1.00
C187   C     0.21632   0.34281   0.25000   0.01267  Uiso   1.00
C188   C     0.22984   0.38438   0.25000   0.01267  Uiso   1.00
C189   C     0.26912   0.38310   0.25000   0.01267  Uiso   1.00
C190   C     0.28135   0.34082   0.25000   0.01267  Uiso   1.00
C191   C     0.32403   0.32928   0.25000   0.01267  Uiso   1.00
C192   C     0.33507   0.29076   0.25000   0.01267  Uiso   1.00
C193   C     0.37664   0.27726   0.25000   0.01267  Uiso   1.00
C194   C     0.37536   0.23798   0.25000   0.01267  Uiso   1.00
C195   C     0.33307   0.22573   0.25000   0.01267  Uiso   1.00
C196   C     0.35545   0.36172   0.25000   0.01267  Uiso   1.00
C197   C     0.41552   0.42284   0.25000   0.01267  Uiso   1.00
C198   C     0.44727   0.45488   0.25000   0.01267  Uiso   1.00
N199   N     0.00031   0.49215   0.63391   0.01267  Uiso   1.00
N200   N     0.49973   0.00785   0.13391   0.01267  Uiso   1.00
N201   N     0.00031   0.49215   0.86609   0.01267  Uiso   1.00
N202   N     0.49973   0.00785   0.36609   0.01267  Uiso   1.00
N203   N     0.30945   0.24187   0.75000   0.01267  Uiso   1.00
N204   N     0.25109   0.30167   0.75000   0.01267  Uiso   1.00
N205   N     0.19058   0.25821   0.25000   0.01267  Uiso   1.00
N206   N     0.24886   0.19833   0.25000   0.01267  Uiso   1.00
N207   N     0.24965   0.18350   0.75000   0.01267  Uiso   1.00
N208   N     0.19128   0.24332   0.75000   0.01267  Uiso   1.00
N209   N     0.25047   0.31649   0.25000   0.01267  Uiso   1.00
N210   N     0.30875   0.25660   0.25000   0.01267  Uiso   1.00
O211   O     0.46099   0.45425   0.78982   0.01267  Uiso   1.00
O212   O     0.03892   0.04587   0.28982   0.01267  Uiso   1.00
O213   O     0.03928   0.03128   0.70999   0.01267  Uiso   1.00
O214   O     0.46088   0.46859   0.20999   0.01267  Uiso   1.00
O215   O     0.03892   0.04587   0.21018   0.01267  Uiso   1.00
O216   O     0.46099   0.45425   0.71018   0.01267  Uiso   1.00
O217   O     0.46088   0.46859   0.29001   0.01267  Uiso   1.00
O218   O     0.03928   0.03128   0.79000   0.01267  Uiso   1.00
O219   O     0.46149   0.03134   0.71000   0.01267  Uiso   1.00
O220   O     0.03963   0.45420   0.71018   0.01267  Uiso   1.00
O221   O     0.03866   0.46879   0.21000   0.01267  Uiso   1.00
O222   O     0.46028   0.04568   0.21018   0.01267  Uiso   1.00
O223   O     0.46149   0.03134   0.79000   0.01267  Uiso   1.00
O224   O     0.03963   0.45420   0.78982   0.01267  Uiso   1.00
O225   O     0.03866   0.46879   0.29000   0.01267  Uiso   1.00
O226   O     0.46028   0.04568   0.28982   0.01267  Uiso   1.00
Co227  Co    0.75036   0.24259   0.74999   0.01267  Uiso   1.00
Co228  Co    0.74967   0.25741   0.24999   0.01267  Uiso   1.00
Co229  Co    0.50034   0.49251   0.70779   0.01267  Uiso   1.00
Co230  Co    0.99969   0.00749   0.20779   0.01267  Uiso   1.00
Co231  Co    0.50034   0.49251   0.79221   0.01267  Uiso   1.00
Co232  Co    0.99969   0.00749   0.29221   0.01267  Uiso   1.00
H233   H     0.85869   0.35233   0.82724   0.01267  Uiso   1.00
H234   H     0.91095   0.40435   0.82750   0.01267  Uiso   1.00
H235   H     1.00041   0.06230   0.54492   0.01267  Uiso   1.00
H236   H     0.50052   0.05576   0.63171   0.01267  Uiso   1.00
H237   H     0.64119   0.14783   0.32724   0.01267  Uiso   1.00
H238   H     0.58889   0.09583   0.32750   0.01267  Uiso   1.00
H239   H     0.50032   0.43770   0.04493   0.01267  Uiso   1.00
H240   H     1.00007   0.44424   0.13171   0.01267  Uiso   1.00
H241   H     0.64191   0.13293   0.67276   0.01267  Uiso   1.00
H242   H     0.58934   0.08120   0.67250   0.01267  Uiso   1.00
H243   H     0.49988   0.43377   0.96726   0.01267  Uiso   1.00
H244   H     0.50026   0.41312   0.83715   0.01267  Uiso   1.00
H245   H     0.52710   0.39996   0.88976   0.01267  Uiso   1.00
H246   H     0.97305   0.40006   0.88951   0.01267  Uiso   1.00
H247   H     0.85827   0.36692   0.17276   0.01267  Uiso   1.00
H248   H     0.91086   0.41863   0.17250   0.01267  Uiso   1.00
H249   H     0.99956   0.06623   0.46727   0.01267  Uiso   1.00
H250   H     0.99952   0.08688   0.33715   0.01267  Uiso   1.00
H251   H     0.97229   0.09984   0.38957   0.01267  Uiso   1.00
H252   H     0.52633   0.10014   0.38971   0.01267  Uiso   1.00
H253   H     0.64119   0.14783   0.17276   0.01267  Uiso   1.00
H254   H     0.58889   0.09583   0.17250   0.01267  Uiso   1.00
H255   H     0.50032   0.43770   0.45507   0.01267  Uiso   1.00
H256   H     1.00007   0.44424   0.36829   0.01267  Uiso   1.00
H257   H     0.85869   0.35233   0.67276   0.01267  Uiso   1.00
H258   H     0.91095   0.40435   0.67250   0.01267  Uiso   1.00
H259   H     1.00041   0.06230   0.95508   0.01267  Uiso   1.00
H260   H     0.50052   0.05576   0.86829   0.01267  Uiso   1.00
H261   H     0.85827   0.36692   0.32724   0.01267  Uiso   1.00
H262   H     0.91086   0.41863   0.32750   0.01267  Uiso   1.00
H263   H     0.99956   0.06623   0.03273   0.01267  Uiso   1.00
H264   H     0.99952   0.08688   0.16285   0.01267  Uiso   1.00
H265   H     0.97229   0.09984   0.11043   0.01267  Uiso   1.00
H266   H     0.52633   0.10014   0.11029   0.01267  Uiso   1.00
H267   H     0.64191   0.13293   0.82724   0.01267  Uiso   1.00
H268   H     0.58935   0.08120   0.82750   0.01267  Uiso   1.00
H269   H     0.49988   0.43377   0.53273   0.01267  Uiso   1.00
H270   H     0.50026   0.41312   0.66285   0.01267  Uiso   1.00
H271   H     0.52710   0.39996   0.61024   0.01267  Uiso   1.00
H272   H     0.97305   0.40006   0.61049   0.01267  Uiso   1.00
H273   H     0.86006   0.13417   0.67276   0.01267  Uiso   1.00
H274   H     0.91174   0.08159   0.67250   0.01267  Uiso   1.00
H275   H     0.64079   0.35112   0.67276   0.01267  Uiso   1.00
H276   H     0.58940   0.40397   0.67251   0.01267  Uiso   1.00
H277   H     0.64012   0.36598   0.17276   0.01267  Uiso   1.00
H278   H     0.58846   0.41858   0.17250   0.01267  Uiso   1.00
H279   H     0.85909   0.14873   0.17276   0.01267  Uiso   1.00
H280   H     0.91044   0.09584   0.17251   0.01267  Uiso   1.00
H281   H     0.86006   0.13417   0.82724   0.01267  Uiso   1.00
H282   H     0.91174   0.08159   0.82750   0.01267  Uiso   1.00
H283   H     0.64079   0.35112   0.82724   0.01267  Uiso   1.00
H284   H     0.58940   0.40397   0.82749   0.01267  Uiso   1.00
H285   H     0.64012   0.36598   0.32724   0.01267  Uiso   1.00
H286   H     0.58846   0.41858   0.32750   0.01267  Uiso   1.00
H287   H     0.85909   0.14873   0.32724   0.01267  Uiso   1.00
H288   H     0.91044   0.09584   0.32749   0.01267  Uiso   1.00
H289   H     0.90435   0.20470   0.75000   0.01267  Uiso   1.00
H290   H     0.90215   0.28134   0.75000   0.01267  Uiso   1.00
H291   H     0.78832   0.39658   0.75000   0.01267  Uiso   1.00
H292   H     0.71170   0.39439   0.75000   0.01267  Uiso   1.00
H293   H     0.59573   0.29551   0.25000   0.01267  Uiso   1.00
H294   H     0.59783   0.21887   0.25000   0.01267  Uiso   1.00
H295   H     0.71149   0.10347   0.25000   0.01267  Uiso   1.00
H296   H     0.78811   0.10556   0.25000   0.01267  Uiso   1.00
H297   H     0.78903   0.09081   0.75000   0.01267  Uiso   1.00
H298   H     0.71239   0.08861   0.75000   0.01267  Uiso   1.00
H299   H     0.59856   0.20389   0.75000   0.01267  Uiso   1.00
H300   H     0.59638   0.28053   0.75000   0.01267  Uiso   1.00
H301   H     0.71122   0.40925   0.25000   0.01267  Uiso   1.00
H302   H     0.78785   0.41134   0.25000   0.01267  Uiso   1.00
H303   H     0.90152   0.29590   0.25000   0.01267  Uiso   1.00
H304   H     0.90359   0.21926   0.25000   0.01267  Uiso   1.00
C305   C     0.87002   0.36352   0.79335   0.01267  Uiso   1.00
C306   C     0.89994   0.39334   0.79338   0.01267  Uiso   1.00
C307   C     0.50030   0.03226   0.55938   0.01267  Uiso   1.00
C308   C     0.50038   0.02853   0.61059   0.01267  Uiso   1.00
C309   C     0.62985   0.13664   0.29335   0.01267  Uiso   1.00
C310   C     0.59991   0.10684   0.29339   0.01267  Uiso   1.00
C311   C     1.00009   0.46774   0.05938   0.01267  Uiso   1.00
C312   C     0.99996   0.47147   0.11059   0.01267  Uiso   1.00
C313   C     0.63053   0.12178   0.70665   0.01267  Uiso   1.00
C314   C     0.60043   0.09213   0.70662   0.01267  Uiso   1.00
C315   C     0.50016   0.45825   0.89542   0.01267  Uiso   1.00
C316   C     0.50004   0.46135   0.94693   0.01267  Uiso   1.00
C317   C     0.50014   0.41597   0.87626   0.01267  Uiso   1.00
C318   C     0.86965   0.37806   0.20665   0.01267  Uiso   1.00
C319   C     0.89977   0.40770   0.20662   0.01267  Uiso   1.00
C320   C     0.99963   0.04175   0.39542   0.01267  Uiso   1.00
C321   C     0.99970   0.03865   0.44693   0.01267  Uiso   1.00
C322   C     0.99943   0.08403   0.37626   0.01267  Uiso   1.00
C323   C     0.62985   0.13664   0.20665   0.01267  Uiso   1.00
C324   C     0.59991   0.10684   0.20661   0.01267  Uiso   1.00
C325   C     1.00009   0.46774   0.44062   0.01267  Uiso   1.00
C326   C     0.99996   0.47147   0.38941   0.01267  Uiso   1.00
C327   C     0.87002   0.36352   0.70665   0.01267  Uiso   1.00
C328   C     0.89994   0.39334   0.70662   0.01267  Uiso   1.00
C329   C     0.50030   0.03226   0.94062   0.01267  Uiso   1.00
C330   C     0.50038   0.02853   0.88941   0.01267  Uiso   1.00
C331   C     0.86965   0.37806   0.29335   0.01267  Uiso   1.00
C332   C     0.89977   0.40770   0.29338   0.01267  Uiso   1.00
C333   C     0.99963   0.04175   0.10458   0.01267  Uiso   1.00
C334   C     0.99970   0.03865   0.05307   0.01267  Uiso   1.00
C335   C     0.99943   0.08403   0.12374   0.01267  Uiso   1.00
C336   C     0.63053   0.12178   0.79335   0.01267  Uiso   1.00
C337   C     0.60043   0.09213   0.79338   0.01267  Uiso   1.00
C338   C     0.50016   0.45825   0.60458   0.01267  Uiso   1.00
C339   C     0.50004   0.46135   0.55307   0.01267  Uiso   1.00
C340   C     0.50014   0.41597   0.62374   0.01267  Uiso   1.00
C341   C     0.82468   0.17068   0.75000   0.01267  Uiso   1.00
C342   C     0.85609   0.13823   0.75000   0.01267  Uiso   1.00
C343   C     0.91614   0.07711   0.75000   0.01267  Uiso   1.00
C344   C     0.94789   0.04507   0.75000   0.01267  Uiso   1.00
C345   C     0.67606   0.31452   0.75000   0.01267  Uiso   1.00
C346   C     0.64470   0.34701   0.75000   0.01267  Uiso   1.00
C347   C     0.58501   0.40846   0.75000   0.01267  Uiso   1.00
C348   C     0.55329   0.44049   0.75000   0.01267  Uiso   1.00
C349   C     0.67545   0.32943   0.25000   0.01267  Uiso   1.00
C350   C     0.64408   0.36192   0.25000   0.01267  Uiso   1.00
C351   C     0.58407   0.42307   0.25000   0.01267  Uiso   1.00
C352   C     0.55229   0.45508   0.25000   0.01267  Uiso   1.00
C353   C     0.82387   0.18537   0.25000   0.01267  Uiso   1.00
C354   C     0.85519   0.15285   0.25000   0.01267  Uiso   1.00
C355   C     0.91484   0.09136   0.25000   0.01267  Uiso   1.00
C356   C     0.94660   0.05936   0.25000   0.01267  Uiso   1.00
C357   C     0.87118   0.12279   0.70665   0.01267  Uiso   1.00
C358   C     0.90080   0.09266   0.70662   0.01267  Uiso   1.00
C359   C     0.62970   0.36254   0.70665   0.01267  Uiso   1.00
C360   C     0.60027   0.39283   0.70662   0.01267  Uiso   1.00
C361   C     0.50009   0.49845   0.52828   0.01267  Uiso   1.00
C362   C     0.62900   0.37737   0.20665   0.01267  Uiso   1.00
C363   C     0.59941   0.40751   0.20662   0.01267  Uiso   1.00
C364   C     0.87017   0.13730   0.20665   0.01267  Uiso   1.00
C365   C     0.89958   0.10699   0.20662   0.01267  Uiso   1.00
C366   C     0.99996   0.00155   0.02828   0.01267  Uiso   1.00
C367   C     0.87118   0.12278   0.79335   0.01267  Uiso   1.00
C368   C     0.90080   0.09266   0.79338   0.01267  Uiso   1.00
C369   C     0.62970   0.36254   0.79335   0.01267  Uiso   1.00
C370   C     0.60027   0.39283   0.79338   0.01267  Uiso   1.00
C371   C     0.50009   0.49845   0.97172   0.01267  Uiso   1.00
C372   C     0.62900   0.37737   0.29335   0.01267  Uiso   1.00
C373   C     0.59941   0.40751   0.29338   0.01267  Uiso   1.00
C374   C     0.87017   0.13730   0.29335   0.01267  Uiso   1.00
C375   C     0.89958   0.10699   0.29338   0.01267  Uiso   1.00
C376   C     0.99996   0.00155   0.47172   0.01267  Uiso   1.00
C377   C     0.83575   0.20921   0.75000   0.01267  Uiso   1.00
C378   C     0.87733   0.22271   0.75000   0.01267  Uiso   1.00
C379   C     0.87607   0.26199   0.75000   0.01267  Uiso   1.00
C380   C     0.83379   0.27423   0.75000   0.01267  Uiso   1.00
C381   C     0.82227   0.31691   0.75000   0.01267  Uiso   1.00
C382   C     0.78376   0.32797   0.75000   0.01267  Uiso   1.00
C383   C     0.77030   0.36955   0.75000   0.01267  Uiso   1.00
C384   C     0.73103   0.36830   0.75000   0.01267  Uiso   1.00
C385   C     0.71874   0.32602   0.75000   0.01267  Uiso   1.00
C386   C     0.85468   0.34834   0.75000   0.01267  Uiso   1.00
C387   C     0.91535   0.40881   0.75000   0.01267  Uiso   1.00
C388   C     0.94726   0.44065   0.75000   0.01267  Uiso   1.00
C389   C     0.66433   0.29091   0.25000   0.01267  Uiso   1.00
C390   C     0.62273   0.27747   0.25000   0.01267  Uiso   1.00
C391   C     0.62394   0.23819   0.25000   0.01267  Uiso   1.00
C392   C     0.66620   0.22588   0.25000   0.01267  Uiso   1.00
C393   C     0.67765   0.18319   0.25000   0.01267  Uiso   1.00
C394   C     0.71615   0.17207   0.25000   0.01267  Uiso   1.00
C395   C     0.72956   0.13048   0.25000   0.01267  Uiso   1.00
C396   C     0.76883   0.13168   0.25000   0.01267  Uiso   1.00
C397   C     0.78117   0.17394   0.25000   0.01267  Uiso   1.00
C398   C     0.64520   0.15180   0.25000   0.01267  Uiso   1.00
C399   C     0.58450   0.09137   0.25000   0.01267  Uiso   1.00
C400   C     0.55262   0.05950   0.25000   0.01267  Uiso   1.00
C401   C     0.78198   0.15917   0.75000   0.01267  Uiso   1.00
C402   C     0.76970   0.11689   0.75000   0.01267  Uiso   1.00
C403   C     0.73042   0.11564   0.75000   0.01267  Uiso   1.00
C404   C     0.71695   0.15721   0.75000   0.01267  Uiso   1.00
C405   C     0.67843   0.16828   0.75000   0.01267  Uiso   1.00
C406   C     0.66692   0.21096   0.75000   0.01267  Uiso   1.00
C407   C     0.62465   0.22323   0.75000   0.01267  Uiso   1.00
C408   C     0.62340   0.26251   0.75000   0.01267  Uiso   1.00
C409   C     0.66498   0.27600   0.75000   0.01267  Uiso   1.00
C410   C     0.64597   0.13687   0.75000   0.01267  Uiso   1.00
C411   C     0.58492   0.07674   0.75000   0.01267  Uiso   1.00
C412   C     0.55296   0.04492   0.75000   0.01267  Uiso   1.00
C413   C     0.71816   0.34088   0.25000   0.01267  Uiso   1.00
C414   C     0.73051   0.38313   0.25000   0.01267  Uiso   1.00
C415   C     0.76979   0.38434   0.25000   0.01267  Uiso   1.00
C416   C     0.78320   0.34274   0.25000   0.01267  Uiso   1.00
C417   C     0.82170   0.33162   0.25000   0.01267  Uiso   1.00
C418   C     0.83315   0.28892   0.25000   0.01267  Uiso   1.00
C419   C     0.87541   0.27659   0.25000   0.01267  Uiso   1.00
C420   C     0.87660   0.23731   0.25000   0.01267  Uiso   1.00
C421   C     0.83501   0.22388   0.25000   0.01267  Uiso   1.00
C422   C     0.85420   0.36298   0.25000   0.01267  Uiso   1.00
C423   C     0.91529   0.42308   0.25000   0.01267  Uiso   1.00
C424   C     0.94722   0.45494   0.25000   0.01267  Uiso   1.00
N425   N     0.50030   0.49213   0.63390   0.01267  Uiso   1.00
N426   N     0.99974   0.00787   0.13390   0.01267  Uiso   1.00
N427   N     0.50030   0.49213   0.86609   0.01267  Uiso   1.00
N428   N     0.99974   0.00787   0.36609   0.01267  Uiso   1.00
N429   N     0.80945   0.24336   0.75000   0.01267  Uiso   1.00
N430   N     0.74959   0.30168   0.75000   0.01267  Uiso   1.00
N431   N     0.69058   0.25672   0.25000   0.01267  Uiso   1.00
N432   N     0.75035   0.19832   0.25000   0.01267  Uiso   1.00
N433   N     0.75113   0.18351   0.75000   0.01267  Uiso   1.00
N434   N     0.69127   0.24183   0.75000   0.01267  Uiso   1.00
N435   N     0.74899   0.31649   0.25000   0.01267  Uiso   1.00
N436   N     0.80876   0.25809   0.25000   0.01267  Uiso   1.00
O437   O     0.96098   0.45428   0.78982   0.01267  Uiso   1.00
O438   O     0.53893   0.04585   0.28982   0.01267  Uiso   1.00
O439   O     0.53929   0.03126   0.70999   0.01267  Uiso   1.00
O440   O     0.96087   0.46861   0.20999   0.01267  Uiso   1.00
O441   O     0.53893   0.04585   0.21018   0.01267  Uiso   1.00
O442   O     0.96098   0.45428   0.71018   0.01267  Uiso   1.00
O443   O     0.96087   0.46861   0.29001   0.01267  Uiso   1.00
O444   O     0.53929   0.03126   0.79001   0.01267  Uiso   1.00
O445   O     0.96150   0.03136   0.71000   0.01267  Uiso   1.00
O446   O     0.53961   0.45417   0.71018   0.01267  Uiso   1.00
O447   O     0.53865   0.46876   0.21000   0.01267  Uiso   1.00
O448   O     0.96030   0.04571   0.21018   0.01267  Uiso   1.00
O449   O     0.96150   0.03136   0.79000   0.01267  Uiso   1.00
O450   O     0.53961   0.45417   0.78982   0.01267  Uiso   1.00
O451   O     0.53865   0.46876   0.29000   0.01267  Uiso   1.00
O452   O     0.96030   0.04571   0.28982   0.01267  Uiso   1.00
Co453  Co    0.25036   0.74259   0.74999   0.01267  Uiso   1.00
Co454  Co    0.24966   0.75741   0.24999   0.01267  Uiso   1.00
Co455  Co    0.00034   0.99253   0.70779   0.01267  Uiso   1.00
Co456  Co    0.49969   0.50747   0.20779   0.01267  Uiso   1.00
Co457  Co    0.00034   0.99252   0.79221   0.01267  Uiso   1.00
Co458  Co    0.49969   0.50747   0.29221   0.01267  Uiso   1.00
H459   H     0.35869   0.85232   0.82724   0.01267  Uiso   1.00
H460   H     0.41095   0.90435   0.82750   0.01267  Uiso   1.00
H461   H     0.50038   0.56228   0.54492   0.01267  Uiso   1.00
H462   H     0.00049   0.55578   0.63171   0.01267  Uiso   1.00
H463   H     0.14004   0.64898   0.32724   0.01267  Uiso   1.00
H464   H     0.08864   0.59610   0.32750   0.01267  Uiso   1.00
H465   H     0.00029   0.93772   0.04493   0.01267  Uiso   1.00
H466   H     0.50004   0.94422   0.13171   0.01267  Uiso   1.00
H467   H     0.14191   0.63294   0.67276   0.01267  Uiso   1.00
H468   H     0.08935   0.58121   0.67250   0.01267  Uiso   1.00
H469   H    -0.00016   0.93378   0.96726   0.01267  Uiso   1.00
H470   H     0.00025   0.91314   0.83715   0.01267  Uiso   1.00
H471   H     0.02703   0.89995   0.88978   0.01267  Uiso   1.00
H472   H     0.47298   0.90006   0.88949   0.01267  Uiso   1.00
H473   H     0.35941   0.86577   0.17276   0.01267  Uiso   1.00
H474   H     0.41112   0.91836   0.17250   0.01267  Uiso   1.00
H475   H     0.49952   0.56622   0.46727   0.01267  Uiso   1.00
H476   H     0.49950   0.58686   0.33715   0.01267  Uiso   1.00
H477   H     0.47222   0.59980   0.38953   0.01267  Uiso   1.00
H478   H     0.02627   0.60018   0.38974   0.01267  Uiso   1.00
H479   H     0.14004   0.64898   0.17276   0.01267  Uiso   1.00
H480   H     0.08864   0.59610   0.17250   0.01267  Uiso   1.00
H481   H     0.00029   0.93772   0.45507   0.01267  Uiso   1.00
H482   H     0.50004   0.94422   0.36829   0.01267  Uiso   1.00
H483   H     0.35869   0.85232   0.67276   0.01267  Uiso   1.00
H484   H     0.41095   0.90435   0.67250   0.01267  Uiso   1.00
H485   H     0.50038   0.56228   0.95508   0.01267  Uiso   1.00
H486   H     0.00049   0.55578   0.86829   0.01267  Uiso   1.00
H487   H     0.35941   0.86577   0.32724   0.01267  Uiso   1.00
H488   H     0.41112   0.91836   0.32750   0.01267  Uiso   1.00
H489   H     0.49952   0.56622   0.03273   0.01267  Uiso   1.00
H490   H     0.49950   0.58686   0.16285   0.01267  Uiso   1.00
H491   H     0.47222   0.59980   0.11047   0.01267  Uiso   1.00
H492   H     0.02626   0.60018   0.11026   0.01267  Uiso   1.00
H493   H     0.14191   0.63294   0.82724   0.01267  Uiso   1.00
H494   H     0.08935   0.58121   0.82750   0.01267  Uiso   1.00
H495   H    -0.00016   0.93378   0.53274   0.01267  Uiso   1.00
H496   H     0.00025   0.91314   0.66285   0.01267  Uiso   1.00
H497   H     0.02703   0.89995   0.61022   0.01267  Uiso   1.00
H498   H     0.47298   0.90006   0.61051   0.01267  Uiso   1.00
H499   H     0.36006   0.63417   0.67276   0.01267  Uiso   1.00
H500   H     0.41174   0.58158   0.67250   0.01267  Uiso   1.00
H501   H     0.14079   0.85112   0.67276   0.01267  Uiso   1.00
H502   H     0.08940   0.90398   0.67251   0.01267  Uiso   1.00
H503   H     0.14126   0.86713   0.17276   0.01267  Uiso   1.00
H504   H     0.08873   0.91886   0.17250   0.01267  Uiso   1.00
H505   H     0.35793   0.64757   0.17276   0.01267  Uiso   1.00
H506   H     0.41018   0.59557   0.17251   0.01267  Uiso   1.00
H507   H     0.36006   0.63416   0.82724   0.01267  Uiso   1.00
H508   H     0.41174   0.58158   0.82750   0.01267  Uiso   1.00
H509   H     0.14079   0.85112   0.82724   0.01267  Uiso   1.00
H510   H     0.08940   0.90398   0.82749   0.01267  Uiso   1.00
H511   H     0.14126   0.86713   0.32724   0.01267  Uiso   1.00
H512   H     0.08873   0.91886   0.32750   0.01267  Uiso   1.00
H513   H     0.35793   0.64758   0.32724   0.01267  Uiso   1.00
H514   H     0.41018   0.59557   0.32749   0.01267  Uiso   1.00
H515   H     0.40435   0.70470   0.75000   0.01267  Uiso   1.00
H516   H     0.40215   0.78134   0.75000   0.01267  Uiso   1.00
H517   H     0.28833   0.89658   0.75000   0.01267  Uiso   1.00
H518   H     0.21171   0.89439   0.75000   0.01267  Uiso   1.00
H519   H     0.09789   0.79615   0.25000   0.01267  Uiso   1.00
H520   H     0.09566   0.71951   0.25000   0.01267  Uiso   1.00
H521   H     0.21084   0.60564   0.25000   0.01267  Uiso   1.00
H522   H     0.28746   0.60339   0.25000   0.01267  Uiso   1.00
H523   H     0.28902   0.59081   0.75000   0.01267  Uiso   1.00
H524   H     0.21239   0.58861   0.75000   0.01267  Uiso   1.00
H525   H     0.09856   0.70389   0.75000   0.01267  Uiso   1.00
H526   H     0.09638   0.78053   0.75000   0.01267  Uiso   1.00
H527   H     0.21185   0.91141   0.25000   0.01267  Uiso   1.00
H528   H     0.28848   0.90918   0.25000   0.01267  Uiso   1.00
H529   H     0.40368   0.79526   0.25000   0.01267  Uiso   1.00
H530   H     0.40142   0.71863   0.25000   0.01267  Uiso   1.00
C531   C     0.37002   0.86351   0.79335   0.01267  Uiso   1.00
C532   C     0.39994   0.89333   0.79339   0.01267  Uiso   1.00
C533   C     0.00028   0.53228   0.55938   0.01267  Uiso   1.00
C534   C     0.00037   0.52855   0.61059   0.01267  Uiso   1.00
C535   C     0.12895   0.63755   0.29335   0.01267  Uiso   1.00
C536   C     0.09951   0.60725   0.29338   0.01267  Uiso   1.00
C537   C     0.50008   0.96772   0.05938   0.01267  Uiso   1.00
C538   C     0.49995   0.97145   0.11059   0.01267  Uiso   1.00
C539   C     0.13054   0.62179   0.70665   0.01267  Uiso   1.00
C540   C     0.10043   0.59214   0.70662   0.01267  Uiso   1.00
C541   C     0.00014   0.95827   0.89542   0.01267  Uiso   1.00
C542   C     0.00001   0.96136   0.94693   0.01267  Uiso   1.00
C543   C     0.00010   0.91598   0.87625   0.01267  Uiso   1.00
C544   C     0.37055   0.87716   0.20665   0.01267  Uiso   1.00
C545   C     0.40017   0.90728   0.20662   0.01267  Uiso   1.00
C546   C     0.49960   0.54173   0.39542   0.01267  Uiso   1.00
C547   C     0.49968   0.53864   0.44693   0.01267  Uiso   1.00
C548   C     0.49938   0.58402   0.37625   0.01267  Uiso   1.00
C549   C     0.12895   0.63755   0.20665   0.01267  Uiso   1.00
C550   C     0.09951   0.60725   0.20661   0.01267  Uiso   1.00
C551   C     0.50008   0.96772   0.44062   0.01267  Uiso   1.00
C552   C     0.49995   0.97145   0.38941   0.01267  Uiso   1.00
C553   C     0.37002   0.86351   0.70665   0.01267  Uiso   1.00
C554   C     0.39994   0.89333   0.70661   0.01267  Uiso   1.00
C555   C     0.00028   0.53228   0.94062   0.01267  Uiso   1.00
C556   C     0.00037   0.52855   0.88941   0.01267  Uiso   1.00
C557   C     0.37055   0.87716   0.29335   0.01267  Uiso   1.00
C558   C     0.40017   0.90728   0.29338   0.01267  Uiso   1.00
C559   C     0.49960   0.54173   0.10458   0.01267  Uiso   1.00
C560   C     0.49968   0.53864   0.05307   0.01267  Uiso   1.00
C561   C     0.49938   0.58402   0.12375   0.01267  Uiso   1.00
C562   C     0.13054   0.62179   0.79335   0.01267  Uiso   1.00
C563   C     0.10044   0.59214   0.79338   0.01267  Uiso   1.00
C564   C     0.00014   0.95827   0.60458   0.01267  Uiso   1.00
C565   C     0.00001   0.96136   0.55307   0.01267  Uiso   1.00
C566   C     0.00010   0.91598   0.62375   0.01267  Uiso   1.00
C567   C     0.32468   0.67067   0.75000   0.01267  Uiso   1.00
C568   C     0.35609   0.63822   0.75000   0.01267  Uiso   1.00
C569   C     0.41614   0.57709   0.75000   0.01267  Uiso   1.00
C570   C     0.44789   0.54506   0.75000   0.01267  Uiso   1.00
C571   C     0.17606   0.81453   0.75000   0.01267  Uiso   1.00
C572   C     0.14469   0.84701   0.75000   0.01267  Uiso   1.00
C573   C     0.08501   0.90847   0.75000   0.01267  Uiso   1.00
C574   C     0.05329   0.94050   0.75000   0.01267  Uiso   1.00
C575   C     0.17778   0.83176   0.25000   0.01267  Uiso   1.00
C576   C     0.14534   0.86319   0.25000   0.01267  Uiso   1.00
C577   C     0.08431   0.92332   0.25000   0.01267  Uiso   1.00
C578   C     0.05234   0.95514   0.25000   0.01267  Uiso   1.00
C579   C     0.32153   0.68304   0.25000   0.01267  Uiso   1.00
C580   C     0.35392   0.65158   0.25000   0.01267  Uiso   1.00
C581   C     0.41460   0.59111   0.25000   0.01267  Uiso   1.00
C582   C     0.44654   0.55929   0.25000   0.01267  Uiso   1.00
C583   C     0.37119   0.62278   0.70665   0.01267  Uiso   1.00
C584   C     0.40080   0.59265   0.70662   0.01267  Uiso   1.00
C585   C     0.12970   0.86255   0.70665   0.01267  Uiso   1.00
C586   C     0.10026   0.89283   0.70662   0.01267  Uiso   1.00
C587   C     0.00009   0.99846   0.52828   0.01267  Uiso   1.00
C588   C     0.12990   0.87828   0.20665   0.01267  Uiso   1.00
C589   C     0.09981   0.90793   0.20662   0.01267  Uiso   1.00
C590   C     0.36926   0.63639   0.20665   0.01267  Uiso   1.00
C591   C     0.39917   0.60657   0.20662   0.01267  Uiso   1.00
C592   C     0.49995   0.50154   0.02828   0.01267  Uiso   1.00
C593   C     0.37118   0.62278   0.79335   0.01267  Uiso   1.00
C594   C     0.40080   0.59265   0.79338   0.01267  Uiso   1.00
C595   C     0.12970   0.86255   0.79335   0.01267  Uiso   1.00
C596   C     0.10026   0.89283   0.79338   0.01267  Uiso   1.00
C597   C     0.00009   0.99846   0.97171   0.01267  Uiso   1.00
C598   C     0.12990   0.87828   0.29335   0.01267  Uiso   1.00
C599   C     0.09981   0.90793   0.29338   0.01267  Uiso   1.00
C600   C     0.36926   0.63639   0.29335   0.01267  Uiso   1.00
C601   C     0.39917   0.60657   0.29338   0.01267  Uiso   1.00
C602   C     0.49995   0.50154   0.47171   0.01267  Uiso   1.00
C603   C     0.33575   0.70920   0.75000   0.01267  Uiso   1.00
C604   C     0.37733   0.72271   0.75000   0.01267  Uiso   1.00
C605   C     0.37607   0.76198   0.75000   0.01267  Uiso   1.00
C606   C     0.33379   0.77423   0.75000   0.01267  Uiso   1.00
C607   C     0.32227   0.81691   0.75000   0.01267  Uiso   1.00
C608   C     0.28376   0.82797   0.75000   0.01267  Uiso   1.00
C609   C     0.27030   0.86955   0.75000   0.01267  Uiso   1.00
C610   C     0.23103   0.86830   0.75000   0.01267  Uiso   1.00
C611   C     0.21874   0.82602   0.75000   0.01267  Uiso   1.00
C612   C     0.35468   0.84834   0.75000   0.01267  Uiso   1.00
C613   C     0.41535   0.90880   0.75000   0.01267  Uiso   1.00
C614   C     0.44726   0.94064   0.75000   0.01267  Uiso   1.00
C615   C     0.16625   0.78907   0.25000   0.01267  Uiso   1.00
C616   C     0.12396   0.77681   0.25000   0.01267  Uiso   1.00
C617   C     0.12269   0.73753   0.25000   0.01267  Uiso   1.00
C618   C     0.16426   0.72405   0.25000   0.01267  Uiso   1.00
C619   C     0.17532   0.68553   0.25000   0.01267  Uiso   1.00
C620   C     0.21798   0.67400   0.25000   0.01267  Uiso   1.00
C621   C     0.23020   0.63172   0.25000   0.01267  Uiso   1.00
C622   C     0.26947   0.63043   0.25000   0.01267  Uiso   1.00
C623   C     0.28300   0.67200   0.25000   0.01267  Uiso   1.00
C624   C     0.14394   0.65307   0.25000   0.01267  Uiso   1.00
C625   C     0.08427   0.59162   0.25000   0.01267  Uiso   1.00
C626   C     0.05258   0.55956   0.25000   0.01267  Uiso   1.00
C627   C     0.28198   0.65917   0.75000   0.01267  Uiso   1.00
C628   C     0.26970   0.61689   0.75000   0.01267  Uiso   1.00
C629   C     0.23042   0.61564   0.75000   0.01267  Uiso   1.00
C630   C     0.21695   0.65721   0.75000   0.01267  Uiso   1.00
C631   C     0.17843   0.66828   0.75000   0.01267  Uiso   1.00
C632   C     0.16692   0.71097   0.75000   0.01267  Uiso   1.00
C633   C     0.12465   0.72323   0.75000   0.01267  Uiso   1.00
C634   C     0.12340   0.76251   0.75000   0.01267  Uiso   1.00
C635   C     0.16498   0.77600   0.75000   0.01267  Uiso   1.00
C636   C     0.14598   0.63688   0.75000   0.01267  Uiso   1.00
C637   C     0.08492   0.57676   0.75000   0.01267  Uiso   1.00
C638   C     0.05296   0.54493   0.75000   0.01267  Uiso   1.00
C639   C     0.21632   0.84281   0.25000   0.01267  Uiso   1.00
C640   C     0.22984   0.88438   0.25000   0.01267  Uiso   1.00
C641   C     0.26912   0.88310   0.25000   0.01267  Uiso   1.00
C642   C     0.28135   0.84082   0.25000   0.01267  Uiso   1.00
C643   C     0.32403   0.82928   0.25000   0.01267  Uiso   1.00
C644   C     0.33507   0.79076   0.25000   0.01267  Uiso   1.00
C645   C     0.37664   0.77725   0.25000   0.01267  Uiso   1.00
C646   C     0.37535   0.73798   0.25000   0.01267  Uiso   1.00
C647   C     0.33307   0.72572   0.25000   0.01267  Uiso   1.00
C648   C     0.35545   0.86172   0.25000   0.01267  Uiso   1.00
C649   C     0.41552   0.92283   0.25000   0.01267  Uiso   1.00
C650   C     0.44727   0.95487   0.25000   0.01267  Uiso   1.00
N651   N     0.00030   0.99214   0.63391   0.01267  Uiso   1.00
N652   N     0.49973   0.50786   0.13391   0.01267  Uiso   1.00
N653   N     0.00030   0.99214   0.86609   0.01267  Uiso   1.00
N654   N     0.49973   0.50786   0.36609   0.01267  Uiso   1.00
N655   N     0.30945   0.74336   0.75000   0.01267  Uiso   1.00
N656   N     0.24959   0.80168   0.75000   0.01267  Uiso   1.00
N657   N     0.19057   0.75821   0.25000   0.01267  Uiso   1.00
N658   N     0.24886   0.69832   0.25000   0.01267  Uiso   1.00
N659   N     0.25113   0.68351   0.75000   0.01267  Uiso   1.00
N660   N     0.19127   0.74183   0.75000   0.01267  Uiso   1.00
N661   N     0.25046   0.81649   0.25000   0.01267  Uiso   1.00
N662   N     0.30875   0.75660   0.25000   0.01267  Uiso   1.00
O663   O     0.46098   0.95426   0.78982   0.01267  Uiso   1.00
O664   O     0.03892   0.54587   0.28982   0.01267  Uiso   1.00
O665   O     0.03929   0.53128   0.70999   0.01267  Uiso   1.00
O666   O     0.46088   0.96859   0.20999   0.01267  Uiso   1.00
O667   O     0.03892   0.54587   0.21018   0.01267  Uiso   1.00
O668   O     0.46098   0.95426   0.71018   0.01267  Uiso   1.00
O669   O     0.46088   0.96859   0.29001   0.01267  Uiso   1.00
O670   O     0.03929   0.53128   0.79001   0.01267  Uiso   1.00
O671   O     0.46150   0.53135   0.71000   0.01267  Uiso   1.00
O672   O     0.03961   0.95418   0.71018   0.01267  Uiso   1.00
O673   O     0.03866   0.96879   0.21000   0.01267  Uiso   1.00
O674   O     0.46028   0.54568   0.21018   0.01267  Uiso   1.00
O675   O     0.46150   0.53135   0.79000   0.01267  Uiso   1.00
O676   O     0.03961   0.95418   0.78982   0.01267  Uiso   1.00
O677   O     0.03866   0.96879   0.29000   0.01267  Uiso   1.00
O678   O     0.46028   0.54568   0.28982   0.01267  Uiso   1.00
Co679  Co    0.75036   0.74259   0.75000   0.01267  Uiso   1.00
Co680  Co    0.74966   0.75741   0.24999   0.01267  Uiso   1.00
Co681  Co    0.50034   0.99251   0.70779   0.01267  Uiso   1.00
Co682  Co    0.99969   0.50749   0.20779   0.01267  Uiso   1.00
Co683  Co    0.50034   0.99251   0.79221   0.01267  Uiso   1.00
Co684  Co    0.99969   0.50749   0.29221   0.01267  Uiso   1.00
H685   H     0.85868   0.85232   0.82724   0.01267  Uiso   1.00
H686   H     0.91094   0.90435   0.82750   0.01267  Uiso   1.00
H687   H     1.00038   0.56230   0.54492   0.01267  Uiso   1.00
H688   H     0.50049   0.55576   0.63171   0.01267  Uiso   1.00
H689   H     0.64004   0.64897   0.32724   0.01267  Uiso   1.00
H690   H     0.58864   0.59609   0.32750   0.01267  Uiso   1.00
H691   H     0.50029   0.93770   0.04492   0.01267  Uiso   1.00
H692   H     1.00004   0.94424   0.13171   0.01267  Uiso   1.00
H693   H     0.64191   0.63293   0.67276   0.01267  Uiso   1.00
H694   H     0.58935   0.58119   0.67250   0.01267  Uiso   1.00
H695   H     0.49984   0.93377   0.96726   0.01267  Uiso   1.00
H696   H     0.50025   0.91313   0.83714   0.01267  Uiso   1.00
H697   H     0.52703   0.89994   0.88978   0.01267  Uiso   1.00
H698   H     0.97298   0.90008   0.88949   0.01267  Uiso   1.00
H699   H     0.85941   0.86578   0.17276   0.01267  Uiso   1.00
H700   H     0.91112   0.91837   0.17250   0.01267  Uiso   1.00
H701   H     0.99952   0.56623   0.46726   0.01267  Uiso   1.00
H702   H     0.99950   0.58687   0.33714   0.01267  Uiso   1.00
H703   H     0.97222   0.59981   0.38953   0.01267  Uiso   1.00
H704   H     0.52627   0.60017   0.38974   0.01267  Uiso   1.00
H705   H     0.64004   0.64897   0.17276   0.01267  Uiso   1.00
H706   H     0.58864   0.59609   0.17250   0.01267  Uiso   1.00
H707   H     0.50029   0.93770   0.45508   0.01267  Uiso   1.00
H708   H     1.00004   0.94424   0.36829   0.01267  Uiso   1.00
H709   H     0.85868   0.85232   0.67276   0.01267  Uiso   1.00
H710   H     0.91094   0.90435   0.67250   0.01267  Uiso   1.00
H711   H     1.00038   0.56230   0.95508   0.01267  Uiso   1.00
H712   H     0.50049   0.55576   0.86829   0.01267  Uiso   1.00
H713   H     0.85941   0.86578   0.32724   0.01267  Uiso   1.00
H714   H     0.91112   0.91837   0.32750   0.01267  Uiso   1.00
H715   H     0.99952   0.56623   0.03274   0.01267  Uiso   1.00
H716   H     0.99950   0.58687   0.16286   0.01267  Uiso   1.00
H717   H     0.97222   0.59981   0.11047   0.01267  Uiso   1.00
H718   H     0.52627   0.60017   0.11025   0.01267  Uiso   1.00
H719   H     0.64191   0.63293   0.82724   0.01267  Uiso   1.00
H720   H     0.58935   0.58119   0.82750   0.01267  Uiso   1.00
H721   H     0.49984   0.93377   0.53274   0.01267  Uiso   1.00
H722   H     0.50025   0.91313   0.66286   0.01267  Uiso   1.00
H723   H     0.52703   0.89994   0.61022   0.01267  Uiso   1.00
H724   H     0.97298   0.90008   0.61051   0.01267  Uiso   1.00
H725   H     0.86006   0.63417   0.67276   0.01267  Uiso   1.00
H726   H     0.91174   0.58159   0.67250   0.01267  Uiso   1.00
H727   H     0.64079   0.85111   0.67276   0.01267  Uiso   1.00
H728   H     0.58940   0.90397   0.67251   0.01267  Uiso   1.00
H729   H     0.64127   0.86712   0.17276   0.01267  Uiso   1.00
H730   H     0.58873   0.91884   0.17250   0.01267  Uiso   1.00
H731   H     0.85794   0.64758   0.17276   0.01267  Uiso   1.00
H732   H     0.91018   0.59558   0.17251   0.01267  Uiso   1.00
H733   H     0.86006   0.63417   0.82724   0.01267  Uiso   1.00
H734   H     0.91174   0.58159   0.82750   0.01267  Uiso   1.00
H735   H     0.64079   0.85111   0.82724   0.01267  Uiso   1.00
H736   H     0.58940   0.90397   0.82749   0.01267  Uiso   1.00
H737   H     0.64127   0.86712   0.32724   0.01267  Uiso   1.00
H738   H     0.58873   0.91885   0.32750   0.01267  Uiso   1.00
H739   H     0.85794   0.64758   0.32724   0.01267  Uiso   1.00
H740   H     0.91018   0.59558   0.32749   0.01267  Uiso   1.00
H741   H     0.90435   0.70471   0.75000   0.01267  Uiso   1.00
H742   H     0.90215   0.78134   0.75000   0.01267  Uiso   1.00
H743   H     0.78832   0.89658   0.75000   0.01267  Uiso   1.00
H744   H     0.71170   0.89438   0.75000   0.01267  Uiso   1.00
H745   H     0.59789   0.79614   0.25000   0.01267  Uiso   1.00
H746   H     0.59566   0.71950   0.25000   0.01267  Uiso   1.00
H747   H     0.71085   0.60564   0.25000   0.01267  Uiso   1.00
H748   H     0.78747   0.60340   0.25000   0.01267  Uiso   1.00
H749   H     0.78902   0.59081   0.75000   0.01267  Uiso   1.00
H750   H     0.71239   0.58861   0.75000   0.01267  Uiso   1.00
H751   H     0.59856   0.70389   0.75000   0.01267  Uiso   1.00
H752   H     0.59638   0.78052   0.75000   0.01267  Uiso   1.00
H753   H     0.71184   0.91141   0.25000   0.01267  Uiso   1.00
H754   H     0.78847   0.90918   0.25000   0.01267  Uiso   1.00
H755   H     0.90368   0.79527   0.25000   0.01267  Uiso   1.00
H756   H     0.90142   0.71863   0.25000   0.01267  Uiso   1.00
C757   C     0.87002   0.86352   0.79335   0.01267  Uiso   1.00
C758   C     0.89993   0.89334   0.79338   0.01267  Uiso   1.00
C759   C     0.50028   0.53226   0.55938   0.01267  Uiso   1.00
C760   C     0.50037   0.52853   0.61059   0.01267  Uiso   1.00
C761   C     0.62895   0.63754   0.29335   0.01267  Uiso   1.00
C762   C     0.59951   0.60724   0.29338   0.01267  Uiso   1.00
C763   C     1.00007   0.96774   0.05938   0.01267  Uiso   1.00
C764   C     0.99995   0.97147   0.11059   0.01267  Uiso   1.00
C765   C     0.63053   0.62178   0.70665   0.01267  Uiso   1.00
C766   C     0.60043   0.59213   0.70662   0.01267  Uiso   1.00
C767   C     0.50014   0.95826   0.89542   0.01267  Uiso   1.00
C768   C     0.50001   0.96135   0.94693   0.01267  Uiso   1.00
C769   C     0.50010   0.91597   0.87625   0.01267  Uiso   1.00
C770   C     0.87055   0.87717   0.20665   0.01267  Uiso   1.00
C771   C     0.90018   0.90729   0.20662   0.01267  Uiso   1.00
C772   C     0.99960   0.54174   0.39542   0.01267  Uiso   1.00
C773   C     0.99968   0.53865   0.44693   0.01267  Uiso   1.00
C774   C     0.99938   0.58403   0.37625   0.01267  Uiso   1.00
C775   C     0.62895   0.63754   0.20665   0.01267  Uiso   1.00
C776   C     0.59951   0.60724   0.20662   0.01267  Uiso   1.00
C777   C     1.00007   0.96774   0.44062   0.01267  Uiso   1.00
C778   C     0.99995   0.97147   0.38941   0.01267  Uiso   1.00
C779   C     0.87002   0.86352   0.70665   0.01267  Uiso   1.00
C780   C     0.89993   0.89334   0.70661   0.01267  Uiso   1.00
C781   C     0.50028   0.53226   0.94062   0.01267  Uiso   1.00
C782   C     0.50037   0.52853   0.88941   0.01267  Uiso   1.00
C783   C     0.87055   0.87717   0.29335   0.01267  Uiso   1.00
C784   C     0.90017   0.90729   0.29338   0.01267  Uiso   1.00
C785   C     0.99960   0.54174   0.10458   0.01267  Uiso   1.00
C786   C     0.99968   0.53865   0.05307   0.01267  Uiso   1.00
C787   C     0.99938   0.58403   0.12375   0.01267  Uiso   1.00
C788   C     0.63053   0.62178   0.79335   0.01267  Uiso   1.00
C789   C     0.60043   0.59213   0.79338   0.01267  Uiso   1.00
C790   C     0.50014   0.95826   0.60458   0.01267  Uiso   1.00
C791   C     0.50001   0.96135   0.55307   0.01267  Uiso   1.00
C792   C     0.50010   0.91597   0.62375   0.01267  Uiso   1.00
C793   C     0.82468   0.67067   0.75000   0.01267  Uiso   1.00
C794   C     0.85609   0.63822   0.75000   0.01267  Uiso   1.00
C795   C     0.91614   0.57711   0.75000   0.01267  Uiso   1.00
C796   C     0.94789   0.54507   0.75000   0.01267  Uiso   1.00
C797   C     0.67605   0.81452   0.75000   0.01267  Uiso   1.00
C798   C     0.64469   0.84701   0.75000   0.01267  Uiso   1.00
C799   C     0.58501   0.90846   0.75000   0.01267  Uiso   1.00
C800   C     0.55329   0.94049   0.75000   0.01267  Uiso   1.00
C801   C     0.67778   0.83176   0.25000   0.01267  Uiso   1.00
C802   C     0.64534   0.86318   0.25000   0.01267  Uiso   1.00
C803   C     0.58431   0.92331   0.25000   0.01267  Uiso   1.00
C804   C     0.55234   0.95512   0.25000   0.01267  Uiso   1.00
C805   C     0.82153   0.68304   0.25000   0.01267  Uiso   1.00
C806   C     0.85392   0.65159   0.25000   0.01267  Uiso   1.00
C807   C     0.91460   0.59112   0.25000   0.01267  Uiso   1.00
C808   C     0.94654   0.55930   0.25000   0.01267  Uiso   1.00
C809   C     0.87118   0.62278   0.70665   0.01267  Uiso   1.00
C810   C     0.90080   0.59266   0.70662   0.01267  Uiso   1.00
C811   C     0.62970   0.86254   0.70665   0.01267  Uiso   1.00
C812   C     0.60026   0.89283   0.70662   0.01267  Uiso   1.00
C813   C     0.50009   0.99845   0.52828   0.01267  Uiso   1.00
C814   C     0.62990   0.87827   0.20665   0.01267  Uiso   1.00
C815   C     0.59981   0.90792   0.20662   0.01267  Uiso   1.00
C816   C     0.86926   0.63640   0.20665   0.01267  Uiso   1.00
C817   C     0.89918   0.60658   0.20662   0.01267  Uiso   1.00
C818   C     0.99995   0.50155   0.02828   0.01267  Uiso   1.00
C819   C     0.87118   0.62278   0.79335   0.01267  Uiso   1.00
C820   C     0.90080   0.59266   0.79338   0.01267  Uiso   1.00
C821   C     0.62970   0.86254   0.79335   0.01267  Uiso   1.00
C822   C     0.60026   0.89283   0.79338   0.01267  Uiso   1.00
C823   C     0.50009   0.99845   0.97172   0.01267  Uiso   1.00
C824   C     0.62990   0.87827   0.29335   0.01267  Uiso   1.00
C825   C     0.59981   0.90792   0.29338   0.01267  Uiso   1.00
C826   C     0.86926   0.63640   0.29335   0.01267  Uiso   1.00
C827   C     0.89918   0.60658   0.29338   0.01267  Uiso   1.00
C828   C     0.99996   0.50155   0.47172   0.01267  Uiso   1.00
C829   C     0.83575   0.70920   0.75000   0.01267  Uiso   1.00
C830   C     0.87732   0.72271   0.75000   0.01267  Uiso   1.00
C831   C     0.87606   0.76199   0.75000   0.01267  Uiso   1.00
C832   C     0.83379   0.77423   0.75000   0.01267  Uiso   1.00
C833   C     0.82227   0.81691   0.75000   0.01267  Uiso   1.00
C834   C     0.78376   0.82797   0.75000   0.01267  Uiso   1.00
C835   C     0.77029   0.86955   0.75000   0.01267  Uiso   1.00
C836   C     0.73102   0.86830   0.75000   0.01267  Uiso   1.00
C837   C     0.71874   0.82602   0.75000   0.01267  Uiso   1.00
C838   C     0.85468   0.84834   0.75000   0.01267  Uiso   1.00
C839   C     0.91534   0.90881   0.75000   0.01267  Uiso   1.00
C840   C     0.94725   0.94065   0.75000   0.01267  Uiso   1.00
C841   C     0.66625   0.78907   0.25000   0.01267  Uiso   1.00
C842   C     0.62397   0.77680   0.25000   0.01267  Uiso   1.00
C843   C     0.62269   0.73753   0.25000   0.01267  Uiso   1.00
C844   C     0.66426   0.72404   0.25000   0.01267  Uiso   1.00
C845   C     0.67532   0.68553   0.25000   0.01267  Uiso   1.00
C846   C     0.71798   0.67400   0.25000   0.01267  Uiso   1.00
C847   C     0.73021   0.63172   0.25000   0.01267  Uiso   1.00
C848   C     0.76948   0.63044   0.25000   0.01267  Uiso   1.00
C849   C     0.78300   0.67200   0.25000   0.01267  Uiso   1.00
C850   C     0.64394   0.65306   0.25000   0.01267  Uiso   1.00
C851   C     0.58427   0.59161   0.25000   0.01267  Uiso   1.00
C852   C     0.55258   0.55955   0.25000   0.01267  Uiso   1.00
C853   C     0.78198   0.65917   0.75000   0.01267  Uiso   1.00
C854   C     0.76970   0.61689   0.75000   0.01267  Uiso   1.00
C855   C     0.73042   0.61563   0.75000   0.01267  Uiso   1.00
C856   C     0.71695   0.65721   0.75000   0.01267  Uiso   1.00
C857   C     0.67843   0.66828   0.75000   0.01267  Uiso   1.00
C858   C     0.66692   0.71096   0.75000   0.01267  Uiso   1.00
C859   C     0.62465   0.72323   0.75000   0.01267  Uiso   1.00
C860   C     0.62340   0.76251   0.75000   0.01267  Uiso   1.00
C861   C     0.66497   0.77600   0.75000   0.01267  Uiso   1.00
C862   C     0.64597   0.63687   0.75000   0.01267  Uiso   1.00
C863   C     0.58492   0.57674   0.75000   0.01267  Uiso   1.00
C864   C     0.55296   0.54491   0.75000   0.01267  Uiso   1.00
C865   C     0.71632   0.84281   0.25000   0.01267  Uiso   1.00
C866   C     0.72984   0.88438   0.25000   0.01267  Uiso   1.00
C867   C     0.76912   0.88310   0.25000   0.01267  Uiso   1.00
C868   C     0.78135   0.84082   0.25000   0.01267  Uiso   1.00
C869   C     0.82403   0.82929   0.25000   0.01267  Uiso   1.00
C870   C     0.83508   0.79076   0.25000   0.01267  Uiso   1.00
C871   C     0.87664   0.77726   0.25000   0.01267  Uiso   1.00
C872   C     0.87536   0.73798   0.25000   0.01267  Uiso   1.00
C873   C     0.83307   0.72573   0.25000   0.01267  Uiso   1.00
C874   C     0.85546   0.86173   0.25000   0.01267  Uiso   1.00
C875   C     0.91552   0.92285   0.25000   0.01267  Uiso   1.00
C876   C     0.94727   0.95489   0.25000   0.01267  Uiso   1.00
N877   N     0.50030   0.99213   0.63391   0.01267  Uiso   1.00
N878   N     0.99973   0.50787   0.13391   0.01267  Uiso   1.00
N879   N     0.50030   0.99213   0.86609   0.01267  Uiso   1.00
N880   N     0.99973   0.50787   0.36609   0.01267  Uiso   1.00
N881   N     0.80945   0.74336   0.75000   0.01267  Uiso   1.00
N882   N     0.74959   0.80167   0.75000   0.01267  Uiso   1.00
N883   N     0.69058   0.75821   0.25000   0.01267  Uiso   1.00
N884   N     0.74886   0.69833   0.25000   0.01267  Uiso   1.00
N885   N     0.75112   0.68351   0.75000   0.01267  Uiso   1.00
N886   N     0.69127   0.74183   0.75000   0.01267  Uiso   1.00
N887   N     0.75047   0.81649   0.25000   0.01267  Uiso   1.00
N888   N     0.80875   0.75660   0.25000   0.01267  Uiso   1.00
O889   O     0.96098   0.95427   0.78982   0.01267  Uiso   1.00
O890   O     0.53892   0.54586   0.28982   0.01267  Uiso   1.00
O891   O     0.53929   0.53126   0.70999   0.01267  Uiso   1.00
O892   O     0.96088   0.96861   0.20999   0.01267  Uiso   1.00
O893   O     0.53892   0.54586   0.21018   0.01267  Uiso   1.00
O894   O     0.96098   0.95427   0.71018   0.01267  Uiso   1.00
O895   O     0.96088   0.96861   0.29001   0.01267  Uiso   1.00
O896   O     0.53929   0.53126   0.79001   0.01267  Uiso   1.00
O897   O     0.96150   0.53136   0.71000   0.01267  Uiso   1.00
O898   O     0.53961   0.95417   0.71018   0.01267  Uiso   1.00
O899   O     0.53866   0.96877   0.21000   0.01267  Uiso   1.00
O900   O     0.96028   0.54569   0.21018   0.01267  Uiso   1.00
O901   O     0.96150   0.53136   0.79000   0.01267  Uiso   1.00
O902   O     0.53961   0.95417   0.78982   0.01267  Uiso   1.00
O903   O     0.53866   0.96877   0.29000   0.01267  Uiso   1.00
O904   O     0.96028   0.54569   0.28982   0.01267  Uiso   1.00
loop_
_geom_bond_atom_site_label_1
_geom_bond_atom_site_label_2
_geom_bond_distance
_geom_bond_site_symmetry_2
_ccdc_geom_bond_type
Co1    N203    1.969   .     S
Co1    N204    1.969   .     S
Co1    N207    1.970   .     S
Co1    N208    1.970   .     S
Co2    N205    1.970   .     S
Co2    N206    1.969   .     S
Co2    N209    1.969   .     S
Co2    N210    1.969   .     S
Co3    N199    2.058   .     S
Co3    O220    1.831   .     S
Co3    O665    1.832   .     S
Co3    O442    1.830   1_455 S
Co3    O897    1.832   1_455 S
Co4    N200    2.058   .     S
Co4    O222    1.831   .     S
Co4    O441    1.830   .     S
Co4    O666    1.832   1_545 S
Co4    O899    1.832   1_545 S
Co5    N201    2.058   .     S
Co5    O224    1.831   .     S
Co5    O670    1.832   .     S
Co5    O437    1.830   1_455 S
Co5    O901    1.832   1_455 S
Co6    N202    2.058   .     S
Co6    O226    1.831   .     S
Co6    O438    1.830   .     S
Co6    O669    1.832   1_545 S
Co6    O903    1.832   1_545 S
H7     C79     1.083   .     S
H8     C80     1.083   .     S
H9     C307    1.079   .     S
H10    C82     1.082   .     S
H11    C83     1.083   .     S
H12    C84     1.083   .     S
H13    C311    1.079   1_455 S
H14    C86     1.082   .     S
H15    C87     1.083   .     S
H16    C88     1.083   .     S
H17    C90     1.080   .     S
H18    C91     1.093   .     S
H19    C91     1.111   .     S
H20    C317    1.111   .     S
H21    C92     1.083   .     S
H22    C93     1.083   .     S
H23    C95     1.079   .     S
H24    C96     1.093   .     S
H25    C96     1.111   .     S
H26    C322    1.111   1_455 S
H27    C97     1.083   .     S
H28    C98     1.083   .     S
H29    C325    1.079   1_455 S
H30    C100    1.082   .     S
H31    C101    1.083   .     S
H32    C102    1.083   .     S
H33    C329    1.079   .     S
H34    C104    1.082   .     S
H35    C105    1.083   .     S
H36    C106    1.083   .     S
H37    C108    1.079   .     S
H38    C109    1.093   .     S
H39    C109    1.111   .     S
H40    C335    1.111   1_455 S
H41    C110    1.083   .     S
H42    C111    1.083   .     S
H43    C113    1.080   .     S
H44    C114    1.093   .     S
H45    C114    1.111   .     S
H46    C340    1.111   .     S
H47    C131    1.083   .     S
H48    C132    1.083   .     S
H49    C133    1.083   .     S
H50    C134    1.083   .     S
H51    C136    1.083   .     S
H52    C137    1.083   .     S
H53    C138    1.083   .     S
H54    C139    1.082   .     S
H55    C141    1.083   .     S
H56    C142    1.083   .     S
H57    C143    1.083   .     S
H58    C144    1.082   .     S
H59    C146    1.083   .     S
H60    C147    1.083   .     S
H61    C148    1.083   .     S
H62    C149    1.082   .     S
H63    C152    1.082   .     S
H64    C153    1.083   .     S
H65    C157    1.082   .     S
H66    C158    1.083   .     S
H67    C164    1.082   .     S
H68    C165    1.083   .     S
H69    C169    1.082   .     S
H70    C170    1.082   .     S
H71    C176    1.083   .     S
H72    C177    1.082   .     S
H73    C181    1.083   .     S
H74    C182    1.082   .     S
H75    C188    1.082   .     S
H76    C189    1.082   .     S
H77    C193    1.083   .     S
H78    C194    1.082   .     S
C79    C80     1.408   .     A
C79    C160    1.405   .     A
C80    C161    1.410   .     A
C81    C82     1.432   .     A
C81    H235    1.079   1_455 S
C81    C587    1.422   1_545 S
C82    N651    1.376   1_545 S
C83    C84     1.408   .     A
C83    C172    1.405   .     A
C84    C173    1.410   .     A
C85    C86     1.432   .     A
C85    H239    1.078   .     S
C85    C592    1.422   .     A
C86    N652    1.376   .     A
C87    C88     1.408   .     A
C87    C184    1.405   .     A
C88    C185    1.411   .     A
C89    C90     1.438   .     A
C89    C91     1.507   .     S
C89    N201    1.394   .     A
C90    C145    1.416   .     A
C91    H246    1.110   1_455 S
C92    C93     1.408   .     A
C92    C196    1.406   .     A
C93    C197    1.411   .     A
C94    C95     1.438   .     A
C94    C96     1.507   .     S
C94    N202    1.394   .     A
C95    C150    1.416   .     A
C96    H252    1.111   .     S
C97    C98     1.408   .     A
C97    C172    1.405   .     A
C98    C173    1.411   .     A
C99    C100    1.431   .     A
C99    H255    1.079   .     S
C99    C602    1.422   .     A
C100   N654    1.376   .     A
C101   C102    1.408   .     A
C101   C160    1.405   .     A
C102   C161    1.410   .     A
C103   C104    1.432   .     A
C103   H259    1.079   1_455 S
C103   C597    1.421   1_545 S
C104   N653    1.376   1_545 S
C105   C106    1.408   .     A
C105   C196    1.406   .     A
C106   C197    1.411   .     A
C107   C108    1.438   .     A
C107   C109    1.507   .     S
C107   N200    1.394   .     A
C108   C140    1.416   .     A
C109   H266    1.111   .     S
C110   C111    1.408   .     A
C110   C184    1.405   .     A
C111   C185    1.411   .     A
C112   C113    1.438   .     A
C112   C114    1.507   .     S
C112   N199    1.394   .     A
C113   C135    1.416   .     A
C114   H272    1.110   1_455 S
C115   C116    1.506   .     S
C115   C151    1.474   .     S
C115   C175    1.336   .     D
C116   C131    1.406   .     A
C116   C141    1.406   .     A
C117   C118    1.504   .     S
C117   C132    1.411   .     A
C117   C142    1.411   .     A
C118   O219    1.287   .     A
C118   O223    1.287   .     A
C119   C120    1.505   .     S
C119   C159    1.336   .     D
C119   C183    1.474   .     S
C120   C133    1.406   .     A
C120   C143    1.406   .     A
C121   C122    1.503   .     S
C121   C134    1.411   .     A
C121   C144    1.411   .     A
C122   O220    1.283   .     A
C122   O224    1.283   .     A
C123   C124    1.506   .     S
C123   C163    1.473   .     S
C123   C187    1.336   .     D
C124   C136    1.406   .     A
C124   C146    1.406   .     A
C125   C126    1.504   .     S
C125   C137    1.411   .     A
C125   C147    1.411   .     A
C126   O221    1.287   .     A
C126   O225    1.287   .     A
C127   C128    1.505   .     S
C127   C171    1.336   .     D
C127   C195    1.474   .     S
C128   C138    1.406   .     A
C128   C148    1.406   .     A
C129   C130    1.503   .     S
C129   C139    1.411   .     A
C129   C149    1.411   .     A
C130   O222    1.283   .     A
C130   O226    1.283   .     A
C131   C132    1.408   .     A
C133   C134    1.408   .     A
C135   C533    1.422   .     A
C135   C828    1.579   1_455 S
C136   C137    1.408   .     A
C138   C139    1.408   .     A
C140   C537    1.422   1_545 S
C140   C823    1.579   1_544 S
C141   C142    1.408   .     A
C143   C144    1.408   .     A
C145   C555    1.421   .     A
C145   C818    1.579   1_456 S
C146   C147    1.408   .     A
C148   C149    1.408   .     A
C150   C551    1.421   1_545 S
C150   C813    1.579   1_545 S
C151   C152    1.467   .     S
C151   N203    1.310   .     D
C152   C153    1.310   .     D
C153   C154    1.457   .     S
C154   C155    1.336   .     D
C154   N203    1.437   .     S
C155   C156    1.473   .     S
C155   C160    1.504   .     S
C156   C157    1.467   .     S
C156   N204    1.310   .     D
C157   C158    1.309   .     D
C158   C159    1.457   .     S
C159   N204    1.437   .     S
C161   C162    1.502   .     S
C162   O211    1.283   .     A
C162   O216    1.283   .     A
C163   C164    1.467   .     S
C163   N205    1.310   .     D
C164   C165    1.310   .     D
C165   C166    1.457   .     S
C166   C167    1.336   .     D
C166   N205    1.437   .     S
C167   C168    1.473   .     S
C167   C172    1.504   .     S
C168   C169    1.467   .     S
C168   N206    1.310   .     D
C169   C170    1.310   .     D
C170   C171    1.457   .     S
C171   N206    1.437   .     S
C173   C174    1.502   .     S
C174   O212    1.283   .     A
C174   O215    1.283   .     A
C175   C176    1.457   .     S
C175   N207    1.437   .     S
C176   C177    1.310   .     D
C177   C178    1.467   .     S
C178   C179    1.473   .     S
C178   N207    1.310   .     D
C179   C180    1.336   .     D
C179   C184    1.505   .     S
C180   C181    1.457   .     S
C180   N208    1.437   .     S
C181   C182    1.310   .     D
C182   C183    1.467   .     S
C183   N208    1.310   .     D
C185   C186    1.503   .     S
C186   O213    1.287   .     A
C186   O218    1.287   .     A
C187   C188    1.457   .     S
C187   N209    1.437   .     S
C188   C189    1.310   .     D
C189   C190    1.467   .     S
C190   C191    1.474   .     S
C190   N209    1.310   .     D
C191   C192    1.336   .     D
C191   C196    1.505   .     S
C192   C193    1.457   .     S
C192   N210    1.437   .     S
C193   C194    1.310   .     D
C194   C195    1.467   .     S
C195   N210    1.310   .     D
C197   C198    1.503   .     S
C198   O214    1.287   .     A
C198   O217    1.287   .     A
N199   C534    1.376   .     A
N200   C538    1.376   1_545 S
N201   C556    1.376   .     A
N202   C552    1.376   1_545 S
O211   Co231   1.830   .     S
O212   Co232   1.830   1_455 S
O213   Co455   1.832   1_545 S
O214   Co456   1.832   .     S
O215   Co230   1.830   1_455 S
O216   Co229   1.830   .     S
O217   Co458   1.832   .     S
O218   Co457   1.832   1_545 S
O219   Co681   1.832   1_545 S
O221   Co682   1.832   1_455 S
O223   Co683   1.832   1_545 S
O225   Co684   1.832   1_455 S
Co227  N429    1.970   .     S
Co227  N430    1.970   .     S
Co227  N433    1.969   .     S
Co227  N434    1.970   .     S
Co228  N431    1.970   .     S
Co228  N432    1.970   .     S
Co228  N435    1.969   .     S
Co228  N436    1.970   .     S
Co229  N425    2.058   .     S
Co229  O446    1.831   .     S
Co229  O671    1.832   .     S
Co229  O891    1.832   .     S
Co230  N426    2.058   .     S
Co230  O448    1.831   .     S
Co230  O215    1.830   1_655 S
Co230  O673    1.832   1_645 S
Co230  O892    1.832   1_545 S
Co231  N427    2.058   .     S
Co231  O450    1.831   .     S
Co231  O675    1.832   .     S
Co231  O896    1.832   .     S
Co232  N428    2.058   .     S
Co232  O452    1.831   .     S
Co232  O212    1.830   1_655 S
Co232  O677    1.832   1_645 S
Co232  O895    1.832   1_545 S
H233   C305    1.083   .     S
H234   C306    1.083   .     S
H235   C81     1.079   1_655 S
H236   C308    1.082   .     S
H237   C309    1.083   .     S
H238   C310    1.083   .     S
H240   C312    1.082   .     S
H241   C313    1.083   .     S
H242   C314    1.083   .     S
H243   C316    1.080   .     S
H244   C317    1.093   .     S
H245   C317    1.111   .     S
H246   C91     1.110   1_655 S
H247   C318    1.083   .     S
H248   C319    1.083   .     S
H249   C321    1.080   .     S
H250   C322    1.093   .     S
H251   C322    1.111   .     S
H253   C323    1.083   .     S
H254   C324    1.083   .     S
H256   C326    1.082   .     S
H257   C327    1.083   .     S
H258   C328    1.083   .     S
H259   C103    1.079   1_655 S
H260   C330    1.082   .     S
H261   C331    1.083   .     S
H262   C332    1.083   .     S
H263   C334    1.080   .     S
H264   C335    1.093   .     S
H265   C335    1.111   .     S
H267   C336    1.083   .     S
H268   C337    1.083   .     S
H269   C339    1.080   .     S
H270   C340    1.093   .     S
H271   C340    1.111   .     S
H272   C114    1.110   1_655 S
H273   C357    1.083   .     S
H274   C358    1.083   .     S
H275   C359    1.083   .     S
H276   C360    1.083   .     S
H277   C362    1.083   .     S
H278   C363    1.083   .     S
H279   C364    1.083   .     S
H280   C365    1.083   .     S
H281   C367    1.083   .     S
H282   C368    1.083   .     S
H283   C369    1.083   .     S
H284   C370    1.083   .     S
H285   C372    1.083   .     S
H286   C373    1.083   .     S
H287   C374    1.083   .     S
H288   C375    1.083   .     S
H289   C378    1.082   .     S
H290   C379    1.082   .     S
H291   C383    1.083   .     S
H292   C384    1.082   .     S
H293   C390    1.082   .     S
H294   C391    1.082   .     S
H295   C395    1.083   .     S
H296   C396    1.082   .     S
H297   C402    1.082   .     S
H298   C403    1.083   .     S
H299   C407    1.082   .     S
H300   C408    1.083   .     S
H301   C414    1.082   .     S
H302   C415    1.082   .     S
H303   C419    1.082   .     S
H304   C420    1.082   .     S
C305   C306    1.408   .     A
C305   C386    1.405   .     A
C306   C387    1.410   .     A
C307   C308    1.432   .     A
C307   C813    1.421   1_545 S
C308   N877    1.376   1_545 S
C309   C310    1.408   .     A
C309   C398    1.405   .     A
C310   C399    1.411   .     A
C311   C312    1.432   .     A
C311   C818    1.421   .     A
C311   H13     1.079   1_655 S
C312   N878    1.376   .     A
C313   C314    1.408   .     A
C313   C410    1.405   .     A
C314   C411    1.411   .     A
C315   C316    1.438   .     A
C315   C317    1.507   .     S
C315   N427    1.394   .     A
C316   C371    1.416   .     A
C318   C319    1.408   .     A
C318   C422    1.405   .     A
C319   C423    1.411   .     A
C320   C321    1.438   .     A
C320   C322    1.507   .     S
C320   N428    1.394   .     A
C321   C376    1.416   .     A
C322   H26     1.111   1_655 S
C323   C324    1.408   .     A
C323   C398    1.405   .     A
C324   C399    1.411   .     A
C325   C326    1.432   .     A
C325   C828    1.421   .     A
C325   H29     1.079   1_655 S
C326   N880    1.376   .     A
C327   C328    1.408   .     A
C327   C386    1.405   .     A
C328   C387    1.410   .     A
C329   C330    1.432   .     A
C329   C823    1.421   1_545 S
C330   N879    1.376   1_545 S
C331   C332    1.408   .     A
C331   C422    1.405   .     A
C332   C423    1.411   .     A
C333   C334    1.438   .     A
C333   C335    1.507   .     S
C333   N426    1.394   .     A
C334   C366    1.416   .     A
C335   H40     1.111   1_655 S
C336   C337    1.408   .     A
C336   C410    1.405   .     A
C337   C411    1.411   .     A
C338   C339    1.438   .     A
C338   C340    1.507   .     S
C338   N425    1.394   .     A
C339   C361    1.416   .     A
C341   C342    1.506   .     S
C341   C377    1.336   .     D
C341   C401    1.474   .     S
C342   C357    1.406   .     A
C342   C367    1.406   .     A
C343   C344    1.504   .     S
C343   C358    1.411   .     A
C343   C368    1.411   .     A
C344   O445    1.287   .     A
C344   O449    1.287   .     A
C345   C346    1.505   .     S
C345   C385    1.473   .     S
C345   C409    1.336   .     D
C346   C359    1.406   .     A
C346   C369    1.406   .     A
C347   C348    1.503   .     S
C347   C360    1.411   .     A
C347   C370    1.411   .     A
C348   O446    1.283   .     A
C348   O450    1.283   .     A
C349   C350    1.506   .     S
C349   C389    1.336   .     D
C349   C413    1.474   .     S
C350   C362    1.406   .     A
C350   C372    1.406   .     A
C351   C352    1.504   .     S
C351   C363    1.411   .     A
C351   C373    1.411   .     A
C352   O447    1.287   .     A
C352   O451    1.287   .     A
C353   C354    1.505   .     S
C353   C397    1.473   .     S
C353   C421    1.336   .     D
C354   C364    1.406   .     A
C354   C374    1.406   .     A
C355   C356    1.503   .     S
C355   C365    1.411   .     A
C355   C375    1.411   .     A
C356   O448    1.283   .     A
C356   O452    1.283   .     A
C357   C358    1.408   .     A
C359   C360    1.408   .     A
C361   C602    1.579   .     S
C361   C759    1.421   .     A
C362   C363    1.408   .     A
C364   C365    1.408   .     A
C366   C597    1.579   1_644 S
C366   C763    1.421   1_545 S
C367   C368    1.408   .     A
C369   C370    1.408   .     A
C371   C781    1.421   .     A
C371   C592    1.579   1_556 S
C372   C373    1.408   .     A
C374   C375    1.408   .     A
C376   C587    1.579   1_645 S
C376   C777    1.421   1_545 S
C377   C378    1.457   .     S
C377   N429    1.437   .     S
C378   C379    1.310   .     D
C379   C380    1.467   .     S
C380   C381    1.474   .     S
C380   N429    1.310   .     D
C381   C382    1.336   .     D
C381   C386    1.504   .     S
C382   C383    1.457   .     S
C382   N430    1.437   .     S
C383   C384    1.309   .     D
C384   C385    1.467   .     S
C385   N430    1.310   .     D
C387   C388    1.502   .     S
C388   O437    1.283   .     A
C388   O442    1.283   .     A
C389   C390    1.457   .     S
C389   N431    1.437   .     S
C390   C391    1.310   .     D
C391   C392    1.467   .     S
C392   C393    1.473   .     S
C392   N431    1.310   .     D
C393   C394    1.336   .     D
C393   C398    1.504   .     S
C394   C395    1.457   .     S
C394   N432    1.437   .     S
C395   C396    1.309   .     D
C396   C397    1.467   .     S
C397   N432    1.310   .     D
C399   C400    1.502   .     S
C400   O438    1.283   .     A
C400   O441    1.283   .     A
C401   C402    1.467   .     S
C401   N433    1.310   .     D
C402   C403    1.310   .     D
C403   C404    1.457   .     S
C404   C405    1.336   .     D
C404   N433    1.437   .     S
C405   C406    1.473   .     S
C405   C410    1.505   .     S
C406   C407    1.467   .     S
C406   N434    1.310   .     D
C407   C408    1.310   .     D
C408   C409    1.457   .     S
C409   N434    1.437   .     S
C411   C412    1.503   .     S
C412   O439    1.287   .     A
C412   O444    1.287   .     A
C413   C414    1.467   .     S
C413   N435    1.310   .     D
C414   C415    1.310   .     D
C415   C416    1.457   .     S
C416   C417    1.336   .     D
C416   N435    1.437   .     S
C417   C418    1.474   .     S
C417   C422    1.505   .     S
C418   C419    1.467   .     S
C418   N436    1.310   .     D
C419   C420    1.310   .     D
C420   C421    1.456   .     S
C421   N436    1.437   .     S
C423   C424    1.503   .     S
C424   O440    1.287   .     A
C424   O443    1.287   .     A
N425   C760    1.376   .     A
N426   C764    1.376   1_545 S
N427   C782    1.376   .     A
N428   C778    1.376   1_545 S
O437   Co5     1.830   1_655 S
O439   Co681   1.832   1_545 S
O440   Co682   1.832   .     S
O442   Co3     1.830   1_655 S
O443   Co684   1.832   .     S
O444   Co683   1.832   1_545 S
O445   Co455   1.832   1_645 S
O447   Co456   1.832   .     S
O449   Co457   1.832   1_645 S
O451   Co458   1.832   .     S
Co453  N655    1.970   .     S
Co453  N656    1.970   .     S
Co453  N659    1.969   .     S
Co453  N660    1.970   .     S
Co454  N657    1.970   .     S
Co454  N658    1.970   .     S
Co454  N661    1.969   .     S
Co454  N662    1.970   .     S
Co455  N651    2.058   .     S
Co455  O672    1.831   .     S
Co455  O213    1.832   1_565 S
Co455  O445    1.832   1_465 S
Co455  O894    1.830   1_455 S
Co456  N652    2.058   .     S
Co456  O674    1.831   .     S
Co456  O893    1.830   .     S
Co457  N653    2.058   .     S
Co457  O676    1.831   .     S
Co457  O218    1.832   1_565 S
Co457  O449    1.832   1_465 S
Co457  O889    1.830   1_455 S
Co458  N654    2.058   .     S
Co458  O678    1.831   .     S
Co458  O890    1.830   .     S
H459   C531    1.083   .     S
H460   C532    1.083   .     S
H461   C759    1.079   .     S
H462   C534    1.082   .     S
H463   C535    1.083   .     S
H464   C536    1.083   .     S
H465   C763    1.078   1_455 S
H466   C538    1.082   .     S
H467   C539    1.083   .     S
H468   C540    1.083   .     S
H469   C542    1.080   .     S
H470   C543    1.093   .     S
H471   C543    1.111   .     S
H472   C769    1.111   .     S
H473   C544    1.083   .     S
H474   C545    1.083   .     S
H475   C547    1.080   .     S
H476   C548    1.093   .     S
H477   C548    1.111   .     S
H478   C774    1.111   1_455 S
H479   C549    1.083   .     S
H480   C550    1.083   .     S
H481   C777    1.078   1_455 S
H482   C552    1.082   .     S
H483   C553    1.083   .     S
H484   C554    1.083   .     S
H485   C781    1.079   .     S
H486   C556    1.082   .     S
H487   C557    1.083   .     S
H488   C558    1.083   .     S
H489   C560    1.080   .     S
H490   C561    1.093   .     S
H491   C561    1.111   .     S
H492   C787    1.110   1_455 S
H493   C562    1.083   .     S
H494   C563    1.083   .     S
H495   C565    1.080   .     S
H496   C566    1.093   .     S
H497   C566    1.111   .     S
H498   C792    1.111   .     S
H499   C583    1.083   .     S
H500   C584    1.083   .     S
H501   C585    1.083   .     S
H502   C586    1.083   .     S
H503   C588    1.083   .     S
H504   C589    1.083   .     S
H505   C590    1.083   .     S
H506   C591    1.082   .     S
H507   C593    1.083   .     S
H508   C594    1.083   .     S
H509   C595    1.083   .     S
H510   C596    1.083   .     S
H511   C598    1.083   .     S
H512   C599    1.083   .     S
H513   C600    1.083   .     S
H514   C601    1.082   .     S
H515   C604    1.082   .     S
H516   C605    1.082   .     S
H517   C609    1.083   .     S
H518   C610    1.082   .     S
H519   C616    1.082   .     S
H520   C617    1.083   .     S
H521   C621    1.082   .     S
H522   C622    1.083   .     S
H523   C628    1.082   .     S
H524   C629    1.083   .     S
H525   C633    1.082   .     S
H526   C634    1.083   .     S
H527   C640    1.082   .     S
H528   C641    1.082   .     S
H529   C645    1.083   .     S
H530   C646    1.082   .     S
C531   C532    1.408   .     A
C531   C612    1.405   .     A
C532   C613    1.411   .     A
C533   C534    1.432   .     A
C533   H687    1.079   1_455 S
C535   C536    1.408   .     A
C535   C624    1.405   .     A
C536   C625    1.410   .     A
C537   C538    1.432   .     A
C537   H691    1.079   .     S
C537   C140    1.422   1_565 S
C538   N200    1.376   1_565 S
C539   C540    1.408   .     A
C539   C636    1.405   .     A
C540   C637    1.411   .     A
C541   C542    1.438   .     A
C541   C543    1.507   .     S
C541   N653    1.393   .     A
C542   C597    1.416   .     A
C543   H698    1.111   1_455 S
C544   C545    1.408   .     A
C544   C648    1.406   .     A
C545   C649    1.411   .     A
C546   C547    1.438   .     A
C546   C548    1.507   .     S
C546   N654    1.393   .     A
C547   C602    1.416   .     A
C548   H704    1.111   .     S
C549   C550    1.408   .     A
C549   C624    1.405   .     A
C550   C625    1.411   .     A
C551   C552    1.432   .     A
C551   H707    1.079   .     S
C551   C150    1.421   1_565 S
C552   N202    1.376   1_565 S
C553   C554    1.408   .     A
C553   C612    1.405   .     A
C554   C613    1.411   .     A
C555   C556    1.432   .     A
C555   H711    1.079   1_455 S
C557   C558    1.408   .     A
C557   C648    1.406   .     A
C558   C649    1.411   .     A
C559   C560    1.438   .     A
C559   C561    1.507   .     S
C559   N652    1.393   .     A
C560   C592    1.416   .     A
C561   H718    1.111   .     S
C562   C563    1.408   .     A
C562   C636    1.405   .     A
C563   C637    1.411   .     A
C564   C565    1.438   .     A
C564   C566    1.507   .     S
C564   N651    1.393   .     A
C565   C587    1.416   .     A
C566   H724    1.111   1_455 S
C567   C568    1.506   .     S
C567   C603    1.336   .     D
C567   C627    1.474   .     S
C568   C583    1.406   .     A
C568   C593    1.406   .     A
C569   C570    1.503   .     S
C569   C584    1.411   .     A
C569   C594    1.411   .     A
C570   O671    1.287   .     A
C570   O675    1.287   .     A
C571   C572    1.505   .     S
C571   C611    1.473   .     S
C571   C635    1.336   .     D
C572   C585    1.406   .     A
C572   C595    1.406   .     A
C573   C574    1.503   .     S
C573   C586    1.411   .     A
C573   C596    1.411   .     A
C574   O672    1.283   .     A
C574   O676    1.283   .     A
C575   C576    1.506   .     S
C575   C615    1.474   .     S
C575   C639    1.336   .     D
C576   C588    1.406   .     A
C576   C598    1.406   .     A
C577   C578    1.504   .     S
C577   C589    1.411   .     A
C577   C599    1.411   .     A
C578   O673    1.287   .     A
C578   O677    1.287   .     A
C579   C580    1.505   .     S
C579   C623    1.336   .     D
C579   C647    1.473   .     S
C580   C590    1.406   .     A
C580   C600    1.406   .     A
C581   C582    1.503   .     S
C581   C591    1.411   .     A
C581   C601    1.411   .     A
C582   O674    1.283   .     A
C582   O678    1.283   .     A
C583   C584    1.408   .     A
C585   C586    1.408   .     A
C587   C81     1.422   1_565 S
C587   C376    1.579   1_465 S
C588   C589    1.408   .     A
C590   C591    1.408   .     A
C592   C371    1.579   1_554 S
C593   C594    1.408   .     A
C595   C596    1.408   .     A
C597   C103    1.421   1_565 S
C597   C366    1.579   1_466 S
C598   C599    1.408   .     A
C600   C601    1.408   .     A
C603   C604    1.457   .     S
C603   N655    1.437   .     S
C604   C605    1.310   .     D
C605   C606    1.467   .     S
C606   C607    1.474   .     S
C606   N655    1.310   .     D
C607   C608    1.336   .     D
C607   C612    1.504   .     S
C608   C609    1.457   .     S
C608   N656    1.437   .     S
C609   C610    1.309   .     D
C610   C611    1.467   .     S
C611   N656    1.310   .     D
C613   C614    1.502   .     S
C614   O663    1.283   .     A
C614   O668    1.283   .     A
C615   C616    1.467   .     S
C615   N657    1.310   .     D
C616   C617    1.310   .     D
C617   C618    1.457   .     S
C618   C619    1.336   .     D
C618   N657    1.437   .     S
C619   C620    1.473   .     S
C619   C624    1.504   .     S
C620   C621    1.467   .     S
C620   N658    1.310   .     D
C621   C622    1.310   .     D
C622   C623    1.457   .     S
C623   N658    1.437   .     S
C625   C626    1.502   .     S
C626   O664    1.283   .     A
C626   O667    1.283   .     A
C627   C628    1.467   .     S
C627   N659    1.310   .     D
C628   C629    1.310   .     D
C629   C630    1.457   .     S
C630   C631    1.336   .     D
C630   N659    1.437   .     S
C631   C632    1.474   .     S
C631   C636    1.505   .     S
C632   C633    1.467   .     S
C632   N660    1.310   .     D
C633   C634    1.310   .     D
C634   C635    1.457   .     S
C635   N660    1.437   .     S
C637   C638    1.503   .     S
C638   O665    1.287   .     A
C638   O670    1.287   .     A
C639   C640    1.457   .     S
C639   N661    1.437   .     S
C640   C641    1.310   .     D
C641   C642    1.467   .     S
C642   C643    1.474   .     S
C642   N661    1.310   .     D
C643   C644    1.336   .     D
C643   C648    1.505   .     S
C644   C645    1.457   .     S
C644   N662    1.437   .     S
C645   C646    1.310   .     D
C646   C647    1.467   .     S
C647   N662    1.310   .     D
C649   C650    1.503   .     S
C650   O666    1.287   .     A
C650   O669    1.287   .     A
N651   C82     1.376   1_565 S
N653   C104    1.376   1_565 S
O663   Co683   1.830   .     S
O664   Co684   1.830   1_455 A
O666   Co4     1.832   1_565 S
O667   Co682   1.830   1_455 A
O668   Co681   1.830   .     S
O669   Co6     1.832   1_565 S
O673   Co230   1.832   1_465 S
O677   Co232   1.832   1_465 S
Co679  N881    1.970   .     S
Co679  N882    1.969   .     S
Co679  N885    1.969   .     S
Co679  N886    1.970   .     S
Co680  N883    1.969   .     S
Co680  N884    1.969   .     S
Co680  N887    1.969   .     S
Co680  N888    1.970   .     S
Co681  N877    2.058   .     S
Co681  O898    1.831   .     S
Co681  O219    1.832   1_565 S
Co681  O439    1.832   1_565 S
Co682  N878    2.058   .     S
Co682  O900    1.831   .     S
Co682  O221    1.832   1_655 S
Co682  O667    1.830   1_655 A
Co683  N879    2.058   .     S
Co683  O902    1.831   .     S
Co683  O223    1.832   1_565 S
Co683  O444    1.832   1_565 S
Co684  N880    2.058   .     S
Co684  O904    1.831   .     S
Co684  O225    1.832   1_655 S
Co684  O664    1.830   1_655 A
H685   C757    1.083   .     S
H686   C758    1.083   .     S
H687   C533    1.079   1_655 S
H688   C760    1.082   .     S
H689   C761    1.083   .     S
H690   C762    1.083   .     S
H692   C764    1.082   .     S
H693   C765    1.083   .     S
H694   C766    1.083   .     S
H695   C768    1.080   .     S
H696   C769    1.093   .     S
H697   C769    1.111   .     S
H698   C543    1.111   1_655 S
H699   C770    1.083   .     S
H700   C771    1.083   .     S
H701   C773    1.080   .     S
H702   C774    1.093   .     S
H703   C774    1.111   .     S
H705   C775    1.083   .     S
H706   C776    1.083   .     S
H708   C778    1.082   .     S
H709   C779    1.083   .     S
H710   C780    1.083   .     S
H711   C555    1.079   1_655 S
H712   C782    1.082   .     S
H713   C783    1.083   .     S
H714   C784    1.083   .     S
H715   C786    1.080   .     S
H716   C787    1.093   .     S
H717   C787    1.111   .     S
H719   C788    1.083   .     S
H720   C789    1.083   .     S
H721   C791    1.080   .     S
H722   C792    1.093   .     S
H723   C792    1.111   .     S
H724   C566    1.111   1_655 S
H725   C809    1.083   .     S
H726   C810    1.083   .     S
H727   C811    1.083   .     S
H728   C812    1.082   .     S
H729   C814    1.083   .     S
H730   C815    1.083   .     S
H731   C816    1.083   .     S
H732   C817    1.082   .     S
H733   C819    1.083   .     S
H734   C820    1.083   .     S
H735   C821    1.083   .     S
H736   C822    1.082   .     S
H737   C824    1.083   .     S
H738   C825    1.083   .     S
H739   C826    1.083   .     S
H740   C827    1.082   .     S
H741   C830    1.083   .     S
H742   C831    1.082   .     S
H743   C835    1.083   .     S
H744   C836    1.082   .     S
H745   C842    1.082   .     S
H746   C843    1.083   .     S
H747   C847    1.082   .     S
H748   C848    1.083   .     S
H749   C854    1.082   .     S
H750   C855    1.082   .     S
H751   C859    1.082   .     S
H752   C860    1.082   .     S
H753   C866    1.083   .     S
H754   C867    1.082   .     S
H755   C871    1.083   .     S
H756   C872    1.082   .     S
C757   C758    1.407   .     A
C757   C838    1.405   .     A
C758   C839    1.410   .     A
C759   C760    1.432   .     A
C761   C762    1.408   .     A
C761   C850    1.405   .     A
C762   C851    1.410   .     A
C763   C764    1.432   .     A
C763   C366    1.421   1_565 S
C763   H465    1.078   1_655 S
C764   N426    1.376   1_565 S
C765   C766    1.408   .     A
C765   C862    1.405   .     A
C766   C863    1.411   .     A
C767   C768    1.438   .     A
C767   C769    1.507   .     S
C767   N879    1.393   .     A
C768   C823    1.416   .     A
C770   C771    1.408   .     A
C770   C874    1.405   .     A
C771   C875    1.411   .     A
C772   C773    1.438   .     A
C772   C774    1.507   .     S
C772   N880    1.393   .     A
C773   C828    1.416   .     A
C774   H478    1.111   1_655 S
C775   C776    1.408   .     A
C775   C850    1.405   .     A
C776   C851    1.410   .     A
C777   C778    1.432   .     A
C777   C376    1.421   1_565 S
C777   H481    1.078   1_655 S
C778   N428    1.376   1_565 S
C779   C780    1.407   .     A
C779   C838    1.405   .     A
C780   C839    1.411   .     A
C781   C782    1.432   .     A
C783   C784    1.408   .     A
C783   C874    1.405   .     A
C784   C875    1.411   .     A
C785   C786    1.438   .     A
C785   C787    1.507   .     S
C785   N878    1.393   .     A
C786   C818    1.416   .     A
C787   H492    1.110   1_655 S
C788   C789    1.408   .     A
C788   C862    1.405   .     A
C789   C863    1.411   .     A
C790   C791    1.438   .     A
C790   C792    1.507   .     S
C790   N877    1.393   .     A
C791   C813    1.416   .     A
C793   C794    1.506   .     S
C793   C829    1.336   .     D
C793   C853    1.474   .     S
C794   C809    1.406   .     A
C794   C819    1.406   .     A
C795   C796    1.504   .     S
C795   C810    1.411   .     A
C795   C820    1.411   .     A
C796   O897    1.287   .     A
C796   O901    1.287   .     A
C797   C798    1.505   .     S
C797   C837    1.473   .     S
C797   C861    1.336   .     D
C798   C811    1.406   .     A
C798   C821    1.406   .     A
C799   C800    1.503   .     S
C799   C812    1.411   .     A
C799   C822    1.411   .     A
C800   O898    1.283   .     A
C800   O902    1.283   .     A
C801   C802    1.506   .     S
C801   C841    1.474   .     S
C801   C865    1.336   .     D
C802   C814    1.406   .     A
C802   C824    1.406   .     A
C803   C804    1.503   .     S
C803   C815    1.411   .     A
C803   C825    1.411   .     A
C804   O899    1.287   .     A
C804   O903    1.287   .     A
C805   C806    1.505   .     S
C805   C849    1.336   .     D
C805   C873    1.474   .     S
C806   C816    1.406   .     A
C806   C826    1.406   .     A
C807   C808    1.503   .     S
C807   C817    1.411   .     A
C807   C827    1.411   .     A
C808   O900    1.283   .     A
C808   O904    1.283   .     A
C809   C810    1.408   .     A
C811   C812    1.408   .     A
C813   C150    1.579   1_565 S
C813   C307    1.421   1_565 S
C814   C815    1.408   .     A
C816   C817    1.408   .     A
C818   C145    1.579   1_654 S
C819   C820    1.408   .     A
C821   C822    1.408   .     A
C823   C140    1.579   1_566 S
C823   C329    1.421   1_565 S
C824   C825    1.408   .     A
C826   C827    1.408   .     A
C828   C135    1.579   1_655 S
C829   C830    1.457   .     S
C829   N881    1.437   .     S
C830   C831    1.310   .     D
C831   C832    1.467   .     S
C832   C833    1.474   .     S
C832   N881    1.310   .     D
C833   C834    1.336   .     D
C833   C838    1.504   .     S
C834   C835    1.457   .     S
C834   N882    1.437   .     S
C835   C836    1.309   .     D
C836   C837    1.467   .     S
C837   N882    1.310   .     D
C839   C840    1.502   .     S
C840   O889    1.283   .     A
C840   O894    1.283   .     A
C841   C842    1.467   .     S
C841   N883    1.310   .     D
C842   C843    1.309   .     D
C843   C844    1.457   .     S
C844   C845    1.336   .     D
C844   N883    1.437   .     S
C845   C846    1.473   .     S
C845   C850    1.505   .     S
C846   C847    1.467   .     S
C846   N884    1.310   .     D
C847   C848    1.310   .     D
C848   C849    1.456   .     S
C849   N884    1.437   .     S
C851   C852    1.502   .     S
C852   O890    1.283   .     A
C852   O893    1.283   .     A
C853   C854    1.467   .     S
C853   N885    1.310   .     D
C854   C855    1.310   .     D
C855   C856    1.457   .     S
C856   C857    1.336   .     D
C856   N885    1.437   .     S
C857   C858    1.473   .     S
C857   C862    1.505   .     S
C858   C859    1.467   .     S
C858   N886    1.310   .     D
C859   C860    1.310   .     D
C860   C861    1.456   .     S
C861   N886    1.437   .     S
C863   C864    1.503   .     S
C864   O891    1.287   .     A
C864   O896    1.287   .     A
C865   C866    1.457   .     S
C865   N887    1.437   .     S
C866   C867    1.310   .     D
C867   C868    1.467   .     S
C868   C869    1.474   .     S
C868   N887    1.310   .     D
C869   C870    1.336   .     D
C869   C874    1.505   .     S
C870   C871    1.457   .     S
C870   N888    1.437   .     S
C871   C872    1.310   .     D
C872   C873    1.467   .     S
C873   N888    1.310   .     D
C875   C876    1.503   .     S
C876   O892    1.287   .     A
C876   O895    1.287   .     A
N877   C308    1.376   1_565 S
N879   C330    1.376   1_565 S
O889   Co457   1.830   1_655 S
O892   Co230   1.832   1_565 S
O894   Co455   1.830   1_655 S
O895   Co232   1.832   1_565 S
O897   Co3     1.832   1_655 S
O899   Co4     1.832   1_565 S
O901   Co5     1.832   1_655 S
O903   Co6     1.832   1_565 S
