data_image0
_cell_length_a       46.618
_cell_length_b       15.159
_cell_length_c       27.704
_cell_angle_alpha    90
_cell_angle_beta     107.721
_cell_angle_gamma    90

_symmetry_space_group_name_H-M    "P 1"
_symmetry_int_tables_number       1

loop_
  _symmetry_equiv_pos_as_xyz
  'x, y, z'

loop_
  _atom_site_label
  _atom_site_occupancy
  _atom_site_fract_x
  _atom_site_fract_y
  _atom_site_fract_z
  _atom_site_thermal_displace_type
  _atom_site_B_iso_or_equiv
  _atom_site_type_symbol
  C1       1.0000 0.90772  0.83380  0.28694  Biso   1.000  C
  O1       1.0000 0.99577  0.12378  0.03396  Biso   1.000  O
  H1       1.0000 0.99170  0.11530  0.06030  Biso   1.000  H
  Ni1      1.0000 0.87920  0.40998  0.44657  Biso   1.000  Ni
  N1       1.0000 0.91938  0.91010  0.26992  Biso   1.000  N
  N2       1.0000 0.84191  0.57820  0.53387  Biso   1.000  N
  N3       1.0000 0.20169  0.80300  0.13328  Biso   1.000  N
  N4       1.0000 0.24013  0.52240  0.03403  Biso   1.000  N
  N5       1.0000 0.98708  0.89370  0.13315  Biso   1.000  N
  N6       1.0000 0.91849  0.23820  0.36549  Biso   1.000  N
  N7       1.0000 0.89138  0.31360  0.50235  Biso   1.000  N
  N8       1.0000 0.87264  0.60840  0.33833  Biso   1.000  N
  N9       1.0000 0.04677  0.01760  0.02270  Biso   1.000  N
  O2       1.0000 0.91732  0.48417  0.48672  Biso   1.000  O
  H2       1.0000 0.91260  0.53610  0.48740  Biso   1.000  H
  O3       1.0000 0.20647  0.76510  0.50797  Biso   1.000  O
  H3       1.0000 0.20790  0.77150  0.53800  Biso   1.000  H
  C2       1.0000 0.86020  0.80770  0.58072  Biso   1.000  C
  H4       1.0000 0.87510  0.84980  0.58290  Biso   1.000  H
  C3       1.0000 0.00889  0.83380  0.13004  Biso   1.000  C
  H5       1.0000 0.01660  0.78710  0.15200  Biso   1.000  H
  N10      1.0000 0.22853  0.73340  0.42301  Biso   1.000  N
  C4       1.0000 0.85355  0.07150  0.53308  Biso   1.000  C
  H6       1.0000 0.84930  0.08120  0.49850  Biso   1.000  H
  C5       1.0000 0.89709  0.75210  0.35443  Biso   1.000  C
  H7       1.0000 0.89760  0.74800  0.38820  Biso   1.000  H
  N11      1.0000 0.00087  0.93020  0.06551  Biso   1.000  N
  N12      1.0000 0.85449  0.47450  0.48757  Biso   1.000  N
  N13      1.0000 0.86757  0.50180  0.38932  Biso   1.000  N
  N14      1.0000 0.24771  0.38750  0.00899  Biso   1.000  N
  N15      1.0000 0.90471  0.34500  0.40844  Biso   1.000  N
  C6       1.0000 0.12720  0.86780  0.04339  Biso   1.000  C
  H8       1.0000 0.11200  0.84500  0.01620  Biso   1.000  H
  C7       1.0000 0.91778  0.30220  0.54193  Biso   1.000  C
  H9       1.0000 0.93490  0.33710  0.54770  Biso   1.000  H
  C8       1.0000 0.91491  0.23270  0.57089  Biso   1.000  C
  H10      1.0000 0.92940  0.21180  0.59960  Biso   1.000  H
  N16      1.0000 0.76480  0.96430  0.75350  Biso   1.000  N
  N17      1.0000 0.74702  0.95590  0.81780  Biso   1.000  N
  C9       1.0000 0.77120  0.92670  0.80084  Biso   1.000  C
  H11      1.0000 0.78740  0.89090  0.81760  Biso   1.000  H
  C10      1.0000 0.87340  0.25040  0.50829  Biso   1.000  C
  H12      1.0000 0.85400  0.24140  0.48690  Biso   1.000  H
  C11      1.0000 0.94255  0.29590  0.38190  Biso   1.000  C
  H13      1.0000 0.96120  0.29100  0.37630  Biso   1.000  H
  C12      1.0000 0.74129  0.00560  0.74473  Biso   1.000  C
  H14      1.0000 0.73320  0.03550  0.71430  Biso   1.000  H
  C13      1.0000 0.94132  0.97880  0.21079  Biso   1.000  C
  H15      1.0000 0.93230  0.03160  0.21520  Biso   1.000  H
  C14      1.0000 0.25444  0.53250  0.99823  Biso   1.000  C
  H16      1.0000 0.26010  0.58520  0.98650  Biso   1.000  H
  C15      1.0000 0.23492  0.76210  0.38210  Biso   1.000  C
  H17      1.0000 0.25240  0.79260  0.38280  Biso   1.000  H
  C16      1.0000 0.83763  0.43810  0.51582  Biso   1.000  C
  H18      1.0000 0.83220  0.37890  0.51500  Biso   1.000  H
  C17      1.0000 0.22390  0.74570  0.07070  Biso   1.000  C
  H19      1.0000 0.22620  0.80340  0.06110  Biso   1.000  H
  C18      1.0000 0.89127  0.11610  0.31307  Biso   1.000  C
  H20      1.0000 0.87310  0.14470  0.30970  Biso   1.000  H
  C19      1.0000 0.81961  0.86860  0.69394  Biso   1.000  C
  H21      1.0000 0.83280  0.82120  0.69880  Biso   1.000  H
  C20      1.0000 0.20143  0.69110  0.40468  Biso   1.000  C
  H22      1.0000 0.19140  0.66330  0.42480  Biso   1.000  H
  C21      1.0000 0.84707  0.56240  0.31300  Biso   1.000  C
  H23      1.0000 0.83420  0.57350  0.28060  Biso   1.000  H
  C22      1.0000 0.93362  0.36090  0.40791  Biso   1.000  C
  H24      1.0000 0.94530  0.40900  0.42300  Biso   1.000  H
  C23      1.0000 0.23615  0.75900  0.27165  Biso   1.000  C
  H25      1.0000 0.25500  0.74640  0.29440  Biso   1.000  H
  C24      1.0000 0.81447  0.76360  0.59618  Biso   1.000  C
  H26      1.0000 0.79850  0.77540  0.60860  Biso   1.000  H
  C25      1.0000 0.17604  0.85390  0.10452  Biso   1.000  C
  C26      1.0000 0.01687  0.85690  0.08832  Biso   1.000  C
  H27      1.0000 0.03110  0.82750  0.07690  Biso   1.000  H
  C27      1.0000 0.89619  0.27190  0.38220  Biso   1.000  C
  H28      1.0000 0.87720  0.24650  0.37590  Biso   1.000  H
  C28      1.0000 0.95844  0.97560  0.17765  Biso   1.000  C
  H29      1.0000 0.96110  0.02640  0.16060  Biso   1.000  H
  C29      1.0000 0.88380  0.56890  0.38360  Biso   1.000  C
  H30      1.0000 0.90120  0.58740  0.40820  Biso   1.000  H
  C30      1.0000 0.85648  0.55970  0.49913  Biso   1.000  C
  H31      1.0000 0.86640  0.60130  0.48540  Biso   1.000  H
  C31      1.0000 0.23001  0.59160  0.05947  Biso   1.000  C
  C32      1.0000 0.21087  0.72930  0.10870  Biso   1.000  C
  C33      1.0000 0.84026  0.66200  0.55609  Biso   1.000  C
  C34      1.0000 0.23653  0.43490  0.03945  Biso   1.000  C
  H32      1.0000 0.22730  0.41070  0.06180  Biso   1.000  H
  C35      1.0000 0.86220  0.72610  0.55962  Biso   1.000  C
  H33      1.0000 0.87840  0.71390  0.54770  Biso   1.000  H
  C36      1.0000 0.87312  0.12770  0.56782  Biso   1.000  C
  C37      1.0000 0.90847  0.82720  0.33734  Biso   1.000  C
  H34      1.0000 0.91660  0.87290  0.35980  Biso   1.000  H
  C38      1.0000 0.89538  0.76540  0.25399  Biso   1.000  C
  H35      1.0000 0.89440  0.76990  0.22010  Biso   1.000  H
  C39      1.0000 0.14736  0.98720  0.09974  Biso   1.000  C
  H36      1.0000 0.14550  0.04390  0.11110  Biso   1.000  H
  C40      1.0000 0.23344  0.67620  0.04720  Biso   1.000  C
  H37      1.0000 0.24250  0.68810  0.02230  Biso   1.000  H
  C41      1.0000 0.94548  0.11190  0.34594  Biso   1.000  C
  H38      1.0000 0.96350  0.13710  0.36520  Biso   1.000  H
  C42      1.0000 0.21700  0.57420  0.09631  Biso   1.000  C
  H39      1.0000 0.21450  0.51620  0.10520  Biso   1.000  H
  C43      1.0000 0.84683  0.98620  0.60213  Biso   1.000  C
  C44      1.0000 0.84445  0.49770  0.34500  Biso   1.000  C
  H40      1.0000 0.82900  0.45620  0.33780  Biso   1.000  H
  C45      1.0000 0.88448  0.69090  0.27096  Biso   1.000  C
  H41      1.0000 0.87670  0.64500  0.24860  Biso   1.000  H
  C46      1.0000 0.19100  0.69490  0.35253  Biso   1.000  C
  H42      1.0000 0.17320  0.67130  0.33120  Biso   1.000  H
  C47      1.0000 0.94543  0.03190  0.32219  Biso   1.000  C
  H43      1.0000 0.96360  0.00390  0.32470  Biso   1.000  H
  C48      1.0000 0.78383  0.95150  0.72014  Biso   1.000  C
  C49      1.0000 0.17366  0.93920  0.12039  Biso   1.000  C
  H44      1.0000 0.18970  0.96470  0.14500  Biso   1.000  H
  C50      1.0000 0.23300  0.77430  0.22069  Biso   1.000  C
  H45      1.0000 0.24980  0.77220  0.20930  Biso   1.000  H
  C51      1.0000 0.83589  0.82730  0.59876  Biso   1.000  C
  C52      1.0000 0.81663  0.68110  0.57497  Biso   1.000  C
  H46      1.0000 0.80200  0.63850  0.57350  Biso   1.000  H
  C53      1.0000 0.87921  0.11350  0.61900  Biso   1.000  C
  H47      1.0000 0.89210  0.15130  0.64210  Biso   1.000  H
  C54      1.0000 0.25880  0.44850  0.98301  Biso   1.000  C
  H48      1.0000 0.26800  0.43510  0.95850  Biso   1.000  H
  C55      1.0000 0.84036  0.00080  0.55058  Biso   1.000  C
  H49      1.0000 0.82720  0.96340  0.52760  Biso   1.000  H
  C56      1.0000 0.20746  0.64330  0.12054  Biso   1.000  C
  H50      1.0000 0.19850  0.63070  0.14550  Biso   1.000  H
  C57      1.0000 0.79886  0.99900  0.64897  Biso   1.000  C
  H51      1.0000 0.79770  0.03950  0.62320  Biso   1.000  H
  C58      1.0000 0.18009  0.80070  0.20533  Biso   1.000  C
  H52      1.0000 0.16130  0.81590  0.18340  Biso   1.000  H
  C59      1.0000 0.78209  0.01190  0.68174  Biso   1.000  C
  H53      1.0000 0.76970  0.06110  0.67810  Biso   1.000  H
  C60      1.0000 0.81736  0.92630  0.65424  Biso   1.000  C
  C61      1.0000 0.21097  0.76270  0.28798  Biso   1.000  C
  C62      1.0000 0.72800  0.00600  0.78018  Biso   1.000  C
  H54      1.0000 0.71010  0.03330  0.77990  Biso   1.000  H
  C63      1.0000 0.91836  0.15460  0.34086  Biso   1.000  C
  C64      1.0000 0.86614  0.04280  0.63610  Biso   1.000  C
  H55      1.0000 0.87040  0.03320  0.67070  Biso   1.000  H
  C65      1.0000 0.83001  0.50030  0.54486  Biso   1.000  C
  H56      1.0000 0.81900  0.49210  0.56750  Biso   1.000  H
  C66      1.0000 0.80260  0.88000  0.72644  Biso   1.000  C
  H57      1.0000 0.80390  0.83970  0.75230  Biso   1.000  H
  C67      1.0000 0.18349  0.78610  0.25556  Biso   1.000  C
  H58      1.0000 0.16710  0.79220  0.26770  Biso   1.000  H
  C68      1.0000 0.15331  0.81910  0.06541  Biso   1.000  C
  H59      1.0000 0.15530  0.76280  0.05350  Biso   1.000  H
  C69      1.0000 0.20467  0.79270  0.18678  Biso   1.000  C
  C70      1.0000 0.89157  0.03460  0.29043  Biso   1.000  C
  H60      1.0000 0.87350  0.00800  0.27230  Biso   1.000  H
  N18      1.0000 0.21262  0.74110  0.33900  Biso   1.000  N
  N19      1.0000 0.83418  0.91180  0.61985  Biso   1.000  N
  C71      1.0000 0.88509  0.68410  0.32144  Biso   1.000  C
  C72      1.0000 0.93756  0.90460  0.23734  Biso   1.000  C
  C73      1.0000 0.96832  0.82360  0.19704  Biso   1.000  C
  H61      1.0000 0.97740  0.77100  0.19250  Biso   1.000  H
  C74      1.0000 0.91859  0.99310  0.29476  Biso   1.000  C
  C75      1.0000 0.97137  0.89800  0.16997  Biso   1.000  C
  C76      1.0000 0.06115  0.09850  0.02863  Biso   1.000  C
  H62      1.0000 0.05150  0.15310  0.02410  Biso   1.000  H
  C77      1.0000 0.95172  0.82730  0.23100  Biso   1.000  C
  H63      1.0000 0.95010  0.77750  0.24960  Biso   1.000  H
  C78      1.0000 0.98281  0.94980  0.09372  Biso   1.000  C
  H64      1.0000 0.96910  0.99610  0.08690  Biso   1.000  H
  N20      1.0000 0.88686  0.19930  0.55001  Biso   1.000  N
  N21      1.0000 0.09595  0.99540  0.04450  Biso   1.000  N
  C79      1.0000 0.06820  0.95760  0.03210  Biso   1.000  C
  H65      1.0000 0.06480  0.89700  0.03050  Biso   1.000  H
  C80      1.0000 0.09159  0.08610  0.04215  Biso   1.000  C
  H66      1.0000 0.10640  0.12950  0.04850  Biso   1.000  H
  C81      1.0000 0.12430  0.94980  0.06243  Biso   1.000  C
  C82      1.0000 0.40772  0.33380  0.28694  Biso   1.000  C
  O4       1.0000 0.49577  0.62378  0.03396  Biso   1.000  O
  H67      1.0000 0.49170  0.61530  0.06030  Biso   1.000  H
  Ni2      1.0000 0.37920  0.90998  0.44657  Biso   1.000  Ni
  N22      1.0000 0.41938  0.41010  0.26992  Biso   1.000  N
  N23      1.0000 0.34191  0.07820  0.53387  Biso   1.000  N
  N24      1.0000 0.70169  0.30300  0.13328  Biso   1.000  N
  N25      1.0000 0.74013  0.02240  0.03403  Biso   1.000  N
  N26      1.0000 0.48708  0.39370  0.13315  Biso   1.000  N
  N27      1.0000 0.41849  0.73820  0.36549  Biso   1.000  N
  N28      1.0000 0.39138  0.81360  0.50235  Biso   1.000  N
  N29      1.0000 0.37264  0.10840  0.33833  Biso   1.000  N
  N30      1.0000 0.54677  0.51760  0.02270  Biso   1.000  N
  O5       1.0000 0.41732  0.98417  0.48672  Biso   1.000  O
  H68      1.0000 0.41260  0.03610  0.48740  Biso   1.000  H
  O6       1.0000 0.70647  0.26510  0.50797  Biso   1.000  O
  H69      1.0000 0.70790  0.27150  0.53800  Biso   1.000  H
  C83      1.0000 0.36020  0.30770  0.58072  Biso   1.000  C
  H70      1.0000 0.37510  0.34980  0.58290  Biso   1.000  H
  C84      1.0000 0.50889  0.33380  0.13004  Biso   1.000  C
  H71      1.0000 0.51660  0.28710  0.15200  Biso   1.000  H
  N31      1.0000 0.72853  0.23340  0.42301  Biso   1.000  N
  C85      1.0000 0.35355  0.57150  0.53308  Biso   1.000  C
  H72      1.0000 0.34930  0.58120  0.49850  Biso   1.000  H
  C86      1.0000 0.39709  0.25210  0.35443  Biso   1.000  C
  H73      1.0000 0.39760  0.24800  0.38820  Biso   1.000  H
  N32      1.0000 0.50087  0.43020  0.06551  Biso   1.000  N
  N33      1.0000 0.35449  0.97450  0.48757  Biso   1.000  N
  N34      1.0000 0.36757  0.00180  0.38932  Biso   1.000  N
  N35      1.0000 0.74771  0.88750  0.00899  Biso   1.000  N
  N36      1.0000 0.40471  0.84500  0.40844  Biso   1.000  N
  C87      1.0000 0.62720  0.36780  0.04339  Biso   1.000  C
  H74      1.0000 0.61200  0.34500  0.01620  Biso   1.000  H
  C88      1.0000 0.41778  0.80220  0.54193  Biso   1.000  C
  H75      1.0000 0.43490  0.83710  0.54770  Biso   1.000  H
  C89      1.0000 0.41491  0.73270  0.57089  Biso   1.000  C
  H76      1.0000 0.42940  0.71180  0.59960  Biso   1.000  H
  N37      1.0000 0.26480  0.46430  0.75350  Biso   1.000  N
  N38      1.0000 0.24702  0.45590  0.81780  Biso   1.000  N
  C90      1.0000 0.27120  0.42670  0.80084  Biso   1.000  C
  H77      1.0000 0.28740  0.39090  0.81760  Biso   1.000  H
  C91      1.0000 0.37340  0.75040  0.50829  Biso   1.000  C
  H78      1.0000 0.35400  0.74140  0.48690  Biso   1.000  H
  C92      1.0000 0.44255  0.79590  0.38190  Biso   1.000  C
  H79      1.0000 0.46120  0.79100  0.37630  Biso   1.000  H
  C93      1.0000 0.24129  0.50560  0.74473  Biso   1.000  C
  H80      1.0000 0.23320  0.53550  0.71430  Biso   1.000  H
  C94      1.0000 0.44132  0.47880  0.21079  Biso   1.000  C
  H81      1.0000 0.43230  0.53160  0.21520  Biso   1.000  H
  C95      1.0000 0.75444  0.03250  0.99823  Biso   1.000  C
  H82      1.0000 0.76010  0.08520  0.98650  Biso   1.000  H
  C96      1.0000 0.73492  0.26210  0.38210  Biso   1.000  C
  H83      1.0000 0.75240  0.29260  0.38280  Biso   1.000  H
  C97      1.0000 0.33763  0.93810  0.51582  Biso   1.000  C
  H84      1.0000 0.33220  0.87890  0.51500  Biso   1.000  H
  C98      1.0000 0.72390  0.24570  0.07070  Biso   1.000  C
  H85      1.0000 0.72620  0.30340  0.06110  Biso   1.000  H
  C99      1.0000 0.39127  0.61610  0.31307  Biso   1.000  C
  H86      1.0000 0.37310  0.64470  0.30970  Biso   1.000  H
  C100     1.0000 0.31961  0.36860  0.69394  Biso   1.000  C
  H87      1.0000 0.33280  0.32120  0.69880  Biso   1.000  H
  C101     1.0000 0.70143  0.19110  0.40468  Biso   1.000  C
  H88      1.0000 0.69140  0.16330  0.42480  Biso   1.000  H
  C102     1.0000 0.34707  0.06240  0.31300  Biso   1.000  C
  H89      1.0000 0.33420  0.07350  0.28060  Biso   1.000  H
  C103     1.0000 0.43362  0.86090  0.40791  Biso   1.000  C
  H90      1.0000 0.44530  0.90900  0.42300  Biso   1.000  H
  C104     1.0000 0.73615  0.25900  0.27165  Biso   1.000  C
  H91      1.0000 0.75500  0.24640  0.29440  Biso   1.000  H
  C105     1.0000 0.31447  0.26360  0.59618  Biso   1.000  C
  H92      1.0000 0.29850  0.27540  0.60860  Biso   1.000  H
  C106     1.0000 0.67604  0.35390  0.10452  Biso   1.000  C
  C107     1.0000 0.51687  0.35690  0.08832  Biso   1.000  C
  H93      1.0000 0.53110  0.32750  0.07690  Biso   1.000  H
  C108     1.0000 0.39619  0.77190  0.38220  Biso   1.000  C
  H94      1.0000 0.37720  0.74650  0.37590  Biso   1.000  H
  C109     1.0000 0.45844  0.47560  0.17765  Biso   1.000  C
  H95      1.0000 0.46110  0.52640  0.16060  Biso   1.000  H
  C110     1.0000 0.38380  0.06890  0.38360  Biso   1.000  C
  H96      1.0000 0.40120  0.08740  0.40820  Biso   1.000  H
  C111     1.0000 0.35648  0.05970  0.49913  Biso   1.000  C
  H97      1.0000 0.36640  0.10130  0.48540  Biso   1.000  H
  C112     1.0000 0.73001  0.09160  0.05947  Biso   1.000  C
  C113     1.0000 0.71087  0.22930  0.10870  Biso   1.000  C
  C114     1.0000 0.34026  0.16200  0.55609  Biso   1.000  C
  C115     1.0000 0.73653  0.93490  0.03945  Biso   1.000  C
  H98      1.0000 0.72730  0.91070  0.06180  Biso   1.000  H
  C116     1.0000 0.36220  0.22610  0.55962  Biso   1.000  C
  H99      1.0000 0.37840  0.21390  0.54770  Biso   1.000  H
  C117     1.0000 0.37312  0.62770  0.56782  Biso   1.000  C
  C118     1.0000 0.40847  0.32720  0.33734  Biso   1.000  C
  H100     1.0000 0.41660  0.37290  0.35980  Biso   1.000  H
  C119     1.0000 0.39538  0.26540  0.25399  Biso   1.000  C
  H101     1.0000 0.39440  0.26990  0.22010  Biso   1.000  H
  C120     1.0000 0.64736  0.48720  0.09974  Biso   1.000  C
  H102     1.0000 0.64550  0.54390  0.11110  Biso   1.000  H
  C121     1.0000 0.73344  0.17620  0.04720  Biso   1.000  C
  H103     1.0000 0.74250  0.18810  0.02230  Biso   1.000  H
  C122     1.0000 0.44548  0.61190  0.34594  Biso   1.000  C
  H104     1.0000 0.46350  0.63710  0.36520  Biso   1.000  H
  C123     1.0000 0.71700  0.07420  0.09631  Biso   1.000  C
  H105     1.0000 0.71450  0.01620  0.10520  Biso   1.000  H
  C124     1.0000 0.34683  0.48620  0.60213  Biso   1.000  C
  C125     1.0000 0.34445  0.99770  0.34500  Biso   1.000  C
  H106     1.0000 0.32900  0.95620  0.33780  Biso   1.000  H
  C126     1.0000 0.38448  0.19090  0.27096  Biso   1.000  C
  H107     1.0000 0.37670  0.14500  0.24860  Biso   1.000  H
  C127     1.0000 0.69100  0.19490  0.35253  Biso   1.000  C
  H108     1.0000 0.67320  0.17130  0.33120  Biso   1.000  H
  C128     1.0000 0.44543  0.53190  0.32219  Biso   1.000  C
  H109     1.0000 0.46360  0.50390  0.32470  Biso   1.000  H
  C129     1.0000 0.28383  0.45150  0.72014  Biso   1.000  C
  C130     1.0000 0.67366  0.43920  0.12039  Biso   1.000  C
  H110     1.0000 0.68970  0.46470  0.14500  Biso   1.000  H
  C131     1.0000 0.73300  0.27430  0.22069  Biso   1.000  C
  H111     1.0000 0.74980  0.27220  0.20930  Biso   1.000  H
  C132     1.0000 0.33589  0.32730  0.59876  Biso   1.000  C
  C133     1.0000 0.31663  0.18110  0.57497  Biso   1.000  C
  H112     1.0000 0.30200  0.13850  0.57350  Biso   1.000  H
  C134     1.0000 0.37921  0.61350  0.61900  Biso   1.000  C
  H113     1.0000 0.39210  0.65130  0.64210  Biso   1.000  H
  C135     1.0000 0.75880  0.94850  0.98301  Biso   1.000  C
  H114     1.0000 0.76800  0.93510  0.95850  Biso   1.000  H
  C136     1.0000 0.34036  0.50080  0.55058  Biso   1.000  C
  H115     1.0000 0.32720  0.46340  0.52760  Biso   1.000  H
  C137     1.0000 0.70746  0.14330  0.12054  Biso   1.000  C
  H116     1.0000 0.69850  0.13070  0.14550  Biso   1.000  H
  C138     1.0000 0.29886  0.49900  0.64897  Biso   1.000  C
  H117     1.0000 0.29770  0.53950  0.62320  Biso   1.000  H
  C139     1.0000 0.68009  0.30070  0.20533  Biso   1.000  C
  H118     1.0000 0.66130  0.31590  0.18340  Biso   1.000  H
  C140     1.0000 0.28209  0.51190  0.68174  Biso   1.000  C
  H119     1.0000 0.26970  0.56110  0.67810  Biso   1.000  H
  C141     1.0000 0.31736  0.42630  0.65424  Biso   1.000  C
  C142     1.0000 0.71097  0.26270  0.28798  Biso   1.000  C
  C143     1.0000 0.22800  0.50600  0.78018  Biso   1.000  C
  H120     1.0000 0.21010  0.53330  0.77990  Biso   1.000  H
  C144     1.0000 0.41836  0.65460  0.34086  Biso   1.000  C
  C145     1.0000 0.36614  0.54280  0.63610  Biso   1.000  C
  H121     1.0000 0.37040  0.53320  0.67070  Biso   1.000  H
  C146     1.0000 0.33001  0.00030  0.54486  Biso   1.000  C
  H122     1.0000 0.31900  0.99210  0.56750  Biso   1.000  H
  C147     1.0000 0.30260  0.38000  0.72644  Biso   1.000  C
  H123     1.0000 0.30390  0.33970  0.75230  Biso   1.000  H
  C148     1.0000 0.68349  0.28610  0.25556  Biso   1.000  C
  H124     1.0000 0.66710  0.29220  0.26770  Biso   1.000  H
  C149     1.0000 0.65331  0.31910  0.06541  Biso   1.000  C
  H125     1.0000 0.65530  0.26280  0.05350  Biso   1.000  H
  C150     1.0000 0.70467  0.29270  0.18678  Biso   1.000  C
  C151     1.0000 0.39157  0.53460  0.29043  Biso   1.000  C
  H126     1.0000 0.37350  0.50800  0.27230  Biso   1.000  H
  N39      1.0000 0.71262  0.24110  0.33900  Biso   1.000  N
  N40      1.0000 0.33418  0.41180  0.61985  Biso   1.000  N
  C152     1.0000 0.38509  0.18410  0.32144  Biso   1.000  C
  C153     1.0000 0.43756  0.40460  0.23734  Biso   1.000  C
  C154     1.0000 0.46832  0.32360  0.19704  Biso   1.000  C
  H127     1.0000 0.47740  0.27100  0.19250  Biso   1.000  H
  C155     1.0000 0.41859  0.49310  0.29476  Biso   1.000  C
  C156     1.0000 0.47137  0.39800  0.16997  Biso   1.000  C
  C157     1.0000 0.56115  0.59850  0.02863  Biso   1.000  C
  H128     1.0000 0.55150  0.65310  0.02410  Biso   1.000  H
  C158     1.0000 0.45172  0.32730  0.23100  Biso   1.000  C
  H129     1.0000 0.45010  0.27750  0.24960  Biso   1.000  H
  C159     1.0000 0.48281  0.44980  0.09372  Biso   1.000  C
  H130     1.0000 0.46910  0.49610  0.08690  Biso   1.000  H
  N41      1.0000 0.38686  0.69930  0.55001  Biso   1.000  N
  N42      1.0000 0.59595  0.49540  0.04450  Biso   1.000  N
  C160     1.0000 0.56820  0.45760  0.03210  Biso   1.000  C
  H131     1.0000 0.56480  0.39700  0.03050  Biso   1.000  H
  C161     1.0000 0.59159  0.58610  0.04215  Biso   1.000  C
  H132     1.0000 0.60640  0.62950  0.04850  Biso   1.000  H
  C162     1.0000 0.62430  0.44980  0.06243  Biso   1.000  C
  C163     1.0000 0.09228  0.83380  0.21306  Biso   1.000  C
  O7       1.0000 0.00423  0.12378  0.46604  Biso   1.000  O
  H133     1.0000 0.00830  0.11530  0.43970  Biso   1.000  H
  Ni3      1.0000 0.12080  0.40998  0.05343  Biso   1.000  Ni
  N43      1.0000 0.08062  0.91010  0.23008  Biso   1.000  N
  N44      1.0000 0.15809  0.57820  0.96613  Biso   1.000  N
  N45      1.0000 0.79831  0.80300  0.36672  Biso   1.000  N
  N46      1.0000 0.75987  0.52240  0.46597  Biso   1.000  N
  N47      1.0000 0.01292  0.89370  0.36685  Biso   1.000  N
  N48      1.0000 0.08151  0.23820  0.13451  Biso   1.000  N
  N49      1.0000 0.10862  0.31360  0.99765  Biso   1.000  N
  N50      1.0000 0.12736  0.60840  0.16167  Biso   1.000  N
  N51      1.0000 0.95323  0.01760  0.47730  Biso   1.000  N
  O8       1.0000 0.08268  0.48417  0.01328  Biso   1.000  O
  H134     1.0000 0.08740  0.53610  0.01260  Biso   1.000  H
  O9       1.0000 0.79353  0.76510  0.99203  Biso   1.000  O
  H135     1.0000 0.79210  0.77150  0.96200  Biso   1.000  H
  C164     1.0000 0.13980  0.80770  0.91928  Biso   1.000  C
  H136     1.0000 0.12490  0.84980  0.91710  Biso   1.000  H
  C165     1.0000 0.99111  0.83380  0.36996  Biso   1.000  C
  H137     1.0000 0.98340  0.78710  0.34800  Biso   1.000  H
  N52      1.0000 0.77147  0.73340  0.07699  Biso   1.000  N
  C166     1.0000 0.14645  0.07150  0.96692  Biso   1.000  C
  H138     1.0000 0.15070  0.08120  0.00150  Biso   1.000  H
  C167     1.0000 0.10291  0.75210  0.14557  Biso   1.000  C
  H139     1.0000 0.10240  0.74800  0.11180  Biso   1.000  H
  N53      1.0000 0.99913  0.93020  0.43449  Biso   1.000  N
  N54      1.0000 0.14551  0.47450  0.01243  Biso   1.000  N
  N55      1.0000 0.13243  0.50180  0.11068  Biso   1.000  N
  N56      1.0000 0.75229  0.38750  0.49101  Biso   1.000  N
  N57      1.0000 0.09529  0.34500  0.09156  Biso   1.000  N
  C168     1.0000 0.87280  0.86780  0.45661  Biso   1.000  C
  H140     1.0000 0.88800  0.84500  0.48380  Biso   1.000  H
  C169     1.0000 0.08222  0.30220  0.95807  Biso   1.000  C
  H141     1.0000 0.06510  0.33710  0.95230  Biso   1.000  H
  C170     1.0000 0.08509  0.23270  0.92911  Biso   1.000  C
  H142     1.0000 0.07060  0.21180  0.90040  Biso   1.000  H
  N58      1.0000 0.23520  0.96430  0.74650  Biso   1.000  N
  N59      1.0000 0.25298  0.95590  0.68220  Biso   1.000  N
  C171     1.0000 0.22880  0.92670  0.69916  Biso   1.000  C
  H143     1.0000 0.21260  0.89090  0.68240  Biso   1.000  H
  C172     1.0000 0.12660  0.25040  0.99171  Biso   1.000  C
  H144     1.0000 0.14600  0.24140  0.01310  Biso   1.000  H
  C173     1.0000 0.05745  0.29590  0.11810  Biso   1.000  C
  H145     1.0000 0.03880  0.29100  0.12370  Biso   1.000  H
  C174     1.0000 0.25871  0.00560  0.75527  Biso   1.000  C
  H146     1.0000 0.26680  0.03550  0.78570  Biso   1.000  H
  C175     1.0000 0.05868  0.97880  0.28921  Biso   1.000  C
  H147     1.0000 0.06770  0.03160  0.28480  Biso   1.000  H
  C176     1.0000 0.74556  0.53250  0.50177  Biso   1.000  C
  H148     1.0000 0.73990  0.58520  0.51350  Biso   1.000  H
  C177     1.0000 0.76508  0.76210  0.11790  Biso   1.000  C
  H149     1.0000 0.74760  0.79260  0.11720  Biso   1.000  H
  C178     1.0000 0.16237  0.43810  0.98418  Biso   1.000  C
  H150     1.0000 0.16780  0.37890  0.98500  Biso   1.000  H
  C179     1.0000 0.77610  0.74570  0.42930  Biso   1.000  C
  H151     1.0000 0.77380  0.80340  0.43890  Biso   1.000  H
  C180     1.0000 0.10873  0.11610  0.18693  Biso   1.000  C
  H152     1.0000 0.12690  0.14470  0.19030  Biso   1.000  H
  C181     1.0000 0.18039  0.86860  0.80606  Biso   1.000  C
  H153     1.0000 0.16720  0.82120  0.80120  Biso   1.000  H
  C182     1.0000 0.79857  0.69110  0.09532  Biso   1.000  C
  H154     1.0000 0.80860  0.66330  0.07520  Biso   1.000  H
  C183     1.0000 0.15293  0.56240  0.18700  Biso   1.000  C
  H155     1.0000 0.16580  0.57350  0.21940  Biso   1.000  H
  C184     1.0000 0.06638  0.36090  0.09209  Biso   1.000  C
  H156     1.0000 0.05470  0.40900  0.07700  Biso   1.000  H
  C185     1.0000 0.76385  0.75900  0.22835  Biso   1.000  C
  H157     1.0000 0.74500  0.74640  0.20560  Biso   1.000  H
  C186     1.0000 0.18553  0.76360  0.90382  Biso   1.000  C
  H158     1.0000 0.20150  0.77540  0.89140  Biso   1.000  H
  C187     1.0000 0.82396  0.85390  0.39548  Biso   1.000  C
  C188     1.0000 0.98313  0.85690  0.41168  Biso   1.000  C
  H159     1.0000 0.96890  0.82750  0.42310  Biso   1.000  H
  C189     1.0000 0.10381  0.27190  0.11780  Biso   1.000  C
  H160     1.0000 0.12280  0.24650  0.12410  Biso   1.000  H
  C190     1.0000 0.04156  0.97560  0.32235  Biso   1.000  C
  H161     1.0000 0.03890  0.02640  0.33940  Biso   1.000  H
  C191     1.0000 0.11620  0.56890  0.11640  Biso   1.000  C
  H162     1.0000 0.09880  0.58740  0.09180  Biso   1.000  H
  C192     1.0000 0.14352  0.55970  0.00087  Biso   1.000  C
  H163     1.0000 0.13360  0.60130  0.01460  Biso   1.000  H
  C193     1.0000 0.76999  0.59160  0.44053  Biso   1.000  C
  C194     1.0000 0.78913  0.72930  0.39130  Biso   1.000  C
  C195     1.0000 0.15974  0.66200  0.94391  Biso   1.000  C
  C196     1.0000 0.76347  0.43490  0.46055  Biso   1.000  C
  H164     1.0000 0.77270  0.41070  0.43820  Biso   1.000  H
  C197     1.0000 0.13780  0.72610  0.94038  Biso   1.000  C
  H165     1.0000 0.12160  0.71390  0.95230  Biso   1.000  H
  C198     1.0000 0.12688  0.12770  0.93218  Biso   1.000  C
  C199     1.0000 0.09153  0.82720  0.16266  Biso   1.000  C
  H166     1.0000 0.08340  0.87290  0.14020  Biso   1.000  H
  C200     1.0000 0.10462  0.76540  0.24601  Biso   1.000  C
  H167     1.0000 0.10560  0.76990  0.27990  Biso   1.000  H
  C201     1.0000 0.85264  0.98720  0.40026  Biso   1.000  C
  H168     1.0000 0.85450  0.04390  0.38890  Biso   1.000  H
  C202     1.0000 0.76656  0.67620  0.45280  Biso   1.000  C
  H169     1.0000 0.75750  0.68810  0.47770  Biso   1.000  H
  C203     1.0000 0.05452  0.11190  0.15406  Biso   1.000  C
  H170     1.0000 0.03650  0.13710  0.13480  Biso   1.000  H
  C204     1.0000 0.78300  0.57420  0.40369  Biso   1.000  C
  H171     1.0000 0.78550  0.51620  0.39480  Biso   1.000  H
  C205     1.0000 0.15317  0.98620  0.89787  Biso   1.000  C
  C206     1.0000 0.15555  0.49770  0.15500  Biso   1.000  C
  H172     1.0000 0.17100  0.45620  0.16220  Biso   1.000  H
  C207     1.0000 0.11552  0.69090  0.22904  Biso   1.000  C
  H173     1.0000 0.12330  0.64500  0.25140  Biso   1.000  H
  C208     1.0000 0.80900  0.69490  0.14747  Biso   1.000  C
  H174     1.0000 0.82680  0.67130  0.16880  Biso   1.000  H
  C209     1.0000 0.05457  0.03190  0.17781  Biso   1.000  C
  H175     1.0000 0.03640  0.00390  0.17530  Biso   1.000  H
  C210     1.0000 0.21617  0.95150  0.77986  Biso   1.000  C
  C211     1.0000 0.82634  0.93920  0.37961  Biso   1.000  C
  H176     1.0000 0.81030  0.96470  0.35500  Biso   1.000  H
  C212     1.0000 0.76700  0.77430  0.27931  Biso   1.000  C
  H177     1.0000 0.75020  0.77220  0.29070  Biso   1.000  H
  C213     1.0000 0.16411  0.82730  0.90124  Biso   1.000  C
  C214     1.0000 0.18337  0.68110  0.92503  Biso   1.000  C
  H178     1.0000 0.19800  0.63850  0.92650  Biso   1.000  H
  C215     1.0000 0.12079  0.11350  0.88100  Biso   1.000  C
  H179     1.0000 0.10790  0.15130  0.85790  Biso   1.000  H
  C216     1.0000 0.74120  0.44850  0.51699  Biso   1.000  C
  H180     1.0000 0.73200  0.43510  0.54150  Biso   1.000  H
  C217     1.0000 0.15964  0.00080  0.94942  Biso   1.000  C
  H181     1.0000 0.17280  0.96340  0.97240  Biso   1.000  H
  C218     1.0000 0.79254  0.64330  0.37946  Biso   1.000  C
  H182     1.0000 0.80150  0.63070  0.35450  Biso   1.000  H
  C219     1.0000 0.20114  0.99900  0.85103  Biso   1.000  C
  H183     1.0000 0.20230  0.03950  0.87680  Biso   1.000  H
  C220     1.0000 0.81991  0.80070  0.29467  Biso   1.000  C
  H184     1.0000 0.83870  0.81590  0.31660  Biso   1.000  H
  C221     1.0000 0.21791  0.01190  0.81826  Biso   1.000  C
  H185     1.0000 0.23030  0.06110  0.82190  Biso   1.000  H
  C222     1.0000 0.18264  0.92630  0.84576  Biso   1.000  C
  C223     1.0000 0.78903  0.76270  0.21202  Biso   1.000  C
  C224     1.0000 0.27200  0.00600  0.71982  Biso   1.000  C
  H186     1.0000 0.28990  0.03330  0.72010  Biso   1.000  H
  C225     1.0000 0.08164  0.15460  0.15914  Biso   1.000  C
  C226     1.0000 0.13386  0.04280  0.86390  Biso   1.000  C
  H187     1.0000 0.12960  0.03320  0.82930  Biso   1.000  H
  C227     1.0000 0.16999  0.50030  0.95514  Biso   1.000  C
  H188     1.0000 0.18100  0.49210  0.93250  Biso   1.000  H
  C228     1.0000 0.19740  0.88000  0.77356  Biso   1.000  C
  H189     1.0000 0.19610  0.83970  0.74770  Biso   1.000  H
  C229     1.0000 0.81651  0.78610  0.24444  Biso   1.000  C
  H190     1.0000 0.83290  0.79220  0.23230  Biso   1.000  H
  C230     1.0000 0.84669  0.81910  0.43459  Biso   1.000  C
  H191     1.0000 0.84470  0.76280  0.44650  Biso   1.000  H
  C231     1.0000 0.79533  0.79270  0.31322  Biso   1.000  C
  C232     1.0000 0.10843  0.03460  0.20957  Biso   1.000  C
  H192     1.0000 0.12650  0.00800  0.22770  Biso   1.000  H
  N60      1.0000 0.78738  0.74110  0.16100  Biso   1.000  N
  N61      1.0000 0.16582  0.91180  0.88015  Biso   1.000  N
  C233     1.0000 0.11491  0.68410  0.17856  Biso   1.000  C
  C234     1.0000 0.06244  0.90460  0.26266  Biso   1.000  C
  C235     1.0000 0.03168  0.82360  0.30296  Biso   1.000  C
  H193     1.0000 0.02260  0.77100  0.30750  Biso   1.000  H
  C236     1.0000 0.08141  0.99310  0.20524  Biso   1.000  C
  C237     1.0000 0.02863  0.89800  0.33003  Biso   1.000  C
  C238     1.0000 0.93885  0.09850  0.47137  Biso   1.000  C
  H194     1.0000 0.94850  0.15310  0.47590  Biso   1.000  H
  C239     1.0000 0.04828  0.82730  0.26900  Biso   1.000  C
  H195     1.0000 0.04990  0.77750  0.25040  Biso   1.000  H
  C240     1.0000 0.01719  0.94980  0.40628  Biso   1.000  C
  H196     1.0000 0.03090  0.99610  0.41310  Biso   1.000  H
  N62      1.0000 0.11314  0.19930  0.94999  Biso   1.000  N
  N63      1.0000 0.90405  0.99540  0.45550  Biso   1.000  N
  C241     1.0000 0.93180  0.95760  0.46790  Biso   1.000  C
  H197     1.0000 0.93520  0.89700  0.46950  Biso   1.000  H
  C242     1.0000 0.90841  0.08610  0.45785  Biso   1.000  C
  H198     1.0000 0.89360  0.12950  0.45150  Biso   1.000  H
  C243     1.0000 0.87570  0.94980  0.43757  Biso   1.000  C
  C244     1.0000 0.59228  0.33380  0.21306  Biso   1.000  C
  O10      1.0000 0.50423  0.62378  0.46604  Biso   1.000  O
  H199     1.0000 0.50830  0.61530  0.43970  Biso   1.000  H
  Ni4      1.0000 0.62080  0.90998  0.05343  Biso   1.000  Ni
  N64      1.0000 0.58062  0.41010  0.23008  Biso   1.000  N
  N65      1.0000 0.65809  0.07820  0.96613  Biso   1.000  N
  N66      1.0000 0.29831  0.30300  0.36672  Biso   1.000  N
  N67      1.0000 0.25987  0.02240  0.46597  Biso   1.000  N
  N68      1.0000 0.51292  0.39370  0.36685  Biso   1.000  N
  N69      1.0000 0.58151  0.73820  0.13451  Biso   1.000  N
  N70      1.0000 0.60862  0.81360  0.99765  Biso   1.000  N
  N71      1.0000 0.62736  0.10840  0.16167  Biso   1.000  N
  N72      1.0000 0.45323  0.51760  0.47730  Biso   1.000  N
  O11      1.0000 0.58268  0.98417  0.01328  Biso   1.000  O
  H200     1.0000 0.58740  0.03610  0.01260  Biso   1.000  H
  O12      1.0000 0.29353  0.26510  0.99203  Biso   1.000  O
  H201     1.0000 0.29210  0.27150  0.96200  Biso   1.000  H
  C245     1.0000 0.63980  0.30770  0.91928  Biso   1.000  C
  H202     1.0000 0.62490  0.34980  0.91710  Biso   1.000  H
  C246     1.0000 0.49111  0.33380  0.36996  Biso   1.000  C
  H203     1.0000 0.48340  0.28710  0.34800  Biso   1.000  H
  N73      1.0000 0.27147  0.23340  0.07699  Biso   1.000  N
  C247     1.0000 0.64645  0.57150  0.96692  Biso   1.000  C
  H204     1.0000 0.65070  0.58120  0.00150  Biso   1.000  H
  C248     1.0000 0.60291  0.25210  0.14557  Biso   1.000  C
  H205     1.0000 0.60240  0.24800  0.11180  Biso   1.000  H
  N74      1.0000 0.49913  0.43020  0.43449  Biso   1.000  N
  N75      1.0000 0.64551  0.97450  0.01243  Biso   1.000  N
  N76      1.0000 0.63243  0.00180  0.11068  Biso   1.000  N
  N77      1.0000 0.25229  0.88750  0.49101  Biso   1.000  N
  N78      1.0000 0.59529  0.84500  0.09156  Biso   1.000  N
  C249     1.0000 0.37280  0.36780  0.45661  Biso   1.000  C
  H206     1.0000 0.38800  0.34500  0.48380  Biso   1.000  H
  C250     1.0000 0.58222  0.80220  0.95807  Biso   1.000  C
  H207     1.0000 0.56510  0.83710  0.95230  Biso   1.000  H
  C251     1.0000 0.58509  0.73270  0.92911  Biso   1.000  C
  H208     1.0000 0.57060  0.71180  0.90040  Biso   1.000  H
  N79      1.0000 0.73520  0.46430  0.74650  Biso   1.000  N
  N80      1.0000 0.75298  0.45590  0.68220  Biso   1.000  N
  C252     1.0000 0.72880  0.42670  0.69916  Biso   1.000  C
  H209     1.0000 0.71260  0.39090  0.68240  Biso   1.000  H
  C253     1.0000 0.62660  0.75040  0.99171  Biso   1.000  C
  H210     1.0000 0.64600  0.74140  0.01310  Biso   1.000  H
  C254     1.0000 0.55745  0.79590  0.11810  Biso   1.000  C
  H211     1.0000 0.53880  0.79100  0.12370  Biso   1.000  H
  C255     1.0000 0.75871  0.50560  0.75527  Biso   1.000  C
  H212     1.0000 0.76680  0.53550  0.78570  Biso   1.000  H
  C256     1.0000 0.55868  0.47880  0.28921  Biso   1.000  C
  H213     1.0000 0.56770  0.53160  0.28480  Biso   1.000  H
  C257     1.0000 0.24556  0.03250  0.50177  Biso   1.000  C
  H214     1.0000 0.23990  0.08520  0.51350  Biso   1.000  H
  C258     1.0000 0.26508  0.26210  0.11790  Biso   1.000  C
  H215     1.0000 0.24760  0.29260  0.11720  Biso   1.000  H
  C259     1.0000 0.66237  0.93810  0.98418  Biso   1.000  C
  H216     1.0000 0.66780  0.87890  0.98500  Biso   1.000  H
  C260     1.0000 0.27610  0.24570  0.42930  Biso   1.000  C
  H217     1.0000 0.27380  0.30340  0.43890  Biso   1.000  H
  C261     1.0000 0.60873  0.61610  0.18693  Biso   1.000  C
  H218     1.0000 0.62690  0.64470  0.19030  Biso   1.000  H
  C262     1.0000 0.68039  0.36860  0.80606  Biso   1.000  C
  H219     1.0000 0.66720  0.32120  0.80120  Biso   1.000  H
  C263     1.0000 0.29857  0.19110  0.09532  Biso   1.000  C
  H220     1.0000 0.30860  0.16330  0.07520  Biso   1.000  H
  C264     1.0000 0.65293  0.06240  0.18700  Biso   1.000  C
  H221     1.0000 0.66580  0.07350  0.21940  Biso   1.000  H
  C265     1.0000 0.56638  0.86090  0.09209  Biso   1.000  C
  H222     1.0000 0.55470  0.90900  0.07700  Biso   1.000  H
  C266     1.0000 0.26385  0.25900  0.22835  Biso   1.000  C
  H223     1.0000 0.24500  0.24640  0.20560  Biso   1.000  H
  C267     1.0000 0.68553  0.26360  0.90382  Biso   1.000  C
  H224     1.0000 0.70150  0.27540  0.89140  Biso   1.000  H
  C268     1.0000 0.32396  0.35390  0.39548  Biso   1.000  C
  C269     1.0000 0.48313  0.35690  0.41168  Biso   1.000  C
  H225     1.0000 0.46890  0.32750  0.42310  Biso   1.000  H
  C270     1.0000 0.60381  0.77190  0.11780  Biso   1.000  C
  H226     1.0000 0.62280  0.74650  0.12410  Biso   1.000  H
  C271     1.0000 0.54156  0.47560  0.32235  Biso   1.000  C
  H227     1.0000 0.53890  0.52640  0.33940  Biso   1.000  H
  C272     1.0000 0.61620  0.06890  0.11640  Biso   1.000  C
  H228     1.0000 0.59880  0.08740  0.09180  Biso   1.000  H
  C273     1.0000 0.64352  0.05970  0.00087  Biso   1.000  C
  H229     1.0000 0.63360  0.10130  0.01460  Biso   1.000  H
  C274     1.0000 0.26999  0.09160  0.44053  Biso   1.000  C
  C275     1.0000 0.28913  0.22930  0.39130  Biso   1.000  C
  C276     1.0000 0.65974  0.16200  0.94391  Biso   1.000  C
  C277     1.0000 0.26347  0.93490  0.46055  Biso   1.000  C
  H230     1.0000 0.27270  0.91070  0.43820  Biso   1.000  H
  C278     1.0000 0.63780  0.22610  0.94038  Biso   1.000  C
  H231     1.0000 0.62160  0.21390  0.95230  Biso   1.000  H
  C279     1.0000 0.62688  0.62770  0.93218  Biso   1.000  C
  C280     1.0000 0.59153  0.32720  0.16266  Biso   1.000  C
  H232     1.0000 0.58340  0.37290  0.14020  Biso   1.000  H
  C281     1.0000 0.60462  0.26540  0.24601  Biso   1.000  C
  H233     1.0000 0.60560  0.26990  0.27990  Biso   1.000  H
  C282     1.0000 0.35264  0.48720  0.40026  Biso   1.000  C
  H234     1.0000 0.35450  0.54390  0.38890  Biso   1.000  H
  C283     1.0000 0.26656  0.17620  0.45280  Biso   1.000  C
  H235     1.0000 0.25750  0.18810  0.47770  Biso   1.000  H
  C284     1.0000 0.55452  0.61190  0.15406  Biso   1.000  C
  H236     1.0000 0.53650  0.63710  0.13480  Biso   1.000  H
  C285     1.0000 0.28300  0.07420  0.40369  Biso   1.000  C
  H237     1.0000 0.28550  0.01620  0.39480  Biso   1.000  H
  C286     1.0000 0.65317  0.48620  0.89787  Biso   1.000  C
  C287     1.0000 0.65555  0.99770  0.15500  Biso   1.000  C
  H238     1.0000 0.67100  0.95620  0.16220  Biso   1.000  H
  C288     1.0000 0.61552  0.19090  0.22904  Biso   1.000  C
  H239     1.0000 0.62330  0.14500  0.25140  Biso   1.000  H
  C289     1.0000 0.30900  0.19490  0.14747  Biso   1.000  C
  H240     1.0000 0.32680  0.17130  0.16880  Biso   1.000  H
  C290     1.0000 0.55457  0.53190  0.17781  Biso   1.000  C
  H241     1.0000 0.53640  0.50390  0.17530  Biso   1.000  H
  C291     1.0000 0.71617  0.45150  0.77986  Biso   1.000  C
  C292     1.0000 0.32634  0.43920  0.37961  Biso   1.000  C
  H242     1.0000 0.31030  0.46470  0.35500  Biso   1.000  H
  C293     1.0000 0.26700  0.27430  0.27931  Biso   1.000  C
  H243     1.0000 0.25020  0.27220  0.29070  Biso   1.000  H
  C294     1.0000 0.66411  0.32730  0.90124  Biso   1.000  C
  C295     1.0000 0.68337  0.18110  0.92503  Biso   1.000  C
  H244     1.0000 0.69800  0.13850  0.92650  Biso   1.000  H
  C296     1.0000 0.62079  0.61350  0.88100  Biso   1.000  C
  H245     1.0000 0.60790  0.65130  0.85790  Biso   1.000  H
  C297     1.0000 0.24120  0.94850  0.51699  Biso   1.000  C
  H246     1.0000 0.23200  0.93510  0.54150  Biso   1.000  H
  C298     1.0000 0.65964  0.50080  0.94942  Biso   1.000  C
  H247     1.0000 0.67280  0.46340  0.97240  Biso   1.000  H
  C299     1.0000 0.29254  0.14330  0.37946  Biso   1.000  C
  H248     1.0000 0.30150  0.13070  0.35450  Biso   1.000  H
  C300     1.0000 0.70114  0.49900  0.85103  Biso   1.000  C
  H249     1.0000 0.70230  0.53950  0.87680  Biso   1.000  H
  C301     1.0000 0.31991  0.30070  0.29467  Biso   1.000  C
  H250     1.0000 0.33870  0.31590  0.31660  Biso   1.000  H
  C302     1.0000 0.71791  0.51190  0.81826  Biso   1.000  C
  H251     1.0000 0.73030  0.56110  0.82190  Biso   1.000  H
  C303     1.0000 0.68264  0.42630  0.84576  Biso   1.000  C
  C304     1.0000 0.28903  0.26270  0.21202  Biso   1.000  C
  C305     1.0000 0.77200  0.50600  0.71982  Biso   1.000  C
  H252     1.0000 0.78990  0.53330  0.72010  Biso   1.000  H
  C306     1.0000 0.58164  0.65460  0.15914  Biso   1.000  C
  C307     1.0000 0.63386  0.54280  0.86390  Biso   1.000  C
  H253     1.0000 0.62960  0.53320  0.82930  Biso   1.000  H
  C308     1.0000 0.66999  0.00030  0.95514  Biso   1.000  C
  H254     1.0000 0.68100  0.99210  0.93250  Biso   1.000  H
  C309     1.0000 0.69740  0.38000  0.77356  Biso   1.000  C
  H255     1.0000 0.69610  0.33970  0.74770  Biso   1.000  H
  C310     1.0000 0.31651  0.28610  0.24444  Biso   1.000  C
  H256     1.0000 0.33290  0.29220  0.23230  Biso   1.000  H
  C311     1.0000 0.34669  0.31910  0.43459  Biso   1.000  C
  H257     1.0000 0.34470  0.26280  0.44650  Biso   1.000  H
  C312     1.0000 0.29533  0.29270  0.31322  Biso   1.000  C
  C313     1.0000 0.60843  0.53460  0.20957  Biso   1.000  C
  H258     1.0000 0.62650  0.50800  0.22770  Biso   1.000  H
  N81      1.0000 0.28738  0.24110  0.16100  Biso   1.000  N
  N82      1.0000 0.66582  0.41180  0.88015  Biso   1.000  N
  C314     1.0000 0.61491  0.18410  0.17856  Biso   1.000  C
  C315     1.0000 0.56244  0.40460  0.26266  Biso   1.000  C
  C316     1.0000 0.53168  0.32360  0.30296  Biso   1.000  C
  H259     1.0000 0.52260  0.27100  0.30750  Biso   1.000  H
  C317     1.0000 0.58141  0.49310  0.20524  Biso   1.000  C
  C318     1.0000 0.52863  0.39800  0.33003  Biso   1.000  C
  C319     1.0000 0.43885  0.59850  0.47137  Biso   1.000  C
  H260     1.0000 0.44850  0.65310  0.47590  Biso   1.000  H
  C320     1.0000 0.54828  0.32730  0.26900  Biso   1.000  C
  H261     1.0000 0.54990  0.27750  0.25040  Biso   1.000  H
  C321     1.0000 0.51719  0.44980  0.40628  Biso   1.000  C
  H262     1.0000 0.53090  0.49610  0.41310  Biso   1.000  H
  N83      1.0000 0.61314  0.69930  0.94999  Biso   1.000  N
  N84      1.0000 0.40405  0.49540  0.45550  Biso   1.000  N
  C322     1.0000 0.43180  0.45760  0.46790  Biso   1.000  C
  H263     1.0000 0.43520  0.39700  0.46950  Biso   1.000  H
  C323     1.0000 0.40841  0.58610  0.45785  Biso   1.000  C
  H264     1.0000 0.39360  0.62950  0.45150  Biso   1.000  H
  C324     1.0000 0.37570  0.44980  0.43757  Biso   1.000  C
  C325     1.0000 0.09228  0.16620  0.71306  Biso   1.000  C
  O13      1.0000 0.00423  0.87622  0.96604  Biso   1.000  O
  H265     1.0000 0.00830  0.88470  0.93970  Biso   1.000  H
  Ni5      1.0000 0.12080  0.59002  0.55343  Biso   1.000  Ni
  N85      1.0000 0.08062  0.08990  0.73008  Biso   1.000  N
  N86      1.0000 0.15809  0.42180  0.46613  Biso   1.000  N
  N87      1.0000 0.79831  0.19700  0.86672  Biso   1.000  N
  N88      1.0000 0.75987  0.47760  0.96597  Biso   1.000  N
  N89      1.0000 0.01292  0.10630  0.86685  Biso   1.000  N
  N90      1.0000 0.08151  0.76180  0.63451  Biso   1.000  N
  N91      1.0000 0.10862  0.68640  0.49765  Biso   1.000  N
  N92      1.0000 0.12736  0.39160  0.66167  Biso   1.000  N
  N93      1.0000 0.95323  0.98240  0.97730  Biso   1.000  N
  O14      1.0000 0.08268  0.51583  0.51328  Biso   1.000  O
  H266     1.0000 0.08740  0.46390  0.51260  Biso   1.000  H
  O15      1.0000 0.79353  0.23490  0.49203  Biso   1.000  O
  H267     1.0000 0.79210  0.22850  0.46200  Biso   1.000  H
  C326     1.0000 0.13980  0.19230  0.41928  Biso   1.000  C
  H268     1.0000 0.12490  0.15020  0.41710  Biso   1.000  H
  C327     1.0000 0.99111  0.16620  0.86996  Biso   1.000  C
  H269     1.0000 0.98340  0.21290  0.84800  Biso   1.000  H
  N94      1.0000 0.77147  0.26660  0.57699  Biso   1.000  N
  C328     1.0000 0.14645  0.92850  0.46692  Biso   1.000  C
  H270     1.0000 0.15070  0.91880  0.50150  Biso   1.000  H
  C329     1.0000 0.10291  0.24790  0.64557  Biso   1.000  C
  H271     1.0000 0.10240  0.25200  0.61180  Biso   1.000  H
  N95      1.0000 0.99913  0.06980  0.93449  Biso   1.000  N
  N96      1.0000 0.14551  0.52550  0.51243  Biso   1.000  N
  N97      1.0000 0.13243  0.49820  0.61068  Biso   1.000  N
  N98      1.0000 0.75229  0.61250  0.99101  Biso   1.000  N
  N99      1.0000 0.09529  0.65500  0.59156  Biso   1.000  N
  C330     1.0000 0.87280  0.13220  0.95661  Biso   1.000  C
  H272     1.0000 0.88800  0.15500  0.98380  Biso   1.000  H
  C331     1.0000 0.08222  0.69780  0.45807  Biso   1.000  C
  H273     1.0000 0.06510  0.66290  0.45230  Biso   1.000  H
  C332     1.0000 0.08509  0.76730  0.42911  Biso   1.000  C
  H274     1.0000 0.07060  0.78820  0.40040  Biso   1.000  H
  N100     1.0000 0.23520  0.03570  0.24650  Biso   1.000  N
  N101     1.0000 0.25298  0.04410  0.18220  Biso   1.000  N
  C333     1.0000 0.22880  0.07330  0.19916  Biso   1.000  C
  H275     1.0000 0.21260  0.10910  0.18240  Biso   1.000  H
  C334     1.0000 0.12660  0.74960  0.49171  Biso   1.000  C
  H276     1.0000 0.14600  0.75860  0.51310  Biso   1.000  H
  C335     1.0000 0.05745  0.70410  0.61810  Biso   1.000  C
  H277     1.0000 0.03880  0.70900  0.62370  Biso   1.000  H
  C336     1.0000 0.25871  0.99440  0.25527  Biso   1.000  C
  H278     1.0000 0.26680  0.96450  0.28570  Biso   1.000  H
  C337     1.0000 0.05868  0.02120  0.78921  Biso   1.000  C
  H279     1.0000 0.06770  0.96840  0.78480  Biso   1.000  H
  C338     1.0000 0.74556  0.46750  0.00177  Biso   1.000  C
  H280     1.0000 0.73990  0.41480  0.01350  Biso   1.000  H
  C339     1.0000 0.76508  0.23790  0.61790  Biso   1.000  C
  H281     1.0000 0.74760  0.20740  0.61720  Biso   1.000  H
  C340     1.0000 0.16237  0.56190  0.48418  Biso   1.000  C
  H282     1.0000 0.16780  0.62110  0.48500  Biso   1.000  H
  C341     1.0000 0.77610  0.25430  0.92930  Biso   1.000  C
  H283     1.0000 0.77380  0.19660  0.93890  Biso   1.000  H
  C342     1.0000 0.10873  0.88390  0.68693  Biso   1.000  C
  H284     1.0000 0.12690  0.85530  0.69030  Biso   1.000  H
  C343     1.0000 0.18039  0.13140  0.30606  Biso   1.000  C
  H285     1.0000 0.16720  0.17880  0.30120  Biso   1.000  H
  C344     1.0000 0.79857  0.30890  0.59532  Biso   1.000  C
  H286     1.0000 0.80860  0.33670  0.57520  Biso   1.000  H
  C345     1.0000 0.15293  0.43760  0.68700  Biso   1.000  C
  H287     1.0000 0.16580  0.42650  0.71940  Biso   1.000  H
  C346     1.0000 0.06638  0.63910  0.59209  Biso   1.000  C
  H288     1.0000 0.05470  0.59100  0.57700  Biso   1.000  H
  C347     1.0000 0.76385  0.24100  0.72835  Biso   1.000  C
  H289     1.0000 0.74500  0.25360  0.70560  Biso   1.000  H
  C348     1.0000 0.18553  0.23640  0.40382  Biso   1.000  C
  H290     1.0000 0.20150  0.22460  0.39140  Biso   1.000  H
  C349     1.0000 0.82396  0.14610  0.89548  Biso   1.000  C
  C350     1.0000 0.98313  0.14310  0.91168  Biso   1.000  C
  H291     1.0000 0.96890  0.17250  0.92310  Biso   1.000  H
  C351     1.0000 0.10381  0.72810  0.61780  Biso   1.000  C
  H292     1.0000 0.12280  0.75350  0.62410  Biso   1.000  H
  C352     1.0000 0.04156  0.02440  0.82235  Biso   1.000  C
  H293     1.0000 0.03890  0.97360  0.83940  Biso   1.000  H
  C353     1.0000 0.11620  0.43110  0.61640  Biso   1.000  C
  H294     1.0000 0.09880  0.41260  0.59180  Biso   1.000  H
  C354     1.0000 0.14352  0.44030  0.50087  Biso   1.000  C
  H295     1.0000 0.13360  0.39870  0.51460  Biso   1.000  H
  C355     1.0000 0.76999  0.40840  0.94053  Biso   1.000  C
  C356     1.0000 0.78913  0.27070  0.89130  Biso   1.000  C
  C357     1.0000 0.15974  0.33800  0.44391  Biso   1.000  C
  C358     1.0000 0.76347  0.56510  0.96055  Biso   1.000  C
  H296     1.0000 0.77270  0.58930  0.93820  Biso   1.000  H
  C359     1.0000 0.13780  0.27390  0.44038  Biso   1.000  C
  H297     1.0000 0.12160  0.28610  0.45230  Biso   1.000  H
  C360     1.0000 0.12688  0.87230  0.43218  Biso   1.000  C
  C361     1.0000 0.09153  0.17280  0.66266  Biso   1.000  C
  H298     1.0000 0.08340  0.12710  0.64020  Biso   1.000  H
  C362     1.0000 0.10462  0.23460  0.74601  Biso   1.000  C
  H299     1.0000 0.10560  0.23010  0.77990  Biso   1.000  H
  C363     1.0000 0.85264  0.01280  0.90026  Biso   1.000  C
  H300     1.0000 0.85450  0.95610  0.88890  Biso   1.000  H
  C364     1.0000 0.76656  0.32380  0.95280  Biso   1.000  C
  H301     1.0000 0.75750  0.31190  0.97770  Biso   1.000  H
  C365     1.0000 0.05452  0.88810  0.65406  Biso   1.000  C
  H302     1.0000 0.03650  0.86290  0.63480  Biso   1.000  H
  C366     1.0000 0.78300  0.42580  0.90369  Biso   1.000  C
  H303     1.0000 0.78550  0.48380  0.89480  Biso   1.000  H
  C367     1.0000 0.15317  0.01380  0.39787  Biso   1.000  C
  C368     1.0000 0.15555  0.50230  0.65500  Biso   1.000  C
  H304     1.0000 0.17100  0.54380  0.66220  Biso   1.000  H
  C369     1.0000 0.11552  0.30910  0.72904  Biso   1.000  C
  H305     1.0000 0.12330  0.35500  0.75140  Biso   1.000  H
  C370     1.0000 0.80900  0.30510  0.64747  Biso   1.000  C
  H306     1.0000 0.82680  0.32870  0.66880  Biso   1.000  H
  C371     1.0000 0.05457  0.96810  0.67781  Biso   1.000  C
  H307     1.0000 0.03640  0.99610  0.67530  Biso   1.000  H
  C372     1.0000 0.21617  0.04850  0.27986  Biso   1.000  C
  C373     1.0000 0.82634  0.06080  0.87961  Biso   1.000  C
  H308     1.0000 0.81030  0.03530  0.85500  Biso   1.000  H
  C374     1.0000 0.76700  0.22570  0.77931  Biso   1.000  C
  H309     1.0000 0.75020  0.22780  0.79070  Biso   1.000  H
  C375     1.0000 0.16411  0.17270  0.40124  Biso   1.000  C
  C376     1.0000 0.18337  0.31890  0.42503  Biso   1.000  C
  H310     1.0000 0.19800  0.36150  0.42650  Biso   1.000  H
  C377     1.0000 0.12079  0.88650  0.38100  Biso   1.000  C
  H311     1.0000 0.10790  0.84870  0.35790  Biso   1.000  H
  C378     1.0000 0.74120  0.55150  0.01699  Biso   1.000  C
  H312     1.0000 0.73200  0.56490  0.04150  Biso   1.000  H
  C379     1.0000 0.15964  0.99920  0.44942  Biso   1.000  C
  H313     1.0000 0.17280  0.03660  0.47240  Biso   1.000  H
  C380     1.0000 0.79254  0.35670  0.87946  Biso   1.000  C
  H314     1.0000 0.80150  0.36930  0.85450  Biso   1.000  H
  C381     1.0000 0.20114  0.00100  0.35103  Biso   1.000  C
  H315     1.0000 0.20230  0.96050  0.37680  Biso   1.000  H
  C382     1.0000 0.81991  0.19930  0.79467  Biso   1.000  C
  H316     1.0000 0.83870  0.18410  0.81660  Biso   1.000  H
  C383     1.0000 0.21791  0.98810  0.31826  Biso   1.000  C
  H317     1.0000 0.23030  0.93890  0.32190  Biso   1.000  H
  C384     1.0000 0.18264  0.07370  0.34576  Biso   1.000  C
  C385     1.0000 0.78903  0.23730  0.71202  Biso   1.000  C
  C386     1.0000 0.27200  0.99400  0.21982  Biso   1.000  C
  H318     1.0000 0.28990  0.96670  0.22010  Biso   1.000  H
  C387     1.0000 0.08164  0.84540  0.65914  Biso   1.000  C
  C388     1.0000 0.13386  0.95720  0.36390  Biso   1.000  C
  H319     1.0000 0.12960  0.96680  0.32930  Biso   1.000  H
  C389     1.0000 0.16999  0.49970  0.45514  Biso   1.000  C
  H320     1.0000 0.18100  0.50790  0.43250  Biso   1.000  H
  C390     1.0000 0.19740  0.12000  0.27356  Biso   1.000  C
  H321     1.0000 0.19610  0.16030  0.24770  Biso   1.000  H
  C391     1.0000 0.81651  0.21390  0.74444  Biso   1.000  C
  H322     1.0000 0.83290  0.20780  0.73230  Biso   1.000  H
  C392     1.0000 0.84669  0.18090  0.93459  Biso   1.000  C
  H323     1.0000 0.84470  0.23720  0.94650  Biso   1.000  H
  C393     1.0000 0.79533  0.20730  0.81322  Biso   1.000  C
  C394     1.0000 0.10843  0.96540  0.70957  Biso   1.000  C
  H324     1.0000 0.12650  0.99200  0.72770  Biso   1.000  H
  N102     1.0000 0.78738  0.25890  0.66100  Biso   1.000  N
  N103     1.0000 0.16582  0.08820  0.38015  Biso   1.000  N
  C395     1.0000 0.11491  0.31590  0.67856  Biso   1.000  C
  C396     1.0000 0.06244  0.09540  0.76266  Biso   1.000  C
  C397     1.0000 0.03168  0.17640  0.80296  Biso   1.000  C
  H325     1.0000 0.02260  0.22900  0.80750  Biso   1.000  H
  C398     1.0000 0.08141  0.00690  0.70524  Biso   1.000  C
  C399     1.0000 0.02863  0.10200  0.83003  Biso   1.000  C
  C400     1.0000 0.93885  0.90150  0.97137  Biso   1.000  C
  H326     1.0000 0.94850  0.84690  0.97590  Biso   1.000  H
  C401     1.0000 0.04828  0.17270  0.76900  Biso   1.000  C
  H327     1.0000 0.04990  0.22250  0.75040  Biso   1.000  H
  C402     1.0000 0.01719  0.05020  0.90628  Biso   1.000  C
  H328     1.0000 0.03090  0.00390  0.91310  Biso   1.000  H
  N104     1.0000 0.11314  0.80070  0.44999  Biso   1.000  N
  N105     1.0000 0.90405  0.00460  0.95550  Biso   1.000  N
  C403     1.0000 0.93180  0.04240  0.96790  Biso   1.000  C
  H329     1.0000 0.93520  0.10300  0.96950  Biso   1.000  H
  C404     1.0000 0.90841  0.91390  0.95785  Biso   1.000  C
  H330     1.0000 0.89360  0.87050  0.95150  Biso   1.000  H
  C405     1.0000 0.87570  0.05020  0.93757  Biso   1.000  C
  C406     1.0000 0.59228  0.66620  0.71306  Biso   1.000  C
  O16      1.0000 0.50423  0.37622  0.96604  Biso   1.000  O
  H331     1.0000 0.50830  0.38470  0.93970  Biso   1.000  H
  Ni6      1.0000 0.62080  0.09002  0.55343  Biso   1.000  Ni
  N106     1.0000 0.58062  0.58990  0.73008  Biso   1.000  N
  N107     1.0000 0.65809  0.92180  0.46613  Biso   1.000  N
  N108     1.0000 0.29831  0.69700  0.86672  Biso   1.000  N
  N109     1.0000 0.25987  0.97760  0.96597  Biso   1.000  N
  N110     1.0000 0.51292  0.60630  0.86685  Biso   1.000  N
  N111     1.0000 0.58151  0.26180  0.63451  Biso   1.000  N
  N112     1.0000 0.60862  0.18640  0.49765  Biso   1.000  N
  N113     1.0000 0.62736  0.89160  0.66167  Biso   1.000  N
  N114     1.0000 0.45323  0.48240  0.97730  Biso   1.000  N
  O17      1.0000 0.58268  0.01583  0.51328  Biso   1.000  O
  H332     1.0000 0.58740  0.96390  0.51260  Biso   1.000  H
  O18      1.0000 0.29353  0.73490  0.49203  Biso   1.000  O
  H333     1.0000 0.29210  0.72850  0.46200  Biso   1.000  H
  C407     1.0000 0.63980  0.69230  0.41928  Biso   1.000  C
  H334     1.0000 0.62490  0.65020  0.41710  Biso   1.000  H
  C408     1.0000 0.49111  0.66620  0.86996  Biso   1.000  C
  H335     1.0000 0.48340  0.71290  0.84800  Biso   1.000  H
  N115     1.0000 0.27147  0.76660  0.57699  Biso   1.000  N
  C409     1.0000 0.64645  0.42850  0.46692  Biso   1.000  C
  H336     1.0000 0.65070  0.41880  0.50150  Biso   1.000  H
  C410     1.0000 0.60291  0.74790  0.64557  Biso   1.000  C
  H337     1.0000 0.60240  0.75200  0.61180  Biso   1.000  H
  N116     1.0000 0.49913  0.56980  0.93449  Biso   1.000  N
  N117     1.0000 0.64551  0.02550  0.51243  Biso   1.000  N
  N118     1.0000 0.63243  0.99820  0.61068  Biso   1.000  N
  N119     1.0000 0.25229  0.11250  0.99101  Biso   1.000  N
  N120     1.0000 0.59529  0.15500  0.59156  Biso   1.000  N
  C411     1.0000 0.37280  0.63220  0.95661  Biso   1.000  C
  H338     1.0000 0.38800  0.65500  0.98380  Biso   1.000  H
  C412     1.0000 0.58222  0.19780  0.45807  Biso   1.000  C
  H339     1.0000 0.56510  0.16290  0.45230  Biso   1.000  H
  C413     1.0000 0.58509  0.26730  0.42911  Biso   1.000  C
  H340     1.0000 0.57060  0.28820  0.40040  Biso   1.000  H
  N121     1.0000 0.73520  0.53570  0.24650  Biso   1.000  N
  N122     1.0000 0.75298  0.54410  0.18220  Biso   1.000  N
  C414     1.0000 0.72880  0.57330  0.19916  Biso   1.000  C
  H341     1.0000 0.71260  0.60910  0.18240  Biso   1.000  H
  C415     1.0000 0.62660  0.24960  0.49171  Biso   1.000  C
  H342     1.0000 0.64600  0.25860  0.51310  Biso   1.000  H
  C416     1.0000 0.55745  0.20410  0.61810  Biso   1.000  C
  H343     1.0000 0.53880  0.20900  0.62370  Biso   1.000  H
  C417     1.0000 0.75871  0.49440  0.25527  Biso   1.000  C
  H344     1.0000 0.76680  0.46450  0.28570  Biso   1.000  H
  C418     1.0000 0.55868  0.52120  0.78921  Biso   1.000  C
  H345     1.0000 0.56770  0.46840  0.78480  Biso   1.000  H
  C419     1.0000 0.24556  0.96750  0.00177  Biso   1.000  C
  H346     1.0000 0.23990  0.91480  0.01350  Biso   1.000  H
  C420     1.0000 0.26508  0.73790  0.61790  Biso   1.000  C
  H347     1.0000 0.24760  0.70740  0.61720  Biso   1.000  H
  C421     1.0000 0.66237  0.06190  0.48418  Biso   1.000  C
  H348     1.0000 0.66780  0.12110  0.48500  Biso   1.000  H
  C422     1.0000 0.27610  0.75430  0.92930  Biso   1.000  C
  H349     1.0000 0.27380  0.69660  0.93890  Biso   1.000  H
  C423     1.0000 0.60873  0.38390  0.68693  Biso   1.000  C
  H350     1.0000 0.62690  0.35530  0.69030  Biso   1.000  H
  C424     1.0000 0.68039  0.63140  0.30606  Biso   1.000  C
  H351     1.0000 0.66720  0.67880  0.30120  Biso   1.000  H
  C425     1.0000 0.29857  0.80890  0.59532  Biso   1.000  C
  H352     1.0000 0.30860  0.83670  0.57520  Biso   1.000  H
  C426     1.0000 0.65293  0.93760  0.68700  Biso   1.000  C
  H353     1.0000 0.66580  0.92650  0.71940  Biso   1.000  H
  C427     1.0000 0.56638  0.13910  0.59209  Biso   1.000  C
  H354     1.0000 0.55470  0.09100  0.57700  Biso   1.000  H
  C428     1.0000 0.26385  0.74100  0.72835  Biso   1.000  C
  H355     1.0000 0.24500  0.75360  0.70560  Biso   1.000  H
  C429     1.0000 0.68553  0.73640  0.40382  Biso   1.000  C
  H356     1.0000 0.70150  0.72460  0.39140  Biso   1.000  H
  C430     1.0000 0.32396  0.64610  0.89548  Biso   1.000  C
  C431     1.0000 0.48313  0.64310  0.91168  Biso   1.000  C
  H357     1.0000 0.46890  0.67250  0.92310  Biso   1.000  H
  C432     1.0000 0.60381  0.22810  0.61780  Biso   1.000  C
  H358     1.0000 0.62280  0.25350  0.62410  Biso   1.000  H
  C433     1.0000 0.54156  0.52440  0.82235  Biso   1.000  C
  H359     1.0000 0.53890  0.47360  0.83940  Biso   1.000  H
  C434     1.0000 0.61620  0.93110  0.61640  Biso   1.000  C
  H360     1.0000 0.59880  0.91260  0.59180  Biso   1.000  H
  C435     1.0000 0.64352  0.94030  0.50087  Biso   1.000  C
  H361     1.0000 0.63360  0.89870  0.51460  Biso   1.000  H
  C436     1.0000 0.26999  0.90840  0.94053  Biso   1.000  C
  C437     1.0000 0.28913  0.77070  0.89130  Biso   1.000  C
  C438     1.0000 0.65974  0.83800  0.44391  Biso   1.000  C
  C439     1.0000 0.26347  0.06510  0.96055  Biso   1.000  C
  H362     1.0000 0.27270  0.08930  0.93820  Biso   1.000  H
  C440     1.0000 0.63780  0.77390  0.44038  Biso   1.000  C
  H363     1.0000 0.62160  0.78610  0.45230  Biso   1.000  H
  C441     1.0000 0.62688  0.37230  0.43218  Biso   1.000  C
  C442     1.0000 0.59153  0.67280  0.66266  Biso   1.000  C
  H364     1.0000 0.58340  0.62710  0.64020  Biso   1.000  H
  C443     1.0000 0.60462  0.73460  0.74601  Biso   1.000  C
  H365     1.0000 0.60560  0.73010  0.77990  Biso   1.000  H
  C444     1.0000 0.35264  0.51280  0.90026  Biso   1.000  C
  H366     1.0000 0.35450  0.45610  0.88890  Biso   1.000  H
  C445     1.0000 0.26656  0.82380  0.95280  Biso   1.000  C
  H367     1.0000 0.25750  0.81190  0.97770  Biso   1.000  H
  C446     1.0000 0.55452  0.38810  0.65406  Biso   1.000  C
  H368     1.0000 0.53650  0.36290  0.63480  Biso   1.000  H
  C447     1.0000 0.28300  0.92580  0.90369  Biso   1.000  C
  H369     1.0000 0.28550  0.98380  0.89480  Biso   1.000  H
  C448     1.0000 0.65317  0.51380  0.39787  Biso   1.000  C
  C449     1.0000 0.65555  0.00230  0.65500  Biso   1.000  C
  H370     1.0000 0.67100  0.04380  0.66220  Biso   1.000  H
  C450     1.0000 0.61552  0.80910  0.72904  Biso   1.000  C
  H371     1.0000 0.62330  0.85500  0.75140  Biso   1.000  H
  C451     1.0000 0.30900  0.80510  0.64747  Biso   1.000  C
  H372     1.0000 0.32680  0.82870  0.66880  Biso   1.000  H
  C452     1.0000 0.55457  0.46810  0.67781  Biso   1.000  C
  H373     1.0000 0.53640  0.49610  0.67530  Biso   1.000  H
  C453     1.0000 0.71617  0.54850  0.27986  Biso   1.000  C
  C454     1.0000 0.32634  0.56080  0.87961  Biso   1.000  C
  H374     1.0000 0.31030  0.53530  0.85500  Biso   1.000  H
  C455     1.0000 0.26700  0.72570  0.77931  Biso   1.000  C
  H375     1.0000 0.25020  0.72780  0.79070  Biso   1.000  H
  C456     1.0000 0.66411  0.67270  0.40124  Biso   1.000  C
  C457     1.0000 0.68337  0.81890  0.42503  Biso   1.000  C
  H376     1.0000 0.69800  0.86150  0.42650  Biso   1.000  H
  C458     1.0000 0.62079  0.38650  0.38100  Biso   1.000  C
  H377     1.0000 0.60790  0.34870  0.35790  Biso   1.000  H
  C459     1.0000 0.24120  0.05150  0.01699  Biso   1.000  C
  H378     1.0000 0.23200  0.06490  0.04150  Biso   1.000  H
  C460     1.0000 0.65964  0.49920  0.44942  Biso   1.000  C
  H379     1.0000 0.67280  0.53660  0.47240  Biso   1.000  H
  C461     1.0000 0.29254  0.85670  0.87946  Biso   1.000  C
  H380     1.0000 0.30150  0.86930  0.85450  Biso   1.000  H
  C462     1.0000 0.70114  0.50100  0.35103  Biso   1.000  C
  H381     1.0000 0.70230  0.46050  0.37680  Biso   1.000  H
  C463     1.0000 0.31991  0.69930  0.79467  Biso   1.000  C
  H382     1.0000 0.33870  0.68410  0.81660  Biso   1.000  H
  C464     1.0000 0.71791  0.48810  0.31826  Biso   1.000  C
  H383     1.0000 0.73030  0.43890  0.32190  Biso   1.000  H
  C465     1.0000 0.68264  0.57370  0.34576  Biso   1.000  C
  C466     1.0000 0.28903  0.73730  0.71202  Biso   1.000  C
  C467     1.0000 0.77200  0.49400  0.21982  Biso   1.000  C
  H384     1.0000 0.78990  0.46670  0.22010  Biso   1.000  H
  C468     1.0000 0.58164  0.34540  0.65914  Biso   1.000  C
  C469     1.0000 0.63386  0.45720  0.36390  Biso   1.000  C
  H385     1.0000 0.62960  0.46680  0.32930  Biso   1.000  H
  C470     1.0000 0.66999  0.99970  0.45514  Biso   1.000  C
  H386     1.0000 0.68100  0.00790  0.43250  Biso   1.000  H
  C471     1.0000 0.69740  0.62000  0.27356  Biso   1.000  C
  H387     1.0000 0.69610  0.66030  0.24770  Biso   1.000  H
  C472     1.0000 0.31651  0.71390  0.74444  Biso   1.000  C
  H388     1.0000 0.33290  0.70780  0.73230  Biso   1.000  H
  C473     1.0000 0.34669  0.68090  0.93459  Biso   1.000  C
  H389     1.0000 0.34470  0.73720  0.94650  Biso   1.000  H
  C474     1.0000 0.29533  0.70730  0.81322  Biso   1.000  C
  C475     1.0000 0.60843  0.46540  0.70957  Biso   1.000  C
  H390     1.0000 0.62650  0.49200  0.72770  Biso   1.000  H
  N123     1.0000 0.28738  0.75890  0.66100  Biso   1.000  N
  N124     1.0000 0.66582  0.58820  0.38015  Biso   1.000  N
  C476     1.0000 0.61491  0.81590  0.67856  Biso   1.000  C
  C477     1.0000 0.56244  0.59540  0.76266  Biso   1.000  C
  C478     1.0000 0.53168  0.67640  0.80296  Biso   1.000  C
  H391     1.0000 0.52260  0.72900  0.80750  Biso   1.000  H
  C479     1.0000 0.58141  0.50690  0.70524  Biso   1.000  C
  C480     1.0000 0.52863  0.60200  0.83003  Biso   1.000  C
  C481     1.0000 0.43885  0.40150  0.97137  Biso   1.000  C
  H392     1.0000 0.44850  0.34690  0.97590  Biso   1.000  H
  C482     1.0000 0.54828  0.67270  0.76900  Biso   1.000  C
  H393     1.0000 0.54990  0.72250  0.75040  Biso   1.000  H
  C483     1.0000 0.51719  0.55020  0.90628  Biso   1.000  C
  H394     1.0000 0.53090  0.50390  0.91310  Biso   1.000  H
  N125     1.0000 0.61314  0.30070  0.44999  Biso   1.000  N
  N126     1.0000 0.40405  0.50460  0.95550  Biso   1.000  N
  C484     1.0000 0.43180  0.54240  0.96790  Biso   1.000  C
  H395     1.0000 0.43520  0.60300  0.96950  Biso   1.000  H
  C485     1.0000 0.40841  0.41390  0.95785  Biso   1.000  C
  H396     1.0000 0.39360  0.37050  0.95150  Biso   1.000  H
  C486     1.0000 0.37570  0.55020  0.93757  Biso   1.000  C
  C487     1.0000 0.90772  0.16620  0.78694  Biso   1.000  C
  O19      1.0000 0.99577  0.87622  0.53396  Biso   1.000  O
  H397     1.0000 0.99170  0.88470  0.56030  Biso   1.000  H
  Ni7      1.0000 0.87920  0.59002  0.94657  Biso   1.000  Ni
  N127     1.0000 0.91938  0.08990  0.76992  Biso   1.000  N
  N128     1.0000 0.84191  0.42180  0.03387  Biso   1.000  N
  N129     1.0000 0.20169  0.19700  0.63328  Biso   1.000  N
  N130     1.0000 0.24013  0.47760  0.53403  Biso   1.000  N
  N131     1.0000 0.98708  0.10630  0.63315  Biso   1.000  N
  N132     1.0000 0.91849  0.76180  0.86549  Biso   1.000  N
  N133     1.0000 0.89138  0.68640  0.00235  Biso   1.000  N
  N134     1.0000 0.87264  0.39160  0.83833  Biso   1.000  N
  N135     1.0000 0.04677  0.98240  0.52270  Biso   1.000  N
  O20      1.0000 0.91732  0.51583  0.98672  Biso   1.000  O
  H398     1.0000 0.91260  0.46390  0.98740  Biso   1.000  H
  O21      1.0000 0.20647  0.23490  0.00797  Biso   1.000  O
  H399     1.0000 0.20790  0.22850  0.03800  Biso   1.000  H
  C488     1.0000 0.86020  0.19230  0.08072  Biso   1.000  C
  H400     1.0000 0.87510  0.15020  0.08290  Biso   1.000  H
  C489     1.0000 0.00889  0.16620  0.63004  Biso   1.000  C
  H401     1.0000 0.01660  0.21290  0.65200  Biso   1.000  H
  N136     1.0000 0.22853  0.26660  0.92301  Biso   1.000  N
  C490     1.0000 0.85355  0.92850  0.03308  Biso   1.000  C
  H402     1.0000 0.84930  0.91880  0.99850  Biso   1.000  H
  C491     1.0000 0.89709  0.24790  0.85443  Biso   1.000  C
  H403     1.0000 0.89760  0.25200  0.88820  Biso   1.000  H
  N137     1.0000 0.00087  0.06980  0.56551  Biso   1.000  N
  N138     1.0000 0.85449  0.52550  0.98757  Biso   1.000  N
  N139     1.0000 0.86757  0.49820  0.88932  Biso   1.000  N
  N140     1.0000 0.24771  0.61250  0.50899  Biso   1.000  N
  N141     1.0000 0.90471  0.65500  0.90844  Biso   1.000  N
  C492     1.0000 0.12720  0.13220  0.54339  Biso   1.000  C
  H404     1.0000 0.11200  0.15500  0.51620  Biso   1.000  H
  C493     1.0000 0.91778  0.69780  0.04193  Biso   1.000  C
  H405     1.0000 0.93490  0.66290  0.04770  Biso   1.000  H
  C494     1.0000 0.91491  0.76730  0.07089  Biso   1.000  C
  H406     1.0000 0.92940  0.78820  0.09960  Biso   1.000  H
  N142     1.0000 0.76480  0.03570  0.25350  Biso   1.000  N
  N143     1.0000 0.74702  0.04410  0.31780  Biso   1.000  N
  C495     1.0000 0.77120  0.07330  0.30084  Biso   1.000  C
  H407     1.0000 0.78740  0.10910  0.31760  Biso   1.000  H
  C496     1.0000 0.87340  0.74960  0.00829  Biso   1.000  C
  H408     1.0000 0.85400  0.75860  0.98690  Biso   1.000  H
  C497     1.0000 0.94255  0.70410  0.88190  Biso   1.000  C
  H409     1.0000 0.96120  0.70900  0.87630  Biso   1.000  H
  C498     1.0000 0.74129  0.99440  0.24473  Biso   1.000  C
  H410     1.0000 0.73320  0.96450  0.21430  Biso   1.000  H
  C499     1.0000 0.94132  0.02120  0.71079  Biso   1.000  C
  H411     1.0000 0.93230  0.96840  0.71520  Biso   1.000  H
  C500     1.0000 0.25444  0.46750  0.49823  Biso   1.000  C
  H412     1.0000 0.26010  0.41480  0.48650  Biso   1.000  H
  C501     1.0000 0.23492  0.23790  0.88210  Biso   1.000  C
  H413     1.0000 0.25240  0.20740  0.88280  Biso   1.000  H
  C502     1.0000 0.83763  0.56190  0.01582  Biso   1.000  C
  H414     1.0000 0.83220  0.62110  0.01500  Biso   1.000  H
  C503     1.0000 0.22390  0.25430  0.57070  Biso   1.000  C
  H415     1.0000 0.22620  0.19660  0.56110  Biso   1.000  H
  C504     1.0000 0.89127  0.88390  0.81307  Biso   1.000  C
  H416     1.0000 0.87310  0.85530  0.80970  Biso   1.000  H
  C505     1.0000 0.81961  0.13140  0.19394  Biso   1.000  C
  H417     1.0000 0.83280  0.17880  0.19880  Biso   1.000  H
  C506     1.0000 0.20143  0.30890  0.90468  Biso   1.000  C
  H418     1.0000 0.19140  0.33670  0.92480  Biso   1.000  H
  C507     1.0000 0.84707  0.43760  0.81300  Biso   1.000  C
  H419     1.0000 0.83420  0.42650  0.78060  Biso   1.000  H
  C508     1.0000 0.93362  0.63910  0.90791  Biso   1.000  C
  H420     1.0000 0.94530  0.59100  0.92300  Biso   1.000  H
  C509     1.0000 0.23615  0.24100  0.77165  Biso   1.000  C
  H421     1.0000 0.25500  0.25360  0.79440  Biso   1.000  H
  C510     1.0000 0.81447  0.23640  0.09618  Biso   1.000  C
  H422     1.0000 0.79850  0.22460  0.10860  Biso   1.000  H
  C511     1.0000 0.17604  0.14610  0.60452  Biso   1.000  C
  C512     1.0000 0.01687  0.14310  0.58832  Biso   1.000  C
  H423     1.0000 0.03110  0.17250  0.57690  Biso   1.000  H
  C513     1.0000 0.89619  0.72810  0.88220  Biso   1.000  C
  H424     1.0000 0.87720  0.75350  0.87590  Biso   1.000  H
  C514     1.0000 0.95844  0.02440  0.67765  Biso   1.000  C
  H425     1.0000 0.96110  0.97360  0.66060  Biso   1.000  H
  C515     1.0000 0.88380  0.43110  0.88360  Biso   1.000  C
  H426     1.0000 0.90120  0.41260  0.90820  Biso   1.000  H
  C516     1.0000 0.85648  0.44030  0.99913  Biso   1.000  C
  H427     1.0000 0.86640  0.39870  0.98540  Biso   1.000  H
  C517     1.0000 0.23001  0.40840  0.55947  Biso   1.000  C
  C518     1.0000 0.21087  0.27070  0.60870  Biso   1.000  C
  C519     1.0000 0.84026  0.33800  0.05609  Biso   1.000  C
  C520     1.0000 0.23653  0.56510  0.53945  Biso   1.000  C
  H428     1.0000 0.22730  0.58930  0.56180  Biso   1.000  H
  C521     1.0000 0.86220  0.27390  0.05962  Biso   1.000  C
  H429     1.0000 0.87840  0.28610  0.04770  Biso   1.000  H
  C522     1.0000 0.87312  0.87230  0.06782  Biso   1.000  C
  C523     1.0000 0.90847  0.17280  0.83734  Biso   1.000  C
  H430     1.0000 0.91660  0.12710  0.85980  Biso   1.000  H
  C524     1.0000 0.89538  0.23460  0.75399  Biso   1.000  C
  H431     1.0000 0.89440  0.23010  0.72010  Biso   1.000  H
  C525     1.0000 0.14736  0.01280  0.59974  Biso   1.000  C
  H432     1.0000 0.14550  0.95610  0.61110  Biso   1.000  H
  C526     1.0000 0.23344  0.32380  0.54720  Biso   1.000  C
  H433     1.0000 0.24250  0.31190  0.52230  Biso   1.000  H
  C527     1.0000 0.94548  0.88810  0.84594  Biso   1.000  C
  H434     1.0000 0.96350  0.86290  0.86520  Biso   1.000  H
  C528     1.0000 0.21700  0.42580  0.59631  Biso   1.000  C
  H435     1.0000 0.21450  0.48380  0.60520  Biso   1.000  H
  C529     1.0000 0.84683  0.01380  0.10213  Biso   1.000  C
  C530     1.0000 0.84445  0.50230  0.84500  Biso   1.000  C
  H436     1.0000 0.82900  0.54380  0.83780  Biso   1.000  H
  C531     1.0000 0.88448  0.30910  0.77096  Biso   1.000  C
  H437     1.0000 0.87670  0.35500  0.74860  Biso   1.000  H
  C532     1.0000 0.19100  0.30510  0.85253  Biso   1.000  C
  H438     1.0000 0.17320  0.32870  0.83120  Biso   1.000  H
  C533     1.0000 0.94543  0.96810  0.82219  Biso   1.000  C
  H439     1.0000 0.96360  0.99610  0.82470  Biso   1.000  H
  C534     1.0000 0.78383  0.04850  0.22014  Biso   1.000  C
  C535     1.0000 0.17366  0.06080  0.62039  Biso   1.000  C
  H440     1.0000 0.18970  0.03530  0.64500  Biso   1.000  H
  C536     1.0000 0.23300  0.22570  0.72069  Biso   1.000  C
  H441     1.0000 0.24980  0.22780  0.70930  Biso   1.000  H
  C537     1.0000 0.83589  0.17270  0.09876  Biso   1.000  C
  C538     1.0000 0.81663  0.31890  0.07497  Biso   1.000  C
  H442     1.0000 0.80200  0.36150  0.07350  Biso   1.000  H
  C539     1.0000 0.87921  0.88650  0.11900  Biso   1.000  C
  H443     1.0000 0.89210  0.84870  0.14210  Biso   1.000  H
  C540     1.0000 0.25880  0.55150  0.48301  Biso   1.000  C
  H444     1.0000 0.26800  0.56490  0.45850  Biso   1.000  H
  C541     1.0000 0.84036  0.99920  0.05058  Biso   1.000  C
  H445     1.0000 0.82720  0.03660  0.02760  Biso   1.000  H
  C542     1.0000 0.20746  0.35670  0.62054  Biso   1.000  C
  H446     1.0000 0.19850  0.36930  0.64550  Biso   1.000  H
  C543     1.0000 0.79886  0.00100  0.14897  Biso   1.000  C
  H447     1.0000 0.79770  0.96050  0.12320  Biso   1.000  H
  C544     1.0000 0.18009  0.19930  0.70533  Biso   1.000  C
  H448     1.0000 0.16130  0.18410  0.68340  Biso   1.000  H
  C545     1.0000 0.78209  0.98810  0.18174  Biso   1.000  C
  H449     1.0000 0.76970  0.93890  0.17810  Biso   1.000  H
  C546     1.0000 0.81736  0.07370  0.15424  Biso   1.000  C
  C547     1.0000 0.21097  0.23730  0.78798  Biso   1.000  C
  C548     1.0000 0.72800  0.99400  0.28018  Biso   1.000  C
  H450     1.0000 0.71010  0.96670  0.27990  Biso   1.000  H
  C549     1.0000 0.91836  0.84540  0.84086  Biso   1.000  C
  C550     1.0000 0.86614  0.95720  0.13610  Biso   1.000  C
  H451     1.0000 0.87040  0.96680  0.17070  Biso   1.000  H
  C551     1.0000 0.83001  0.49970  0.04486  Biso   1.000  C
  H452     1.0000 0.81900  0.50790  0.06750  Biso   1.000  H
  C552     1.0000 0.80260  0.12000  0.22644  Biso   1.000  C
  H453     1.0000 0.80390  0.16030  0.25230  Biso   1.000  H
  C553     1.0000 0.18349  0.21390  0.75556  Biso   1.000  C
  H454     1.0000 0.16710  0.20780  0.76770  Biso   1.000  H
  C554     1.0000 0.15331  0.18090  0.56541  Biso   1.000  C
  H455     1.0000 0.15530  0.23720  0.55350  Biso   1.000  H
  C555     1.0000 0.20467  0.20730  0.68678  Biso   1.000  C
  C556     1.0000 0.89157  0.96540  0.79043  Biso   1.000  C
  H456     1.0000 0.87350  0.99200  0.77230  Biso   1.000  H
  N144     1.0000 0.21262  0.25890  0.83900  Biso   1.000  N
  N145     1.0000 0.83418  0.08820  0.11985  Biso   1.000  N
  C557     1.0000 0.88509  0.31590  0.82144  Biso   1.000  C
  C558     1.0000 0.93756  0.09540  0.73734  Biso   1.000  C
  C559     1.0000 0.96832  0.17640  0.69704  Biso   1.000  C
  H457     1.0000 0.97740  0.22900  0.69250  Biso   1.000  H
  C560     1.0000 0.91859  0.00690  0.79476  Biso   1.000  C
  C561     1.0000 0.97137  0.10200  0.66997  Biso   1.000  C
  C562     1.0000 0.06115  0.90150  0.52863  Biso   1.000  C
  H458     1.0000 0.05150  0.84690  0.52410  Biso   1.000  H
  C563     1.0000 0.95172  0.17270  0.73100  Biso   1.000  C
  H459     1.0000 0.95010  0.22250  0.74960  Biso   1.000  H
  C564     1.0000 0.98281  0.05020  0.59372  Biso   1.000  C
  H460     1.0000 0.96910  0.00390  0.58690  Biso   1.000  H
  N146     1.0000 0.88686  0.80070  0.05001  Biso   1.000  N
  N147     1.0000 0.09595  0.00460  0.54450  Biso   1.000  N
  C565     1.0000 0.06820  0.04240  0.53210  Biso   1.000  C
  H461     1.0000 0.06480  0.10300  0.53050  Biso   1.000  H
  C566     1.0000 0.09159  0.91390  0.54215  Biso   1.000  C
  H462     1.0000 0.10640  0.87050  0.54850  Biso   1.000  H
  C567     1.0000 0.12430  0.05020  0.56243  Biso   1.000  C
  C568     1.0000 0.40772  0.66620  0.78694  Biso   1.000  C
  O22      1.0000 0.49577  0.37622  0.53396  Biso   1.000  O
  H463     1.0000 0.49170  0.38470  0.56030  Biso   1.000  H
  Ni8      1.0000 0.37920  0.09002  0.94657  Biso   1.000  Ni
  N148     1.0000 0.41938  0.58990  0.76992  Biso   1.000  N
  N149     1.0000 0.34191  0.92180  0.03387  Biso   1.000  N
  N150     1.0000 0.70169  0.69700  0.63328  Biso   1.000  N
  N151     1.0000 0.74013  0.97760  0.53403  Biso   1.000  N
  N152     1.0000 0.48708  0.60630  0.63315  Biso   1.000  N
  N153     1.0000 0.41849  0.26180  0.86549  Biso   1.000  N
  N154     1.0000 0.39138  0.18640  0.00235  Biso   1.000  N
  N155     1.0000 0.37264  0.89160  0.83833  Biso   1.000  N
  N156     1.0000 0.54677  0.48240  0.52270  Biso   1.000  N
  O23      1.0000 0.41732  0.01583  0.98672  Biso   1.000  O
  H464     1.0000 0.41260  0.96390  0.98740  Biso   1.000  H
  O24      1.0000 0.70647  0.73490  0.00797  Biso   1.000  O
  H465     1.0000 0.70790  0.72850  0.03800  Biso   1.000  H
  C569     1.0000 0.36020  0.69230  0.08072  Biso   1.000  C
  H466     1.0000 0.37510  0.65020  0.08290  Biso   1.000  H
  C570     1.0000 0.50889  0.66620  0.63004  Biso   1.000  C
  H467     1.0000 0.51660  0.71290  0.65200  Biso   1.000  H
  N157     1.0000 0.72853  0.76660  0.92301  Biso   1.000  N
  C571     1.0000 0.35355  0.42850  0.03308  Biso   1.000  C
  H468     1.0000 0.34930  0.41880  0.99850  Biso   1.000  H
  C572     1.0000 0.39709  0.74790  0.85443  Biso   1.000  C
  H469     1.0000 0.39760  0.75200  0.88820  Biso   1.000  H
  N158     1.0000 0.50087  0.56980  0.56551  Biso   1.000  N
  N159     1.0000 0.35449  0.02550  0.98757  Biso   1.000  N
  N160     1.0000 0.36757  0.99820  0.88932  Biso   1.000  N
  N161     1.0000 0.74771  0.11250  0.50899  Biso   1.000  N
  N162     1.0000 0.40471  0.15500  0.90844  Biso   1.000  N
  C573     1.0000 0.62720  0.63220  0.54339  Biso   1.000  C
  H470     1.0000 0.61200  0.65500  0.51620  Biso   1.000  H
  C574     1.0000 0.41778  0.19780  0.04193  Biso   1.000  C
  H471     1.0000 0.43490  0.16290  0.04770  Biso   1.000  H
  C575     1.0000 0.41491  0.26730  0.07089  Biso   1.000  C
  H472     1.0000 0.42940  0.28820  0.09960  Biso   1.000  H
  N163     1.0000 0.26480  0.53570  0.25350  Biso   1.000  N
  N164     1.0000 0.24702  0.54410  0.31780  Biso   1.000  N
  C576     1.0000 0.27120  0.57330  0.30084  Biso   1.000  C
  H473     1.0000 0.28740  0.60910  0.31760  Biso   1.000  H
  C577     1.0000 0.37340  0.24960  0.00829  Biso   1.000  C
  H474     1.0000 0.35400  0.25860  0.98690  Biso   1.000  H
  C578     1.0000 0.44255  0.20410  0.88190  Biso   1.000  C
  H475     1.0000 0.46120  0.20900  0.87630  Biso   1.000  H
  C579     1.0000 0.24129  0.49440  0.24473  Biso   1.000  C
  H476     1.0000 0.23320  0.46450  0.21430  Biso   1.000  H
  C580     1.0000 0.44132  0.52120  0.71079  Biso   1.000  C
  H477     1.0000 0.43230  0.46840  0.71520  Biso   1.000  H
  C581     1.0000 0.75444  0.96750  0.49823  Biso   1.000  C
  H478     1.0000 0.76010  0.91480  0.48650  Biso   1.000  H
  C582     1.0000 0.73492  0.73790  0.88210  Biso   1.000  C
  H479     1.0000 0.75240  0.70740  0.88280  Biso   1.000  H
  C583     1.0000 0.33763  0.06190  0.01582  Biso   1.000  C
  H480     1.0000 0.33220  0.12110  0.01500  Biso   1.000  H
  C584     1.0000 0.72390  0.75430  0.57070  Biso   1.000  C
  H481     1.0000 0.72620  0.69660  0.56110  Biso   1.000  H
  C585     1.0000 0.39127  0.38390  0.81307  Biso   1.000  C
  H482     1.0000 0.37310  0.35530  0.80970  Biso   1.000  H
  C586     1.0000 0.31961  0.63140  0.19394  Biso   1.000  C
  H483     1.0000 0.33280  0.67880  0.19880  Biso   1.000  H
  C587     1.0000 0.70143  0.80890  0.90468  Biso   1.000  C
  H484     1.0000 0.69140  0.83670  0.92480  Biso   1.000  H
  C588     1.0000 0.34707  0.93760  0.81300  Biso   1.000  C
  H485     1.0000 0.33420  0.92650  0.78060  Biso   1.000  H
  C589     1.0000 0.43362  0.13910  0.90791  Biso   1.000  C
  H486     1.0000 0.44530  0.09100  0.92300  Biso   1.000  H
  C590     1.0000 0.73615  0.74100  0.77165  Biso   1.000  C
  H487     1.0000 0.75500  0.75360  0.79440  Biso   1.000  H
  C591     1.0000 0.31447  0.73640  0.09618  Biso   1.000  C
  H488     1.0000 0.29850  0.72460  0.10860  Biso   1.000  H
  C592     1.0000 0.67604  0.64610  0.60452  Biso   1.000  C
  C593     1.0000 0.51687  0.64310  0.58832  Biso   1.000  C
  H489     1.0000 0.53110  0.67250  0.57690  Biso   1.000  H
  C594     1.0000 0.39619  0.22810  0.88220  Biso   1.000  C
  H490     1.0000 0.37720  0.25350  0.87590  Biso   1.000  H
  C595     1.0000 0.45844  0.52440  0.67765  Biso   1.000  C
  H491     1.0000 0.46110  0.47360  0.66060  Biso   1.000  H
  C596     1.0000 0.38380  0.93110  0.88360  Biso   1.000  C
  H492     1.0000 0.40120  0.91260  0.90820  Biso   1.000  H
  C597     1.0000 0.35648  0.94030  0.99913  Biso   1.000  C
  H493     1.0000 0.36640  0.89870  0.98540  Biso   1.000  H
  C598     1.0000 0.73001  0.90840  0.55947  Biso   1.000  C
  C599     1.0000 0.71087  0.77070  0.60870  Biso   1.000  C
  C600     1.0000 0.34026  0.83800  0.05609  Biso   1.000  C
  C601     1.0000 0.73653  0.06510  0.53945  Biso   1.000  C
  H494     1.0000 0.72730  0.08930  0.56180  Biso   1.000  H
  C602     1.0000 0.36220  0.77390  0.05962  Biso   1.000  C
  H495     1.0000 0.37840  0.78610  0.04770  Biso   1.000  H
  C603     1.0000 0.37312  0.37230  0.06782  Biso   1.000  C
  C604     1.0000 0.40847  0.67280  0.83734  Biso   1.000  C
  H496     1.0000 0.41660  0.62710  0.85980  Biso   1.000  H
  C605     1.0000 0.39538  0.73460  0.75399  Biso   1.000  C
  H497     1.0000 0.39440  0.73010  0.72010  Biso   1.000  H
  C606     1.0000 0.64736  0.51280  0.59974  Biso   1.000  C
  H498     1.0000 0.64550  0.45610  0.61110  Biso   1.000  H
  C607     1.0000 0.73344  0.82380  0.54720  Biso   1.000  C
  H499     1.0000 0.74250  0.81190  0.52230  Biso   1.000  H
  C608     1.0000 0.44548  0.38810  0.84594  Biso   1.000  C
  H500     1.0000 0.46350  0.36290  0.86520  Biso   1.000  H
  C609     1.0000 0.71700  0.92580  0.59631  Biso   1.000  C
  H501     1.0000 0.71450  0.98380  0.60520  Biso   1.000  H
  C610     1.0000 0.34683  0.51380  0.10213  Biso   1.000  C
  C611     1.0000 0.34445  0.00230  0.84500  Biso   1.000  C
  H502     1.0000 0.32900  0.04380  0.83780  Biso   1.000  H
  C612     1.0000 0.38448  0.80910  0.77096  Biso   1.000  C
  H503     1.0000 0.37670  0.85500  0.74860  Biso   1.000  H
  C613     1.0000 0.69100  0.80510  0.85253  Biso   1.000  C
  H504     1.0000 0.67320  0.82870  0.83120  Biso   1.000  H
  C614     1.0000 0.44543  0.46810  0.82219  Biso   1.000  C
  H505     1.0000 0.46360  0.49610  0.82470  Biso   1.000  H
  C615     1.0000 0.28383  0.54850  0.22014  Biso   1.000  C
  C616     1.0000 0.67366  0.56080  0.62039  Biso   1.000  C
  H506     1.0000 0.68970  0.53530  0.64500  Biso   1.000  H
  C617     1.0000 0.73300  0.72570  0.72069  Biso   1.000  C
  H507     1.0000 0.74980  0.72780  0.70930  Biso   1.000  H
  C618     1.0000 0.33589  0.67270  0.09876  Biso   1.000  C
  C619     1.0000 0.31663  0.81890  0.07497  Biso   1.000  C
  H508     1.0000 0.30200  0.86150  0.07350  Biso   1.000  H
  C620     1.0000 0.37921  0.38650  0.11900  Biso   1.000  C
  H509     1.0000 0.39210  0.34870  0.14210  Biso   1.000  H
  C621     1.0000 0.75880  0.05150  0.48301  Biso   1.000  C
  H510     1.0000 0.76800  0.06490  0.45850  Biso   1.000  H
  C622     1.0000 0.34036  0.49920  0.05058  Biso   1.000  C
  H511     1.0000 0.32720  0.53660  0.02760  Biso   1.000  H
  C623     1.0000 0.70746  0.85670  0.62054  Biso   1.000  C
  H512     1.0000 0.69850  0.86930  0.64550  Biso   1.000  H
  C624     1.0000 0.29886  0.50100  0.14897  Biso   1.000  C
  H513     1.0000 0.29770  0.46050  0.12320  Biso   1.000  H
  C625     1.0000 0.68009  0.69930  0.70533  Biso   1.000  C
  H514     1.0000 0.66130  0.68410  0.68340  Biso   1.000  H
  C626     1.0000 0.28209  0.48810  0.18174  Biso   1.000  C
  H515     1.0000 0.26970  0.43890  0.17810  Biso   1.000  H
  C627     1.0000 0.31736  0.57370  0.15424  Biso   1.000  C
  C628     1.0000 0.71097  0.73730  0.78798  Biso   1.000  C
  C629     1.0000 0.22800  0.49400  0.28018  Biso   1.000  C
  H516     1.0000 0.21010  0.46670  0.27990  Biso   1.000  H
  C630     1.0000 0.41836  0.34540  0.84086  Biso   1.000  C
  C631     1.0000 0.36614  0.45720  0.13610  Biso   1.000  C
  H517     1.0000 0.37040  0.46680  0.17070  Biso   1.000  H
  C632     1.0000 0.33001  0.99970  0.04486  Biso   1.000  C
  H518     1.0000 0.31900  0.00790  0.06750  Biso   1.000  H
  C633     1.0000 0.30260  0.62000  0.22644  Biso   1.000  C
  H519     1.0000 0.30390  0.66030  0.25230  Biso   1.000  H
  C634     1.0000 0.68349  0.71390  0.75556  Biso   1.000  C
  H520     1.0000 0.66710  0.70780  0.76770  Biso   1.000  H
  C635     1.0000 0.65331  0.68090  0.56541  Biso   1.000  C
  H521     1.0000 0.65530  0.73720  0.55350  Biso   1.000  H
  C636     1.0000 0.70467  0.70730  0.68678  Biso   1.000  C
  C637     1.0000 0.39157  0.46540  0.79043  Biso   1.000  C
  H522     1.0000 0.37350  0.49200  0.77230  Biso   1.000  H
  N165     1.0000 0.71262  0.75890  0.83900  Biso   1.000  N
  N166     1.0000 0.33418  0.58820  0.11985  Biso   1.000  N
  C638     1.0000 0.38509  0.81590  0.82144  Biso   1.000  C
  C639     1.0000 0.43756  0.59540  0.73734  Biso   1.000  C
  C640     1.0000 0.46832  0.67640  0.69704  Biso   1.000  C
  H523     1.0000 0.47740  0.72900  0.69250  Biso   1.000  H
  C641     1.0000 0.41859  0.50690  0.79476  Biso   1.000  C
  C642     1.0000 0.47137  0.60200  0.66997  Biso   1.000  C
  C643     1.0000 0.56115  0.40150  0.52863  Biso   1.000  C
  H524     1.0000 0.55150  0.34690  0.52410  Biso   1.000  H
  C644     1.0000 0.45172  0.67270  0.73100  Biso   1.000  C
  H525     1.0000 0.45010  0.72250  0.74960  Biso   1.000  H
  C645     1.0000 0.48281  0.55020  0.59372  Biso   1.000  C
  H526     1.0000 0.46910  0.50390  0.58690  Biso   1.000  H
  N167     1.0000 0.38686  0.30070  0.05001  Biso   1.000  N
  N168     1.0000 0.59595  0.50460  0.54450  Biso   1.000  N
  C646     1.0000 0.56820  0.54240  0.53210  Biso   1.000  C
  H527     1.0000 0.56480  0.60300  0.53050  Biso   1.000  H
  C647     1.0000 0.59159  0.41390  0.54215  Biso   1.000  C
  H528     1.0000 0.60640  0.37050  0.54850  Biso   1.000  H
  C648     1.0000 0.62430  0.55020  0.56243  Biso   1.000  C
  Ni9      1.0000 0.00000  0.00000  0.00000  Biso   1.000  Ni
  Ni10     1.0000 0.50000  0.50000  0.00000  Biso   1.000  Ni
  Ni11     1.0000 0.00000  0.00000  0.50000  Biso   1.000  Ni
  Ni12     1.0000 0.50000  0.50000  0.50000  Biso   1.000  Ni
  Ni13     1.0000 0.25000  0.75000  0.50000  Biso   1.000  Ni
  Ni14     1.0000 0.75000  0.75000  0.00000  Biso   1.000  Ni
  Ni15     1.0000 0.75000  0.25000  0.50000  Biso   1.000  Ni
  Ni16     1.0000 0.25000  0.25000  0.00000  Biso   1.000  Ni
