data_image0
_cell_length_a       32.0791
_cell_length_b       11.9048
_cell_length_c       37.7384
_cell_angle_alpha    90
_cell_angle_beta     99.269
_cell_angle_gamma    90

_symmetry_space_group_name_H-M    "P 1"
_symmetry_int_tables_number       1

loop_
  _symmetry_equiv_pos_as_xyz
  'x, y, z'

loop_
  _atom_site_label
  _atom_site_occupancy
  _atom_site_fract_x
  _atom_site_fract_y
  _atom_site_fract_z
  _atom_site_thermal_displace_type
  _atom_site_B_iso_or_equiv
  _atom_site_type_symbol
  Bi1      1.0000 0.24682  0.31581  0.30493  Biso   1.000  Bi
  C1       1.0000 0.00540  0.84440  0.04282  Biso   1.000  C
  C2       1.0000 0.96580  0.81100  0.04341  Biso   1.000  C
  C3       1.0000 0.09720  0.93050  0.11265  Biso   1.000  C
  H1       1.0000 0.12480  0.90270  0.12120  Biso   1.000  H
  C4       1.0000 0.07160  0.87500  0.08532  Biso   1.000  C
  H2       1.0000 0.08220  0.81000  0.07520  Biso   1.000  H
  C5       1.0000 0.03093  0.91110  0.07220  Biso   1.000  C
  C6       1.0000 0.01765  0.00790  0.08723  Biso   1.000  C
  H3       1.0000 0.99010  0.03580  0.07860  Biso   1.000  H
  C7       1.0000 0.04265  0.06520  0.11405  Biso   1.000  C
  H4       1.0000 0.03240  0.13200  0.12340  Biso   1.000  H
  C8       1.0000 0.08298  0.02670  0.12775  Biso   1.000  C
  C9       1.0000 0.11016  0.08430  0.15757  Biso   1.000  C
  C10      1.0000 0.10490  0.19980  0.16524  Biso   1.000  C
  H5       1.0000 0.08370  0.24250  0.15060  Biso   1.000  H
  C11      1.0000 0.13007  0.24980  0.19343  Biso   1.000  C
  H6       1.0000 0.12590  0.32710  0.19820  Biso   1.000  H
  C12      1.0000 0.16146  0.19100  0.21531  Biso   1.000  C
  C13      1.0000 0.16750  0.07820  0.20805  Biso   1.000  C
  H7       1.0000 0.18920  0.03720  0.22270  Biso   1.000  H
  C14      1.0000 0.14240  0.02540  0.17990  Biso   1.000  C
  H8       1.0000 0.14680  0.94810  0.17550  Biso   1.000  H
  C15      1.0000 0.18801  0.24550  0.24639  Biso   1.000  C
  O1       1.0000 0.21919  0.18980  0.26345  Biso   1.000  O
  O2       1.0000 0.17970  0.34290  0.25607  Biso   1.000  O
  C16      1.0000 0.06070  0.68150  0.97659  Biso   1.000  C
  H9       1.0000 0.06460  0.60580  0.96980  Biso   1.000  H
  C17      1.0000 0.03549  0.70470  0.00230  Biso   1.000  C
  H10      1.0000 0.02210  0.64470  0.01270  Biso   1.000  H
  C18      1.0000 0.02945  0.81370  0.01312  Biso   1.000  C
  C19      1.0000 0.04977  0.89960  0.99723  Biso   1.000  C
  H11      1.0000 0.04670  0.97520  0.00450  Biso   1.000  H
  C20      1.0000 0.07409  0.87660  0.97141  Biso   1.000  C
  H12      1.0000 0.08700  0.93660  0.96070  Biso   1.000  H
  C21      1.0000 0.08018  0.76710  0.96069  Biso   1.000  C
  C22      1.0000 0.10841  0.74430  0.93364  Biso   1.000  C
  C23      1.0000 0.14040  0.66510  0.94055  Biso   1.000  C
  H13      1.0000 0.14290  0.62040  0.96170  Biso   1.000  H
  C24      1.0000 0.16870  0.65080  0.91663  Biso   1.000  C
  H14      1.0000 0.19110  0.59810  0.92170  Biso   1.000  H
  C25      1.0000 0.16425  0.71360  0.88536  Biso   1.000  C
  C26      1.0000 0.13190  0.78880  0.87783  Biso   1.000  C
  H15      1.0000 0.12840  0.83010  0.85600  Biso   1.000  H
  C27      1.0000 0.10400  0.80500  0.90194  Biso   1.000  C
  H16      1.0000 0.08180  0.85820  0.89670  Biso   1.000  H
  C28      1.0000 0.19598  0.69960  0.86018  Biso   1.000  C
  O3       1.0000 0.18944  0.74840  0.83032  Biso   1.000  O
  O4       1.0000 0.22821  0.64090  0.86965  Biso   1.000  O
  C29      1.0000 0.89270  0.59520  0.99357  Biso   1.000  C
  H17      1.0000 0.87610  0.53430  0.99970  Biso   1.000  H
  C30      1.0000 0.91570  0.65790  0.02025  Biso   1.000  C
  H18      1.0000 0.91490  0.63950  0.04460  Biso   1.000  H
  C31      1.0000 0.94031  0.74780  0.01238  Biso   1.000  C
  C32      1.0000 0.93914  0.77550  0.97668  Biso   1.000  C
  H19      1.0000 0.95460  0.83870  0.97060  Biso   1.000  H
  C33      1.0000 0.91580  0.71270  0.94963  Biso   1.000  C
  H20      1.0000 0.91530  0.73370  0.92530  Biso   1.000  H
  C34      1.0000 0.89320  0.61980  0.95761  Biso   1.000  C
  C35      1.0000 0.87013  0.54330  0.92937  Biso   1.000  C
  C36      1.0000 0.86990  0.42870  0.93579  Biso   1.000  C
  H21      1.0000 0.88440  0.40000  0.95790  Biso   1.000  H
  C37      1.0000 0.84910  0.35560  0.91064  Biso   1.000  C
  H22      1.0000 0.84990  0.27710  0.91530  Biso   1.000  H
  C38      1.0000 0.82704  0.39630  0.87828  Biso   1.000  C
  C39      1.0000 0.82710  0.51060  0.87189  Biso   1.000  C
  H23      1.0000 0.81230  0.53920  0.84990  Biso   1.000  H
  C40      1.0000 0.84860  0.58450  0.89707  Biso   1.000  C
  H24      1.0000 0.84840  0.66280  0.89220  Biso   1.000  H
  C41      1.0000 0.80424  0.31340  0.85284  Biso   1.000  C
  O5       1.0000 0.77451  0.35030  0.82851  Biso   1.000  O
  O6       1.0000 0.81351  0.21170  0.85521  Biso   1.000  O
  C42      1.0000 0.94192  0.81740  0.13902  Biso   1.000  C
  H25      1.0000 0.95620  0.80310  0.16270  Biso   1.000  H
  C43      1.0000 0.96362  0.80530  0.11007  Biso   1.000  C
  H26      1.0000 0.99210  0.78000  0.11420  Biso   1.000  H
  C44      1.0000 0.94429  0.82960  0.07532  Biso   1.000  C
  C45      1.0000 0.90225  0.86090  0.07000  Biso   1.000  C
  H27      1.0000 0.88820  0.87520  0.04630  Biso   1.000  H
  C46      1.0000 0.88000  0.87200  0.09885  Biso   1.000  C
  H28      1.0000 0.85120  0.89470  0.09450  Biso   1.000  H
  C47      1.0000 0.89970  0.85020  0.13391  Biso   1.000  C
  C48      1.0000 0.87560  0.85500  0.16413  Biso   1.000  C
  C49      1.0000 0.84250  0.93010  0.16404  Biso   1.000  C
  H29      1.0000 0.83670  0.98330  0.14510  Biso   1.000  H
  C50      1.0000 0.81760  0.92920  0.19097  Biso   1.000  C
  H30      1.0000 0.79560  0.98260  0.19070  Biso   1.000  H
  C51      1.0000 0.82512  0.85020  0.21826  Biso   1.000  C
  C52      1.0000 0.85897  0.77690  0.21919  Biso   1.000  C
  H31      1.0000 0.86540  0.72550  0.23860  Biso   1.000  H
  C53      1.0000 0.88350  0.77820  0.19204  Biso   1.000  C
  H32      1.0000 0.90590  0.72580  0.19260  Biso   1.000  H
  C54      1.0000 0.79653  0.84280  0.24614  Biso   1.000  C
  O7       1.0000 0.80682  0.77710  0.27230  Biso   1.000  O
  O8       1.0000 0.76394  0.90130  0.24245  Biso   1.000  O
  K1       1.0000 0.20417  0.55108  0.23411  Biso   1.000  K
  Bi2      1.0000 0.74682  0.81581  0.30493  Biso   1.000  Bi
  C55      1.0000 0.50540  0.34440  0.04282  Biso   1.000  C
  C56      1.0000 0.46580  0.31100  0.04341  Biso   1.000  C
  C57      1.0000 0.59720  0.43050  0.11265  Biso   1.000  C
  H33      1.0000 0.62480  0.40270  0.12120  Biso   1.000  H
  C58      1.0000 0.57160  0.37500  0.08532  Biso   1.000  C
  H34      1.0000 0.58220  0.31000  0.07520  Biso   1.000  H
  C59      1.0000 0.53093  0.41110  0.07220  Biso   1.000  C
  C60      1.0000 0.51765  0.50790  0.08723  Biso   1.000  C
  H35      1.0000 0.49010  0.53580  0.07860  Biso   1.000  H
  C61      1.0000 0.54265  0.56520  0.11405  Biso   1.000  C
  H36      1.0000 0.53240  0.63200  0.12340  Biso   1.000  H
  C62      1.0000 0.58298  0.52670  0.12775  Biso   1.000  C
  C63      1.0000 0.61016  0.58430  0.15757  Biso   1.000  C
  C64      1.0000 0.60490  0.69980  0.16524  Biso   1.000  C
  H37      1.0000 0.58370  0.74250  0.15060  Biso   1.000  H
  C65      1.0000 0.63007  0.74980  0.19343  Biso   1.000  C
  H38      1.0000 0.62590  0.82710  0.19820  Biso   1.000  H
  C66      1.0000 0.66146  0.69100  0.21531  Biso   1.000  C
  C67      1.0000 0.66750  0.57820  0.20805  Biso   1.000  C
  H39      1.0000 0.68920  0.53720  0.22270  Biso   1.000  H
  C68      1.0000 0.64240  0.52540  0.17990  Biso   1.000  C
  H40      1.0000 0.64680  0.44810  0.17550  Biso   1.000  H
  C69      1.0000 0.68801  0.74550  0.24639  Biso   1.000  C
  O9       1.0000 0.71919  0.68980  0.26345  Biso   1.000  O
  O10      1.0000 0.67970  0.84290  0.25607  Biso   1.000  O
  C70      1.0000 0.56070  0.18150  0.97659  Biso   1.000  C
  H41      1.0000 0.56460  0.10580  0.96980  Biso   1.000  H
  C71      1.0000 0.53549  0.20470  0.00230  Biso   1.000  C
  H42      1.0000 0.52210  0.14470  0.01270  Biso   1.000  H
  C72      1.0000 0.52945  0.31370  0.01312  Biso   1.000  C
  C73      1.0000 0.54977  0.39960  0.99723  Biso   1.000  C
  H43      1.0000 0.54670  0.47520  0.00450  Biso   1.000  H
  C74      1.0000 0.57409  0.37660  0.97141  Biso   1.000  C
  H44      1.0000 0.58700  0.43660  0.96070  Biso   1.000  H
  C75      1.0000 0.58018  0.26710  0.96069  Biso   1.000  C
  C76      1.0000 0.60841  0.24430  0.93364  Biso   1.000  C
  C77      1.0000 0.64040  0.16510  0.94055  Biso   1.000  C
  H45      1.0000 0.64290  0.12040  0.96170  Biso   1.000  H
  C78      1.0000 0.66870  0.15080  0.91663  Biso   1.000  C
  H46      1.0000 0.69110  0.09810  0.92170  Biso   1.000  H
  C79      1.0000 0.66425  0.21360  0.88536  Biso   1.000  C
  C80      1.0000 0.63190  0.28880  0.87783  Biso   1.000  C
  H47      1.0000 0.62840  0.33010  0.85600  Biso   1.000  H
  C81      1.0000 0.60400  0.30500  0.90194  Biso   1.000  C
  H48      1.0000 0.58180  0.35820  0.89670  Biso   1.000  H
  C82      1.0000 0.69598  0.19960  0.86018  Biso   1.000  C
  O11      1.0000 0.68944  0.24840  0.83032  Biso   1.000  O
  O12      1.0000 0.72821  0.14090  0.86965  Biso   1.000  O
  C83      1.0000 0.39270  0.09520  0.99357  Biso   1.000  C
  H49      1.0000 0.37610  0.03430  0.99970  Biso   1.000  H
  C84      1.0000 0.41570  0.15790  0.02025  Biso   1.000  C
  H50      1.0000 0.41490  0.13950  0.04460  Biso   1.000  H
  C85      1.0000 0.44031  0.24780  0.01238  Biso   1.000  C
  C86      1.0000 0.43914  0.27550  0.97668  Biso   1.000  C
  H51      1.0000 0.45460  0.33870  0.97060  Biso   1.000  H
  C87      1.0000 0.41580  0.21270  0.94963  Biso   1.000  C
  H52      1.0000 0.41530  0.23370  0.92530  Biso   1.000  H
  C88      1.0000 0.39320  0.11980  0.95761  Biso   1.000  C
  C89      1.0000 0.37013  0.04330  0.92937  Biso   1.000  C
  C90      1.0000 0.36990  0.92870  0.93579  Biso   1.000  C
  H53      1.0000 0.38440  0.90000  0.95790  Biso   1.000  H
  C91      1.0000 0.34910  0.85560  0.91064  Biso   1.000  C
  H54      1.0000 0.34990  0.77710  0.91530  Biso   1.000  H
  C92      1.0000 0.32704  0.89630  0.87828  Biso   1.000  C
  C93      1.0000 0.32710  0.01060  0.87189  Biso   1.000  C
  H55      1.0000 0.31230  0.03920  0.84990  Biso   1.000  H
  C94      1.0000 0.34860  0.08450  0.89707  Biso   1.000  C
  H56      1.0000 0.34840  0.16280  0.89220  Biso   1.000  H
  C95      1.0000 0.30424  0.81340  0.85284  Biso   1.000  C
  O13      1.0000 0.27451  0.85030  0.82851  Biso   1.000  O
  O14      1.0000 0.31351  0.71170  0.85521  Biso   1.000  O
  C96      1.0000 0.44192  0.31740  0.13902  Biso   1.000  C
  H57      1.0000 0.45620  0.30310  0.16270  Biso   1.000  H
  C97      1.0000 0.46362  0.30530  0.11007  Biso   1.000  C
  H58      1.0000 0.49210  0.28000  0.11420  Biso   1.000  H
  C98      1.0000 0.44429  0.32960  0.07532  Biso   1.000  C
  C99      1.0000 0.40225  0.36090  0.07000  Biso   1.000  C
  H59      1.0000 0.38820  0.37520  0.04630  Biso   1.000  H
  C100     1.0000 0.38000  0.37200  0.09885  Biso   1.000  C
  H60      1.0000 0.35120  0.39470  0.09450  Biso   1.000  H
  C101     1.0000 0.39970  0.35020  0.13391  Biso   1.000  C
  C102     1.0000 0.37560  0.35500  0.16413  Biso   1.000  C
  C103     1.0000 0.34250  0.43010  0.16404  Biso   1.000  C
  H61      1.0000 0.33670  0.48330  0.14510  Biso   1.000  H
  C104     1.0000 0.31760  0.42920  0.19097  Biso   1.000  C
  H62      1.0000 0.29560  0.48260  0.19070  Biso   1.000  H
  C105     1.0000 0.32512  0.35020  0.21826  Biso   1.000  C
  C106     1.0000 0.35897  0.27690  0.21919  Biso   1.000  C
  H63      1.0000 0.36540  0.22550  0.23860  Biso   1.000  H
  C107     1.0000 0.38350  0.27820  0.19204  Biso   1.000  C
  H64      1.0000 0.40590  0.22580  0.19260  Biso   1.000  H
  C108     1.0000 0.29653  0.34280  0.24614  Biso   1.000  C
  O15      1.0000 0.30682  0.27710  0.27230  Biso   1.000  O
  O16      1.0000 0.26394  0.40130  0.24245  Biso   1.000  O
  K2       1.0000 0.70417  0.05108  0.23411  Biso   1.000  K
  Bi3      1.0000 0.75318  0.31581  0.19507  Biso   1.000  Bi
  C109     1.0000 0.99460  0.84440  0.45718  Biso   1.000  C
  C110     1.0000 0.03420  0.81100  0.45659  Biso   1.000  C
  C111     1.0000 0.90280  0.93050  0.38735  Biso   1.000  C
  H65      1.0000 0.87520  0.90270  0.37880  Biso   1.000  H
  C112     1.0000 0.92840  0.87500  0.41468  Biso   1.000  C
  H66      1.0000 0.91780  0.81000  0.42480  Biso   1.000  H
  C113     1.0000 0.96907  0.91110  0.42780  Biso   1.000  C
  C114     1.0000 0.98235  0.00790  0.41277  Biso   1.000  C
  H67      1.0000 0.00990  0.03580  0.42140  Biso   1.000  H
  C115     1.0000 0.95735  0.06520  0.38595  Biso   1.000  C
  H68      1.0000 0.96760  0.13200  0.37660  Biso   1.000  H
  C116     1.0000 0.91702  0.02670  0.37225  Biso   1.000  C
  C117     1.0000 0.88984  0.08430  0.34243  Biso   1.000  C
  C118     1.0000 0.89510  0.19980  0.33476  Biso   1.000  C
  H69      1.0000 0.91630  0.24250  0.34940  Biso   1.000  H
  C119     1.0000 0.86993  0.24980  0.30657  Biso   1.000  C
  H70      1.0000 0.87410  0.32710  0.30180  Biso   1.000  H
  C120     1.0000 0.83854  0.19100  0.28469  Biso   1.000  C
  C121     1.0000 0.83250  0.07820  0.29195  Biso   1.000  C
  H71      1.0000 0.81080  0.03720  0.27730  Biso   1.000  H
  C122     1.0000 0.85760  0.02540  0.32010  Biso   1.000  C
  H72      1.0000 0.85320  0.94810  0.32450  Biso   1.000  H
  C123     1.0000 0.81199  0.24550  0.25361  Biso   1.000  C
  O17      1.0000 0.78081  0.18980  0.23655  Biso   1.000  O
  O18      1.0000 0.82030  0.34290  0.24393  Biso   1.000  O
  C124     1.0000 0.93930  0.68150  0.52341  Biso   1.000  C
  H73      1.0000 0.93540  0.60580  0.53020  Biso   1.000  H
  C125     1.0000 0.96451  0.70470  0.49770  Biso   1.000  C
  H74      1.0000 0.97790  0.64470  0.48730  Biso   1.000  H
  C126     1.0000 0.97055  0.81370  0.48688  Biso   1.000  C
  C127     1.0000 0.95023  0.89960  0.50277  Biso   1.000  C
  H75      1.0000 0.95330  0.97520  0.49550  Biso   1.000  H
  C128     1.0000 0.92591  0.87660  0.52859  Biso   1.000  C
  H76      1.0000 0.91300  0.93660  0.53930  Biso   1.000  H
  C129     1.0000 0.91982  0.76710  0.53931  Biso   1.000  C
  C130     1.0000 0.89159  0.74430  0.56636  Biso   1.000  C
  C131     1.0000 0.85960  0.66510  0.55945  Biso   1.000  C
  H77      1.0000 0.85710  0.62040  0.53830  Biso   1.000  H
  C132     1.0000 0.83130  0.65080  0.58337  Biso   1.000  C
  H78      1.0000 0.80890  0.59810  0.57830  Biso   1.000  H
  C133     1.0000 0.83575  0.71360  0.61464  Biso   1.000  C
  C134     1.0000 0.86810  0.78880  0.62217  Biso   1.000  C
  H79      1.0000 0.87160  0.83010  0.64400  Biso   1.000  H
  C135     1.0000 0.89600  0.80500  0.59806  Biso   1.000  C
  H80      1.0000 0.91820  0.85820  0.60330  Biso   1.000  H
  C136     1.0000 0.80402  0.69960  0.63982  Biso   1.000  C
  O19      1.0000 0.81056  0.74840  0.66968  Biso   1.000  O
  O20      1.0000 0.77179  0.64090  0.63035  Biso   1.000  O
  C137     1.0000 0.10730  0.59520  0.50643  Biso   1.000  C
  H81      1.0000 0.12390  0.53430  0.50030  Biso   1.000  H
  C138     1.0000 0.08430  0.65790  0.47975  Biso   1.000  C
  H82      1.0000 0.08510  0.63950  0.45540  Biso   1.000  H
  C139     1.0000 0.05969  0.74780  0.48762  Biso   1.000  C
  C140     1.0000 0.06086  0.77550  0.52332  Biso   1.000  C
  H83      1.0000 0.04540  0.83870  0.52940  Biso   1.000  H
  C141     1.0000 0.08420  0.71270  0.55037  Biso   1.000  C
  H84      1.0000 0.08470  0.73370  0.57470  Biso   1.000  H
  C142     1.0000 0.10680  0.61980  0.54239  Biso   1.000  C
  C143     1.0000 0.12987  0.54330  0.57063  Biso   1.000  C
  C144     1.0000 0.13010  0.42870  0.56421  Biso   1.000  C
  H85      1.0000 0.11560  0.40000  0.54210  Biso   1.000  H
  C145     1.0000 0.15090  0.35560  0.58936  Biso   1.000  C
  H86      1.0000 0.15010  0.27710  0.58470  Biso   1.000  H
  C146     1.0000 0.17296  0.39630  0.62172  Biso   1.000  C
  C147     1.0000 0.17290  0.51060  0.62811  Biso   1.000  C
  H87      1.0000 0.18770  0.53920  0.65010  Biso   1.000  H
  C148     1.0000 0.15140  0.58450  0.60293  Biso   1.000  C
  H88      1.0000 0.15160  0.66280  0.60780  Biso   1.000  H
  C149     1.0000 0.19576  0.31340  0.64716  Biso   1.000  C
  O21      1.0000 0.22549  0.35030  0.67149  Biso   1.000  O
  O22      1.0000 0.18649  0.21170  0.64479  Biso   1.000  O
  C150     1.0000 0.05808  0.81740  0.36098  Biso   1.000  C
  H89      1.0000 0.04380  0.80310  0.33730  Biso   1.000  H
  C151     1.0000 0.03638  0.80530  0.38993  Biso   1.000  C
  H90      1.0000 0.00790  0.78000  0.38580  Biso   1.000  H
  C152     1.0000 0.05571  0.82960  0.42468  Biso   1.000  C
  C153     1.0000 0.09775  0.86090  0.43000  Biso   1.000  C
  H91      1.0000 0.11180  0.87520  0.45370  Biso   1.000  H
  C154     1.0000 0.12000  0.87200  0.40115  Biso   1.000  C
  H92      1.0000 0.14880  0.89470  0.40550  Biso   1.000  H
  C155     1.0000 0.10030  0.85020  0.36609  Biso   1.000  C
  C156     1.0000 0.12440  0.85500  0.33587  Biso   1.000  C
  C157     1.0000 0.15750  0.93010  0.33596  Biso   1.000  C
  H93      1.0000 0.16330  0.98330  0.35490  Biso   1.000  H
  C158     1.0000 0.18240  0.92920  0.30903  Biso   1.000  C
  H94      1.0000 0.20440  0.98260  0.30930  Biso   1.000  H
  C159     1.0000 0.17488  0.85020  0.28174  Biso   1.000  C
  C160     1.0000 0.14103  0.77690  0.28081  Biso   1.000  C
  H95      1.0000 0.13460  0.72550  0.26140  Biso   1.000  H
  C161     1.0000 0.11650  0.77820  0.30796  Biso   1.000  C
  H96      1.0000 0.09410  0.72580  0.30740  Biso   1.000  H
  C162     1.0000 0.20347  0.84280  0.25386  Biso   1.000  C
  O23      1.0000 0.19318  0.77710  0.22770  Biso   1.000  O
  O24      1.0000 0.23606  0.90130  0.25755  Biso   1.000  O
  K3       1.0000 0.79583  0.55108  0.26589  Biso   1.000  K
  Bi4      1.0000 0.25318  0.81581  0.19507  Biso   1.000  Bi
  C163     1.0000 0.49460  0.34440  0.45718  Biso   1.000  C
  C164     1.0000 0.53420  0.31100  0.45659  Biso   1.000  C
  C165     1.0000 0.40280  0.43050  0.38735  Biso   1.000  C
  H97      1.0000 0.37520  0.40270  0.37880  Biso   1.000  H
  C166     1.0000 0.42840  0.37500  0.41468  Biso   1.000  C
  H98      1.0000 0.41780  0.31000  0.42480  Biso   1.000  H
  C167     1.0000 0.46907  0.41110  0.42780  Biso   1.000  C
  C168     1.0000 0.48235  0.50790  0.41277  Biso   1.000  C
  H99      1.0000 0.50990  0.53580  0.42140  Biso   1.000  H
  C169     1.0000 0.45735  0.56520  0.38595  Biso   1.000  C
  H100     1.0000 0.46760  0.63200  0.37660  Biso   1.000  H
  C170     1.0000 0.41702  0.52670  0.37225  Biso   1.000  C
  C171     1.0000 0.38984  0.58430  0.34243  Biso   1.000  C
  C172     1.0000 0.39510  0.69980  0.33476  Biso   1.000  C
  H101     1.0000 0.41630  0.74250  0.34940  Biso   1.000  H
  C173     1.0000 0.36993  0.74980  0.30657  Biso   1.000  C
  H102     1.0000 0.37410  0.82710  0.30180  Biso   1.000  H
  C174     1.0000 0.33854  0.69100  0.28469  Biso   1.000  C
  C175     1.0000 0.33250  0.57820  0.29195  Biso   1.000  C
  H103     1.0000 0.31080  0.53720  0.27730  Biso   1.000  H
  C176     1.0000 0.35760  0.52540  0.32010  Biso   1.000  C
  H104     1.0000 0.35320  0.44810  0.32450  Biso   1.000  H
  C177     1.0000 0.31199  0.74550  0.25361  Biso   1.000  C
  O25      1.0000 0.28081  0.68980  0.23655  Biso   1.000  O
  O26      1.0000 0.32030  0.84290  0.24393  Biso   1.000  O
  C178     1.0000 0.43930  0.18150  0.52341  Biso   1.000  C
  H105     1.0000 0.43540  0.10580  0.53020  Biso   1.000  H
  C179     1.0000 0.46451  0.20470  0.49770  Biso   1.000  C
  H106     1.0000 0.47790  0.14470  0.48730  Biso   1.000  H
  C180     1.0000 0.47055  0.31370  0.48688  Biso   1.000  C
  C181     1.0000 0.45023  0.39960  0.50277  Biso   1.000  C
  H107     1.0000 0.45330  0.47520  0.49550  Biso   1.000  H
  C182     1.0000 0.42591  0.37660  0.52859  Biso   1.000  C
  H108     1.0000 0.41300  0.43660  0.53930  Biso   1.000  H
  C183     1.0000 0.41982  0.26710  0.53931  Biso   1.000  C
  C184     1.0000 0.39159  0.24430  0.56636  Biso   1.000  C
  C185     1.0000 0.35960  0.16510  0.55945  Biso   1.000  C
  H109     1.0000 0.35710  0.12040  0.53830  Biso   1.000  H
  C186     1.0000 0.33130  0.15080  0.58337  Biso   1.000  C
  H110     1.0000 0.30890  0.09810  0.57830  Biso   1.000  H
  C187     1.0000 0.33575  0.21360  0.61464  Biso   1.000  C
  C188     1.0000 0.36810  0.28880  0.62217  Biso   1.000  C
  H111     1.0000 0.37160  0.33010  0.64400  Biso   1.000  H
  C189     1.0000 0.39600  0.30500  0.59806  Biso   1.000  C
  H112     1.0000 0.41820  0.35820  0.60330  Biso   1.000  H
  C190     1.0000 0.30402  0.19960  0.63982  Biso   1.000  C
  O27      1.0000 0.31056  0.24840  0.66968  Biso   1.000  O
  O28      1.0000 0.27179  0.14090  0.63035  Biso   1.000  O
  C191     1.0000 0.60730  0.09520  0.50643  Biso   1.000  C
  H113     1.0000 0.62390  0.03430  0.50030  Biso   1.000  H
  C192     1.0000 0.58430  0.15790  0.47975  Biso   1.000  C
  H114     1.0000 0.58510  0.13950  0.45540  Biso   1.000  H
  C193     1.0000 0.55969  0.24780  0.48762  Biso   1.000  C
  C194     1.0000 0.56086  0.27550  0.52332  Biso   1.000  C
  H115     1.0000 0.54540  0.33870  0.52940  Biso   1.000  H
  C195     1.0000 0.58420  0.21270  0.55037  Biso   1.000  C
  H116     1.0000 0.58470  0.23370  0.57470  Biso   1.000  H
  C196     1.0000 0.60680  0.11980  0.54239  Biso   1.000  C
  C197     1.0000 0.62987  0.04330  0.57063  Biso   1.000  C
  C198     1.0000 0.63010  0.92870  0.56421  Biso   1.000  C
  H117     1.0000 0.61560  0.90000  0.54210  Biso   1.000  H
  C199     1.0000 0.65090  0.85560  0.58936  Biso   1.000  C
  H118     1.0000 0.65010  0.77710  0.58470  Biso   1.000  H
  C200     1.0000 0.67296  0.89630  0.62172  Biso   1.000  C
  C201     1.0000 0.67290  0.01060  0.62811  Biso   1.000  C
  H119     1.0000 0.68770  0.03920  0.65010  Biso   1.000  H
  C202     1.0000 0.65140  0.08450  0.60293  Biso   1.000  C
  H120     1.0000 0.65160  0.16280  0.60780  Biso   1.000  H
  C203     1.0000 0.69576  0.81340  0.64716  Biso   1.000  C
  O29      1.0000 0.72549  0.85030  0.67149  Biso   1.000  O
  O30      1.0000 0.68649  0.71170  0.64479  Biso   1.000  O
  C204     1.0000 0.55808  0.31740  0.36098  Biso   1.000  C
  H121     1.0000 0.54380  0.30310  0.33730  Biso   1.000  H
  C205     1.0000 0.53638  0.30530  0.38993  Biso   1.000  C
  H122     1.0000 0.50790  0.28000  0.38580  Biso   1.000  H
  C206     1.0000 0.55571  0.32960  0.42468  Biso   1.000  C
  C207     1.0000 0.59775  0.36090  0.43000  Biso   1.000  C
  H123     1.0000 0.61180  0.37520  0.45370  Biso   1.000  H
  C208     1.0000 0.62000  0.37200  0.40115  Biso   1.000  C
  H124     1.0000 0.64880  0.39470  0.40550  Biso   1.000  H
  C209     1.0000 0.60030  0.35020  0.36609  Biso   1.000  C
  C210     1.0000 0.62440  0.35500  0.33587  Biso   1.000  C
  C211     1.0000 0.65750  0.43010  0.33596  Biso   1.000  C
  H125     1.0000 0.66330  0.48330  0.35490  Biso   1.000  H
  C212     1.0000 0.68240  0.42920  0.30903  Biso   1.000  C
  H126     1.0000 0.70440  0.48260  0.30930  Biso   1.000  H
  C213     1.0000 0.67488  0.35020  0.28174  Biso   1.000  C
  C214     1.0000 0.64103  0.27690  0.28081  Biso   1.000  C
  H127     1.0000 0.63460  0.22550  0.26140  Biso   1.000  H
  C215     1.0000 0.61650  0.27820  0.30796  Biso   1.000  C
  H128     1.0000 0.59410  0.22580  0.30740  Biso   1.000  H
  C216     1.0000 0.70347  0.34280  0.25386  Biso   1.000  C
  O31      1.0000 0.69318  0.27710  0.22770  Biso   1.000  O
  O32      1.0000 0.73606  0.40130  0.25755  Biso   1.000  O
  K4       1.0000 0.29583  0.05108  0.26589  Biso   1.000  K
  Bi5      1.0000 0.75318  0.68419  0.69507  Biso   1.000  Bi
  C217     1.0000 0.99460  0.15560  0.95718  Biso   1.000  C
  C218     1.0000 0.03420  0.18900  0.95659  Biso   1.000  C
  C219     1.0000 0.90280  0.06950  0.88735  Biso   1.000  C
  H129     1.0000 0.87520  0.09730  0.87880  Biso   1.000  H
  C220     1.0000 0.92840  0.12500  0.91468  Biso   1.000  C
  H130     1.0000 0.91780  0.19000  0.92480  Biso   1.000  H
  C221     1.0000 0.96907  0.08890  0.92780  Biso   1.000  C
  C222     1.0000 0.98235  0.99210  0.91277  Biso   1.000  C
  H131     1.0000 0.00990  0.96420  0.92140  Biso   1.000  H
  C223     1.0000 0.95735  0.93480  0.88595  Biso   1.000  C
  H132     1.0000 0.96760  0.86800  0.87660  Biso   1.000  H
  C224     1.0000 0.91702  0.97330  0.87225  Biso   1.000  C
  C225     1.0000 0.88984  0.91570  0.84243  Biso   1.000  C
  C226     1.0000 0.89510  0.80020  0.83476  Biso   1.000  C
  H133     1.0000 0.91630  0.75750  0.84940  Biso   1.000  H
  C227     1.0000 0.86993  0.75020  0.80657  Biso   1.000  C
  H134     1.0000 0.87410  0.67290  0.80180  Biso   1.000  H
  C228     1.0000 0.83854  0.80900  0.78469  Biso   1.000  C
  C229     1.0000 0.83250  0.92180  0.79195  Biso   1.000  C
  H135     1.0000 0.81080  0.96280  0.77730  Biso   1.000  H
  C230     1.0000 0.85760  0.97460  0.82010  Biso   1.000  C
  H136     1.0000 0.85320  0.05190  0.82450  Biso   1.000  H
  C231     1.0000 0.81199  0.75450  0.75361  Biso   1.000  C
  O33      1.0000 0.78081  0.81020  0.73655  Biso   1.000  O
  O34      1.0000 0.82030  0.65710  0.74393  Biso   1.000  O
  C232     1.0000 0.93930  0.31850  0.02341  Biso   1.000  C
  H137     1.0000 0.93540  0.39420  0.03020  Biso   1.000  H
  C233     1.0000 0.96451  0.29530  0.99770  Biso   1.000  C
  H138     1.0000 0.97790  0.35530  0.98730  Biso   1.000  H
  C234     1.0000 0.97055  0.18630  0.98688  Biso   1.000  C
  C235     1.0000 0.95023  0.10040  0.00277  Biso   1.000  C
  H139     1.0000 0.95330  0.02480  0.99550  Biso   1.000  H
  C236     1.0000 0.92591  0.12340  0.02859  Biso   1.000  C
  H140     1.0000 0.91300  0.06340  0.03930  Biso   1.000  H
  C237     1.0000 0.91982  0.23290  0.03931  Biso   1.000  C
  C238     1.0000 0.89159  0.25570  0.06636  Biso   1.000  C
  C239     1.0000 0.85960  0.33490  0.05945  Biso   1.000  C
  H141     1.0000 0.85710  0.37960  0.03830  Biso   1.000  H
  C240     1.0000 0.83130  0.34920  0.08337  Biso   1.000  C
  H142     1.0000 0.80890  0.40190  0.07830  Biso   1.000  H
  C241     1.0000 0.83575  0.28640  0.11464  Biso   1.000  C
  C242     1.0000 0.86810  0.21120  0.12217  Biso   1.000  C
  H143     1.0000 0.87160  0.16990  0.14400  Biso   1.000  H
  C243     1.0000 0.89600  0.19500  0.09806  Biso   1.000  C
  H144     1.0000 0.91820  0.14180  0.10330  Biso   1.000  H
  C244     1.0000 0.80402  0.30040  0.13982  Biso   1.000  C
  O35      1.0000 0.81056  0.25160  0.16968  Biso   1.000  O
  O36      1.0000 0.77179  0.35910  0.13035  Biso   1.000  O
  C245     1.0000 0.10730  0.40480  0.00643  Biso   1.000  C
  H145     1.0000 0.12390  0.46570  0.00030  Biso   1.000  H
  C246     1.0000 0.08430  0.34210  0.97975  Biso   1.000  C
  H146     1.0000 0.08510  0.36050  0.95540  Biso   1.000  H
  C247     1.0000 0.05969  0.25220  0.98762  Biso   1.000  C
  C248     1.0000 0.06086  0.22450  0.02332  Biso   1.000  C
  H147     1.0000 0.04540  0.16130  0.02940  Biso   1.000  H
  C249     1.0000 0.08420  0.28730  0.05037  Biso   1.000  C
  H148     1.0000 0.08470  0.26630  0.07470  Biso   1.000  H
  C250     1.0000 0.10680  0.38020  0.04239  Biso   1.000  C
  C251     1.0000 0.12987  0.45670  0.07063  Biso   1.000  C
  C252     1.0000 0.13010  0.57130  0.06421  Biso   1.000  C
  H149     1.0000 0.11560  0.60000  0.04210  Biso   1.000  H
  C253     1.0000 0.15090  0.64440  0.08936  Biso   1.000  C
  H150     1.0000 0.15010  0.72290  0.08470  Biso   1.000  H
  C254     1.0000 0.17296  0.60370  0.12172  Biso   1.000  C
  C255     1.0000 0.17290  0.48940  0.12811  Biso   1.000  C
  H151     1.0000 0.18770  0.46080  0.15010  Biso   1.000  H
  C256     1.0000 0.15140  0.41550  0.10293  Biso   1.000  C
  H152     1.0000 0.15160  0.33720  0.10780  Biso   1.000  H
  C257     1.0000 0.19576  0.68660  0.14716  Biso   1.000  C
  O37      1.0000 0.22549  0.64970  0.17149  Biso   1.000  O
  O38      1.0000 0.18649  0.78830  0.14479  Biso   1.000  O
  C258     1.0000 0.05808  0.18260  0.86098  Biso   1.000  C
  H153     1.0000 0.04380  0.19690  0.83730  Biso   1.000  H
  C259     1.0000 0.03638  0.19470  0.88993  Biso   1.000  C
  H154     1.0000 0.00790  0.22000  0.88580  Biso   1.000  H
  C260     1.0000 0.05571  0.17040  0.92468  Biso   1.000  C
  C261     1.0000 0.09775  0.13910  0.93000  Biso   1.000  C
  H155     1.0000 0.11180  0.12480  0.95370  Biso   1.000  H
  C262     1.0000 0.12000  0.12800  0.90115  Biso   1.000  C
  H156     1.0000 0.14880  0.10530  0.90550  Biso   1.000  H
  C263     1.0000 0.10030  0.14980  0.86609  Biso   1.000  C
  C264     1.0000 0.12440  0.14500  0.83587  Biso   1.000  C
  C265     1.0000 0.15750  0.06990  0.83596  Biso   1.000  C
  H157     1.0000 0.16330  0.01670  0.85490  Biso   1.000  H
  C266     1.0000 0.18240  0.07080  0.80903  Biso   1.000  C
  H158     1.0000 0.20440  0.01740  0.80930  Biso   1.000  H
  C267     1.0000 0.17488  0.14980  0.78174  Biso   1.000  C
  C268     1.0000 0.14103  0.22310  0.78081  Biso   1.000  C
  H159     1.0000 0.13460  0.27450  0.76140  Biso   1.000  H
  C269     1.0000 0.11650  0.22180  0.80796  Biso   1.000  C
  H160     1.0000 0.09410  0.27420  0.80740  Biso   1.000  H
  C270     1.0000 0.20347  0.15720  0.75386  Biso   1.000  C
  O39      1.0000 0.19318  0.22290  0.72770  Biso   1.000  O
  O40      1.0000 0.23606  0.09870  0.75755  Biso   1.000  O
  K5       1.0000 0.79583  0.44892  0.76589  Biso   1.000  K
  Bi6      1.0000 0.25318  0.18419  0.69507  Biso   1.000  Bi
  C271     1.0000 0.49460  0.65560  0.95718  Biso   1.000  C
  C272     1.0000 0.53420  0.68900  0.95659  Biso   1.000  C
  C273     1.0000 0.40280  0.56950  0.88735  Biso   1.000  C
  H161     1.0000 0.37520  0.59730  0.87880  Biso   1.000  H
  C274     1.0000 0.42840  0.62500  0.91468  Biso   1.000  C
  H162     1.0000 0.41780  0.69000  0.92480  Biso   1.000  H
  C275     1.0000 0.46907  0.58890  0.92780  Biso   1.000  C
  C276     1.0000 0.48235  0.49210  0.91277  Biso   1.000  C
  H163     1.0000 0.50990  0.46420  0.92140  Biso   1.000  H
  C277     1.0000 0.45735  0.43480  0.88595  Biso   1.000  C
  H164     1.0000 0.46760  0.36800  0.87660  Biso   1.000  H
  C278     1.0000 0.41702  0.47330  0.87225  Biso   1.000  C
  C279     1.0000 0.38984  0.41570  0.84243  Biso   1.000  C
  C280     1.0000 0.39510  0.30020  0.83476  Biso   1.000  C
  H165     1.0000 0.41630  0.25750  0.84940  Biso   1.000  H
  C281     1.0000 0.36993  0.25020  0.80657  Biso   1.000  C
  H166     1.0000 0.37410  0.17290  0.80180  Biso   1.000  H
  C282     1.0000 0.33854  0.30900  0.78469  Biso   1.000  C
  C283     1.0000 0.33250  0.42180  0.79195  Biso   1.000  C
  H167     1.0000 0.31080  0.46280  0.77730  Biso   1.000  H
  C284     1.0000 0.35760  0.47460  0.82010  Biso   1.000  C
  H168     1.0000 0.35320  0.55190  0.82450  Biso   1.000  H
  C285     1.0000 0.31199  0.25450  0.75361  Biso   1.000  C
  O41      1.0000 0.28081  0.31020  0.73655  Biso   1.000  O
  O42      1.0000 0.32030  0.15710  0.74393  Biso   1.000  O
  C286     1.0000 0.43930  0.81850  0.02341  Biso   1.000  C
  H169     1.0000 0.43540  0.89420  0.03020  Biso   1.000  H
  C287     1.0000 0.46451  0.79530  0.99770  Biso   1.000  C
  H170     1.0000 0.47790  0.85530  0.98730  Biso   1.000  H
  C288     1.0000 0.47055  0.68630  0.98688  Biso   1.000  C
  C289     1.0000 0.45023  0.60040  0.00277  Biso   1.000  C
  H171     1.0000 0.45330  0.52480  0.99550  Biso   1.000  H
  C290     1.0000 0.42591  0.62340  0.02859  Biso   1.000  C
  H172     1.0000 0.41300  0.56340  0.03930  Biso   1.000  H
  C291     1.0000 0.41982  0.73290  0.03931  Biso   1.000  C
  C292     1.0000 0.39159  0.75570  0.06636  Biso   1.000  C
  C293     1.0000 0.35960  0.83490  0.05945  Biso   1.000  C
  H173     1.0000 0.35710  0.87960  0.03830  Biso   1.000  H
  C294     1.0000 0.33130  0.84920  0.08337  Biso   1.000  C
  H174     1.0000 0.30890  0.90190  0.07830  Biso   1.000  H
  C295     1.0000 0.33575  0.78640  0.11464  Biso   1.000  C
  C296     1.0000 0.36810  0.71120  0.12217  Biso   1.000  C
  H175     1.0000 0.37160  0.66990  0.14400  Biso   1.000  H
  C297     1.0000 0.39600  0.69500  0.09806  Biso   1.000  C
  H176     1.0000 0.41820  0.64180  0.10330  Biso   1.000  H
  C298     1.0000 0.30402  0.80040  0.13982  Biso   1.000  C
  O43      1.0000 0.31056  0.75160  0.16968  Biso   1.000  O
  O44      1.0000 0.27179  0.85910  0.13035  Biso   1.000  O
  C299     1.0000 0.60730  0.90480  0.00643  Biso   1.000  C
  H177     1.0000 0.62390  0.96570  0.00030  Biso   1.000  H
  C300     1.0000 0.58430  0.84210  0.97975  Biso   1.000  C
  H178     1.0000 0.58510  0.86050  0.95540  Biso   1.000  H
  C301     1.0000 0.55969  0.75220  0.98762  Biso   1.000  C
  C302     1.0000 0.56086  0.72450  0.02332  Biso   1.000  C
  H179     1.0000 0.54540  0.66130  0.02940  Biso   1.000  H
  C303     1.0000 0.58420  0.78730  0.05037  Biso   1.000  C
  H180     1.0000 0.58470  0.76630  0.07470  Biso   1.000  H
  C304     1.0000 0.60680  0.88020  0.04239  Biso   1.000  C
  C305     1.0000 0.62987  0.95670  0.07063  Biso   1.000  C
  C306     1.0000 0.63010  0.07130  0.06421  Biso   1.000  C
  H181     1.0000 0.61560  0.10000  0.04210  Biso   1.000  H
  C307     1.0000 0.65090  0.14440  0.08936  Biso   1.000  C
  H182     1.0000 0.65010  0.22290  0.08470  Biso   1.000  H
  C308     1.0000 0.67296  0.10370  0.12172  Biso   1.000  C
  C309     1.0000 0.67290  0.98940  0.12811  Biso   1.000  C
  H183     1.0000 0.68770  0.96080  0.15010  Biso   1.000  H
  C310     1.0000 0.65140  0.91550  0.10293  Biso   1.000  C
  H184     1.0000 0.65160  0.83720  0.10780  Biso   1.000  H
  C311     1.0000 0.69576  0.18660  0.14716  Biso   1.000  C
  O45      1.0000 0.72549  0.14970  0.17149  Biso   1.000  O
  O46      1.0000 0.68649  0.28830  0.14479  Biso   1.000  O
  C312     1.0000 0.55808  0.68260  0.86098  Biso   1.000  C
  H185     1.0000 0.54380  0.69690  0.83730  Biso   1.000  H
  C313     1.0000 0.53638  0.69470  0.88993  Biso   1.000  C
  H186     1.0000 0.50790  0.72000  0.88580  Biso   1.000  H
  C314     1.0000 0.55571  0.67040  0.92468  Biso   1.000  C
  C315     1.0000 0.59775  0.63910  0.93000  Biso   1.000  C
  H187     1.0000 0.61180  0.62480  0.95370  Biso   1.000  H
  C316     1.0000 0.62000  0.62800  0.90115  Biso   1.000  C
  H188     1.0000 0.64880  0.60530  0.90550  Biso   1.000  H
  C317     1.0000 0.60030  0.64980  0.86609  Biso   1.000  C
  C318     1.0000 0.62440  0.64500  0.83587  Biso   1.000  C
  C319     1.0000 0.65750  0.56990  0.83596  Biso   1.000  C
  H189     1.0000 0.66330  0.51670  0.85490  Biso   1.000  H
  C320     1.0000 0.68240  0.57080  0.80903  Biso   1.000  C
  H190     1.0000 0.70440  0.51740  0.80930  Biso   1.000  H
  C321     1.0000 0.67488  0.64980  0.78174  Biso   1.000  C
  C322     1.0000 0.64103  0.72310  0.78081  Biso   1.000  C
  H191     1.0000 0.63460  0.77450  0.76140  Biso   1.000  H
  C323     1.0000 0.61650  0.72180  0.80796  Biso   1.000  C
  H192     1.0000 0.59410  0.77420  0.80740  Biso   1.000  H
  C324     1.0000 0.70347  0.65720  0.75386  Biso   1.000  C
  O47      1.0000 0.69318  0.72290  0.72770  Biso   1.000  O
  O48      1.0000 0.73606  0.59870  0.75755  Biso   1.000  O
  K6       1.0000 0.29583  0.94892  0.76589  Biso   1.000  K
  Bi7      1.0000 0.24682  0.68419  0.80493  Biso   1.000  Bi
  C325     1.0000 0.00540  0.15560  0.54282  Biso   1.000  C
  C326     1.0000 0.96580  0.18900  0.54341  Biso   1.000  C
  C327     1.0000 0.09720  0.06950  0.61265  Biso   1.000  C
  H193     1.0000 0.12480  0.09730  0.62120  Biso   1.000  H
  C328     1.0000 0.07160  0.12500  0.58532  Biso   1.000  C
  H194     1.0000 0.08220  0.19000  0.57520  Biso   1.000  H
  C329     1.0000 0.03093  0.08890  0.57220  Biso   1.000  C
  C330     1.0000 0.01765  0.99210  0.58723  Biso   1.000  C
  H195     1.0000 0.99010  0.96420  0.57860  Biso   1.000  H
  C331     1.0000 0.04265  0.93480  0.61405  Biso   1.000  C
  H196     1.0000 0.03240  0.86800  0.62340  Biso   1.000  H
  C332     1.0000 0.08298  0.97330  0.62775  Biso   1.000  C
  C333     1.0000 0.11016  0.91570  0.65757  Biso   1.000  C
  C334     1.0000 0.10490  0.80020  0.66524  Biso   1.000  C
  H197     1.0000 0.08370  0.75750  0.65060  Biso   1.000  H
  C335     1.0000 0.13007  0.75020  0.69343  Biso   1.000  C
  H198     1.0000 0.12590  0.67290  0.69820  Biso   1.000  H
  C336     1.0000 0.16146  0.80900  0.71531  Biso   1.000  C
  C337     1.0000 0.16750  0.92180  0.70805  Biso   1.000  C
  H199     1.0000 0.18920  0.96280  0.72270  Biso   1.000  H
  C338     1.0000 0.14240  0.97460  0.67990  Biso   1.000  C
  H200     1.0000 0.14680  0.05190  0.67550  Biso   1.000  H
  C339     1.0000 0.18801  0.75450  0.74639  Biso   1.000  C
  O49      1.0000 0.21919  0.81020  0.76345  Biso   1.000  O
  O50      1.0000 0.17970  0.65710  0.75607  Biso   1.000  O
  C340     1.0000 0.06070  0.31850  0.47659  Biso   1.000  C
  H201     1.0000 0.06460  0.39420  0.46980  Biso   1.000  H
  C341     1.0000 0.03549  0.29530  0.50230  Biso   1.000  C
  H202     1.0000 0.02210  0.35530  0.51270  Biso   1.000  H
  C342     1.0000 0.02945  0.18630  0.51312  Biso   1.000  C
  C343     1.0000 0.04977  0.10040  0.49723  Biso   1.000  C
  H203     1.0000 0.04670  0.02480  0.50450  Biso   1.000  H
  C344     1.0000 0.07409  0.12340  0.47141  Biso   1.000  C
  H204     1.0000 0.08700  0.06340  0.46070  Biso   1.000  H
  C345     1.0000 0.08018  0.23290  0.46069  Biso   1.000  C
  C346     1.0000 0.10841  0.25570  0.43364  Biso   1.000  C
  C347     1.0000 0.14040  0.33490  0.44055  Biso   1.000  C
  H205     1.0000 0.14290  0.37960  0.46170  Biso   1.000  H
  C348     1.0000 0.16870  0.34920  0.41663  Biso   1.000  C
  H206     1.0000 0.19110  0.40190  0.42170  Biso   1.000  H
  C349     1.0000 0.16425  0.28640  0.38536  Biso   1.000  C
  C350     1.0000 0.13190  0.21120  0.37783  Biso   1.000  C
  H207     1.0000 0.12840  0.16990  0.35600  Biso   1.000  H
  C351     1.0000 0.10400  0.19500  0.40194  Biso   1.000  C
  H208     1.0000 0.08180  0.14180  0.39670  Biso   1.000  H
  C352     1.0000 0.19598  0.30040  0.36018  Biso   1.000  C
  O51      1.0000 0.18944  0.25160  0.33032  Biso   1.000  O
  O52      1.0000 0.22821  0.35910  0.36965  Biso   1.000  O
  C353     1.0000 0.89270  0.40480  0.49357  Biso   1.000  C
  H209     1.0000 0.87610  0.46570  0.49970  Biso   1.000  H
  C354     1.0000 0.91570  0.34210  0.52025  Biso   1.000  C
  H210     1.0000 0.91490  0.36050  0.54460  Biso   1.000  H
  C355     1.0000 0.94031  0.25220  0.51238  Biso   1.000  C
  C356     1.0000 0.93914  0.22450  0.47668  Biso   1.000  C
  H211     1.0000 0.95460  0.16130  0.47060  Biso   1.000  H
  C357     1.0000 0.91580  0.28730  0.44963  Biso   1.000  C
  H212     1.0000 0.91530  0.26630  0.42530  Biso   1.000  H
  C358     1.0000 0.89320  0.38020  0.45761  Biso   1.000  C
  C359     1.0000 0.87013  0.45670  0.42937  Biso   1.000  C
  C360     1.0000 0.86990  0.57130  0.43579  Biso   1.000  C
  H213     1.0000 0.88440  0.60000  0.45790  Biso   1.000  H
  C361     1.0000 0.84910  0.64440  0.41064  Biso   1.000  C
  H214     1.0000 0.84990  0.72290  0.41530  Biso   1.000  H
  C362     1.0000 0.82704  0.60370  0.37828  Biso   1.000  C
  C363     1.0000 0.82710  0.48940  0.37189  Biso   1.000  C
  H215     1.0000 0.81230  0.46080  0.34990  Biso   1.000  H
  C364     1.0000 0.84860  0.41550  0.39707  Biso   1.000  C
  H216     1.0000 0.84840  0.33720  0.39220  Biso   1.000  H
  C365     1.0000 0.80424  0.68660  0.35284  Biso   1.000  C
  O53      1.0000 0.77451  0.64970  0.32851  Biso   1.000  O
  O54      1.0000 0.81351  0.78830  0.35521  Biso   1.000  O
  C366     1.0000 0.94192  0.18260  0.63902  Biso   1.000  C
  H217     1.0000 0.95620  0.19690  0.66270  Biso   1.000  H
  C367     1.0000 0.96362  0.19470  0.61007  Biso   1.000  C
  H218     1.0000 0.99210  0.22000  0.61420  Biso   1.000  H
  C368     1.0000 0.94429  0.17040  0.57532  Biso   1.000  C
  C369     1.0000 0.90225  0.13910  0.57000  Biso   1.000  C
  H219     1.0000 0.88820  0.12480  0.54630  Biso   1.000  H
  C370     1.0000 0.88000  0.12800  0.59885  Biso   1.000  C
  H220     1.0000 0.85120  0.10530  0.59450  Biso   1.000  H
  C371     1.0000 0.89970  0.14980  0.63391  Biso   1.000  C
  C372     1.0000 0.87560  0.14500  0.66413  Biso   1.000  C
  C373     1.0000 0.84250  0.06990  0.66404  Biso   1.000  C
  H221     1.0000 0.83670  0.01670  0.64510  Biso   1.000  H
  C374     1.0000 0.81760  0.07080  0.69097  Biso   1.000  C
  H222     1.0000 0.79560  0.01740  0.69070  Biso   1.000  H
  C375     1.0000 0.82512  0.14980  0.71826  Biso   1.000  C
  C376     1.0000 0.85897  0.22310  0.71919  Biso   1.000  C
  H223     1.0000 0.86540  0.27450  0.73860  Biso   1.000  H
  C377     1.0000 0.88350  0.22180  0.69204  Biso   1.000  C
  H224     1.0000 0.90590  0.27420  0.69260  Biso   1.000  H
  C378     1.0000 0.79653  0.15720  0.74614  Biso   1.000  C
  O55      1.0000 0.80682  0.22290  0.77230  Biso   1.000  O
  O56      1.0000 0.76394  0.09870  0.74245  Biso   1.000  O
  K7       1.0000 0.20417  0.44892  0.73411  Biso   1.000  K
  Bi8      1.0000 0.74682  0.18419  0.80493  Biso   1.000  Bi
  C379     1.0000 0.50540  0.65560  0.54282  Biso   1.000  C
  C380     1.0000 0.46580  0.68900  0.54341  Biso   1.000  C
  C381     1.0000 0.59720  0.56950  0.61265  Biso   1.000  C
  H225     1.0000 0.62480  0.59730  0.62120  Biso   1.000  H
  C382     1.0000 0.57160  0.62500  0.58532  Biso   1.000  C
  H226     1.0000 0.58220  0.69000  0.57520  Biso   1.000  H
  C383     1.0000 0.53093  0.58890  0.57220  Biso   1.000  C
  C384     1.0000 0.51765  0.49210  0.58723  Biso   1.000  C
  H227     1.0000 0.49010  0.46420  0.57860  Biso   1.000  H
  C385     1.0000 0.54265  0.43480  0.61405  Biso   1.000  C
  H228     1.0000 0.53240  0.36800  0.62340  Biso   1.000  H
  C386     1.0000 0.58298  0.47330  0.62775  Biso   1.000  C
  C387     1.0000 0.61016  0.41570  0.65757  Biso   1.000  C
  C388     1.0000 0.60490  0.30020  0.66524  Biso   1.000  C
  H229     1.0000 0.58370  0.25750  0.65060  Biso   1.000  H
  C389     1.0000 0.63007  0.25020  0.69343  Biso   1.000  C
  H230     1.0000 0.62590  0.17290  0.69820  Biso   1.000  H
  C390     1.0000 0.66146  0.30900  0.71531  Biso   1.000  C
  C391     1.0000 0.66750  0.42180  0.70805  Biso   1.000  C
  H231     1.0000 0.68920  0.46280  0.72270  Biso   1.000  H
  C392     1.0000 0.64240  0.47460  0.67990  Biso   1.000  C
  H232     1.0000 0.64680  0.55190  0.67550  Biso   1.000  H
  C393     1.0000 0.68801  0.25450  0.74639  Biso   1.000  C
  O57      1.0000 0.71919  0.31020  0.76345  Biso   1.000  O
  O58      1.0000 0.67970  0.15710  0.75607  Biso   1.000  O
  C394     1.0000 0.56070  0.81850  0.47659  Biso   1.000  C
  H233     1.0000 0.56460  0.89420  0.46980  Biso   1.000  H
  C395     1.0000 0.53549  0.79530  0.50230  Biso   1.000  C
  H234     1.0000 0.52210  0.85530  0.51270  Biso   1.000  H
  C396     1.0000 0.52945  0.68630  0.51312  Biso   1.000  C
  C397     1.0000 0.54977  0.60040  0.49723  Biso   1.000  C
  H235     1.0000 0.54670  0.52480  0.50450  Biso   1.000  H
  C398     1.0000 0.57409  0.62340  0.47141  Biso   1.000  C
  H236     1.0000 0.58700  0.56340  0.46070  Biso   1.000  H
  C399     1.0000 0.58018  0.73290  0.46069  Biso   1.000  C
  C400     1.0000 0.60841  0.75570  0.43364  Biso   1.000  C
  C401     1.0000 0.64040  0.83490  0.44055  Biso   1.000  C
  H237     1.0000 0.64290  0.87960  0.46170  Biso   1.000  H
  C402     1.0000 0.66870  0.84920  0.41663  Biso   1.000  C
  H238     1.0000 0.69110  0.90190  0.42170  Biso   1.000  H
  C403     1.0000 0.66425  0.78640  0.38536  Biso   1.000  C
  C404     1.0000 0.63190  0.71120  0.37783  Biso   1.000  C
  H239     1.0000 0.62840  0.66990  0.35600  Biso   1.000  H
  C405     1.0000 0.60400  0.69500  0.40194  Biso   1.000  C
  H240     1.0000 0.58180  0.64180  0.39670  Biso   1.000  H
  C406     1.0000 0.69598  0.80040  0.36018  Biso   1.000  C
  O59      1.0000 0.68944  0.75160  0.33032  Biso   1.000  O
  O60      1.0000 0.72821  0.85910  0.36965  Biso   1.000  O
  C407     1.0000 0.39270  0.90480  0.49357  Biso   1.000  C
  H241     1.0000 0.37610  0.96570  0.49970  Biso   1.000  H
  C408     1.0000 0.41570  0.84210  0.52025  Biso   1.000  C
  H242     1.0000 0.41490  0.86050  0.54460  Biso   1.000  H
  C409     1.0000 0.44031  0.75220  0.51238  Biso   1.000  C
  C410     1.0000 0.43914  0.72450  0.47668  Biso   1.000  C
  H243     1.0000 0.45460  0.66130  0.47060  Biso   1.000  H
  C411     1.0000 0.41580  0.78730  0.44963  Biso   1.000  C
  H244     1.0000 0.41530  0.76630  0.42530  Biso   1.000  H
  C412     1.0000 0.39320  0.88020  0.45761  Biso   1.000  C
  C413     1.0000 0.37013  0.95670  0.42937  Biso   1.000  C
  C414     1.0000 0.36990  0.07130  0.43579  Biso   1.000  C
  H245     1.0000 0.38440  0.10000  0.45790  Biso   1.000  H
  C415     1.0000 0.34910  0.14440  0.41064  Biso   1.000  C
  H246     1.0000 0.34990  0.22290  0.41530  Biso   1.000  H
  C416     1.0000 0.32704  0.10370  0.37828  Biso   1.000  C
  C417     1.0000 0.32710  0.98940  0.37189  Biso   1.000  C
  H247     1.0000 0.31230  0.96080  0.34990  Biso   1.000  H
  C418     1.0000 0.34860  0.91550  0.39707  Biso   1.000  C
  H248     1.0000 0.34840  0.83720  0.39220  Biso   1.000  H
  C419     1.0000 0.30424  0.18660  0.35284  Biso   1.000  C
  O61      1.0000 0.27451  0.14970  0.32851  Biso   1.000  O
  O62      1.0000 0.31351  0.28830  0.35521  Biso   1.000  O
  C420     1.0000 0.44192  0.68260  0.63902  Biso   1.000  C
  H249     1.0000 0.45620  0.69690  0.66270  Biso   1.000  H
  C421     1.0000 0.46362  0.69470  0.61007  Biso   1.000  C
  H250     1.0000 0.49210  0.72000  0.61420  Biso   1.000  H
  C422     1.0000 0.44429  0.67040  0.57532  Biso   1.000  C
  C423     1.0000 0.40225  0.63910  0.57000  Biso   1.000  C
  H251     1.0000 0.38820  0.62480  0.54630  Biso   1.000  H
  C424     1.0000 0.38000  0.62800  0.59885  Biso   1.000  C
  H252     1.0000 0.35120  0.60530  0.59450  Biso   1.000  H
  C425     1.0000 0.39970  0.64980  0.63391  Biso   1.000  C
  C426     1.0000 0.37560  0.64500  0.66413  Biso   1.000  C
  C427     1.0000 0.34250  0.56990  0.66404  Biso   1.000  C
  H253     1.0000 0.33670  0.51670  0.64510  Biso   1.000  H
  C428     1.0000 0.31760  0.57080  0.69097  Biso   1.000  C
  H254     1.0000 0.29560  0.51740  0.69070  Biso   1.000  H
  C429     1.0000 0.32512  0.64980  0.71826  Biso   1.000  C
  C430     1.0000 0.35897  0.72310  0.71919  Biso   1.000  C
  H255     1.0000 0.36540  0.77450  0.73860  Biso   1.000  H
  C431     1.0000 0.38350  0.72180  0.69204  Biso   1.000  C
  H256     1.0000 0.40590  0.77420  0.69260  Biso   1.000  H
  C432     1.0000 0.29653  0.65720  0.74614  Biso   1.000  C
  O63      1.0000 0.30682  0.72290  0.77230  Biso   1.000  O
  O64      1.0000 0.26394  0.59870  0.74245  Biso   1.000  O
  K8       1.0000 0.70417  0.94892  0.73411  Biso   1.000  K
