data_image0
_cell_length_a       28.9234
_cell_length_b       28.9234
_cell_length_c       28.9234
_cell_angle_alpha    90
_cell_angle_beta     90
_cell_angle_gamma    90

_symmetry_space_group_name_H-M    "P 1"
_symmetry_int_tables_number       1

loop_
  _symmetry_equiv_pos_as_xyz
  'x, y, z'

loop_
  _atom_site_label
  _atom_site_occupancy
  _atom_site_fract_x
  _atom_site_fract_y
  _atom_site_fract_z
  _atom_site_thermal_displace_type
  _atom_site_B_iso_or_equiv
  _atom_site_type_symbol
  O1       1.0000 0.37467  0.49295  0.04999  Biso   1.000  O
  O2       1.0000 0.37505  0.55534  0.00514  Biso   1.000  O
  C1       1.0000 0.37610  0.53736  0.04569  Biso   1.000  C
  O3       1.0000 0.37790  0.56138  0.08219  Biso   1.000  O
  O4       1.0000 0.37467  0.99295  0.54999  Biso   1.000  O
  O5       1.0000 0.37505  0.05534  0.50514  Biso   1.000  O
  C2       1.0000 0.37610  0.03736  0.54569  Biso   1.000  C
  O6       1.0000 0.37790  0.06138  0.58219  Biso   1.000  O
  O7       1.0000 0.87467  0.49295  0.54999  Biso   1.000  O
  O8       1.0000 0.87505  0.55534  0.50514  Biso   1.000  O
  C3       1.0000 0.87610  0.53736  0.54569  Biso   1.000  C
  O9       1.0000 0.87790  0.56138  0.58219  Biso   1.000  O
  O10      1.0000 0.87467  0.99295  0.04999  Biso   1.000  O
  O11      1.0000 0.87505  0.05534  0.00514  Biso   1.000  O
  C4       1.0000 0.87610  0.03736  0.04569  Biso   1.000  C
  O12      1.0000 0.87790  0.06138  0.08219  Biso   1.000  O
  O13      1.0000 0.87533  0.25705  0.54999  Biso   1.000  O
  O14      1.0000 0.87495  0.19466  0.50514  Biso   1.000  O
  C5       1.0000 0.87390  0.21264  0.54569  Biso   1.000  C
  O15      1.0000 0.87210  0.18862  0.58219  Biso   1.000  O
  O16      1.0000 0.87533  0.75705  0.04999  Biso   1.000  O
  O17      1.0000 0.87495  0.69466  0.00514  Biso   1.000  O
  C6       1.0000 0.87390  0.71264  0.04569  Biso   1.000  C
  O18      1.0000 0.87210  0.68862  0.08219  Biso   1.000  O
  O19      1.0000 0.37533  0.25705  0.04999  Biso   1.000  O
  O20      1.0000 0.37495  0.19466  0.00514  Biso   1.000  O
  C7       1.0000 0.37390  0.21264  0.04569  Biso   1.000  C
  O21      1.0000 0.37210  0.18862  0.08219  Biso   1.000  O
  O22      1.0000 0.37533  0.75705  0.54999  Biso   1.000  O
  O23      1.0000 0.37495  0.69466  0.50514  Biso   1.000  O
  C8       1.0000 0.37390  0.71264  0.54569  Biso   1.000  C
  O24      1.0000 0.37210  0.68862  0.58219  Biso   1.000  O
  O25      1.0000 0.37533  0.99295  0.20001  Biso   1.000  O
  O26      1.0000 0.37495  0.05534  0.24486  Biso   1.000  O
  C9       1.0000 0.37390  0.03736  0.20431  Biso   1.000  C
  O27      1.0000 0.37210  0.06138  0.16781  Biso   1.000  O
  O28      1.0000 0.37533  0.49295  0.70001  Biso   1.000  O
  O29      1.0000 0.37495  0.55534  0.74486  Biso   1.000  O
  C10      1.0000 0.37390  0.53736  0.70431  Biso   1.000  C
  O30      1.0000 0.37210  0.56138  0.66781  Biso   1.000  O
  O31      1.0000 0.87533  0.99295  0.70001  Biso   1.000  O
  O32      1.0000 0.87495  0.05534  0.74486  Biso   1.000  O
  C11      1.0000 0.87390  0.03736  0.70431  Biso   1.000  C
  O33      1.0000 0.87210  0.06138  0.66781  Biso   1.000  O
  O34      1.0000 0.87533  0.49295  0.20001  Biso   1.000  O
  O35      1.0000 0.87495  0.55534  0.24486  Biso   1.000  O
  C12      1.0000 0.87390  0.53736  0.20431  Biso   1.000  C
  O36      1.0000 0.87210  0.56138  0.16781  Biso   1.000  O
  O37      1.0000 0.87467  0.75705  0.70001  Biso   1.000  O
  O38      1.0000 0.87505  0.69466  0.74486  Biso   1.000  O
  C13      1.0000 0.87610  0.71264  0.70431  Biso   1.000  C
  O39      1.0000 0.87790  0.68862  0.66781  Biso   1.000  O
  O40      1.0000 0.87467  0.25705  0.20001  Biso   1.000  O
  O41      1.0000 0.87505  0.19466  0.24486  Biso   1.000  O
  C14      1.0000 0.87610  0.21264  0.20431  Biso   1.000  C
  O42      1.0000 0.87790  0.18862  0.16781  Biso   1.000  O
  O43      1.0000 0.37467  0.75705  0.20001  Biso   1.000  O
  O44      1.0000 0.37505  0.69466  0.24486  Biso   1.000  O
  C15      1.0000 0.37610  0.71264  0.20431  Biso   1.000  C
  O45      1.0000 0.37790  0.68862  0.16781  Biso   1.000  O
  O46      1.0000 0.37467  0.25705  0.70001  Biso   1.000  O
  O47      1.0000 0.37505  0.19466  0.74486  Biso   1.000  O
  C16      1.0000 0.37610  0.21264  0.70431  Biso   1.000  C
  O48      1.0000 0.37790  0.18862  0.66781  Biso   1.000  O
  O49      1.0000 0.04999  0.37467  0.49295  Biso   1.000  O
  O50      1.0000 0.00514  0.37505  0.55534  Biso   1.000  O
  C17      1.0000 0.04569  0.37610  0.53736  Biso   1.000  C
  O51      1.0000 0.08219  0.37790  0.56138  Biso   1.000  O
  O52      1.0000 0.04999  0.87467  0.99295  Biso   1.000  O
  O53      1.0000 0.00514  0.87505  0.05534  Biso   1.000  O
  C18      1.0000 0.04569  0.87610  0.03736  Biso   1.000  C
  O54      1.0000 0.08219  0.87790  0.06138  Biso   1.000  O
  O55      1.0000 0.54999  0.37467  0.99295  Biso   1.000  O
  O56      1.0000 0.50514  0.37505  0.05534  Biso   1.000  O
  C19      1.0000 0.54569  0.37610  0.03736  Biso   1.000  C
  O57      1.0000 0.58219  0.37790  0.06138  Biso   1.000  O
  O58      1.0000 0.54999  0.87467  0.49295  Biso   1.000  O
  O59      1.0000 0.50514  0.87505  0.55534  Biso   1.000  O
  C20      1.0000 0.54569  0.87610  0.53736  Biso   1.000  C
  O60      1.0000 0.58219  0.87790  0.56138  Biso   1.000  O
  O61      1.0000 0.54999  0.87533  0.25705  Biso   1.000  O
  O62      1.0000 0.50514  0.87495  0.19466  Biso   1.000  O
  C21      1.0000 0.54569  0.87390  0.21264  Biso   1.000  C
  O63      1.0000 0.58219  0.87210  0.18862  Biso   1.000  O
  O64      1.0000 0.54999  0.37533  0.75705  Biso   1.000  O
  O65      1.0000 0.50514  0.37495  0.69466  Biso   1.000  O
  C22      1.0000 0.54569  0.37390  0.71264  Biso   1.000  C
  O66      1.0000 0.58219  0.37210  0.68862  Biso   1.000  O
  O67      1.0000 0.04999  0.87533  0.75705  Biso   1.000  O
  O68      1.0000 0.00514  0.87495  0.69466  Biso   1.000  O
  C23      1.0000 0.04569  0.87390  0.71264  Biso   1.000  C
  O69      1.0000 0.08219  0.87210  0.68862  Biso   1.000  O
  O70      1.0000 0.04999  0.37533  0.25705  Biso   1.000  O
  O71      1.0000 0.00514  0.37495  0.19466  Biso   1.000  O
  C24      1.0000 0.04569  0.37390  0.21264  Biso   1.000  C
  O72      1.0000 0.08219  0.37210  0.18862  Biso   1.000  O
  O73      1.0000 0.20001  0.37533  0.99295  Biso   1.000  O
  O74      1.0000 0.24486  0.37495  0.05534  Biso   1.000  O
  C25      1.0000 0.20431  0.37390  0.03736  Biso   1.000  C
  O75      1.0000 0.16781  0.37210  0.06138  Biso   1.000  O
  O76      1.0000 0.20001  0.87533  0.49295  Biso   1.000  O
  O77      1.0000 0.24486  0.87495  0.55534  Biso   1.000  O
  C26      1.0000 0.20431  0.87390  0.53736  Biso   1.000  C
  O78      1.0000 0.16781  0.87210  0.56138  Biso   1.000  O
  O79      1.0000 0.70001  0.37533  0.49295  Biso   1.000  O
  O80      1.0000 0.74486  0.37495  0.55534  Biso   1.000  O
  C27      1.0000 0.70431  0.37390  0.53736  Biso   1.000  C
  O81      1.0000 0.66781  0.37210  0.56138  Biso   1.000  O
  O82      1.0000 0.70001  0.87533  0.99295  Biso   1.000  O
  O83      1.0000 0.74486  0.87495  0.05534  Biso   1.000  O
  C28      1.0000 0.70431  0.87390  0.03736  Biso   1.000  C
  O84      1.0000 0.66781  0.87210  0.06138  Biso   1.000  O
  O85      1.0000 0.70001  0.87467  0.75705  Biso   1.000  O
  O86      1.0000 0.74486  0.87505  0.69466  Biso   1.000  O
  C29      1.0000 0.70431  0.87610  0.71264  Biso   1.000  C
  O87      1.0000 0.66781  0.87790  0.68862  Biso   1.000  O
  O88      1.0000 0.70001  0.37467  0.25705  Biso   1.000  O
  O89      1.0000 0.74486  0.37505  0.19466  Biso   1.000  O
  C30      1.0000 0.70431  0.37610  0.21264  Biso   1.000  C
  O90      1.0000 0.66781  0.37790  0.18862  Biso   1.000  O
  O91      1.0000 0.20001  0.87467  0.25705  Biso   1.000  O
  O92      1.0000 0.24486  0.87505  0.19466  Biso   1.000  O
  C31      1.0000 0.20431  0.87610  0.21264  Biso   1.000  C
  O93      1.0000 0.16781  0.87790  0.18862  Biso   1.000  O
  O94      1.0000 0.20001  0.37467  0.75705  Biso   1.000  O
  O95      1.0000 0.24486  0.37505  0.69466  Biso   1.000  O
  C32      1.0000 0.20431  0.37610  0.71264  Biso   1.000  C
  O96      1.0000 0.16781  0.37790  0.68862  Biso   1.000  O
  O97      1.0000 0.49295  0.04999  0.37467  Biso   1.000  O
  O98      1.0000 0.55534  0.00514  0.37505  Biso   1.000  O
  C33      1.0000 0.53736  0.04569  0.37610  Biso   1.000  C
  O99      1.0000 0.56138  0.08219  0.37790  Biso   1.000  O
  O100     1.0000 0.49295  0.54999  0.87467  Biso   1.000  O
  O101     1.0000 0.55534  0.50514  0.87505  Biso   1.000  O
  C34      1.0000 0.53736  0.54569  0.87610  Biso   1.000  C
  O102     1.0000 0.56138  0.58219  0.87790  Biso   1.000  O
  O103     1.0000 0.99295  0.04999  0.87467  Biso   1.000  O
  O104     1.0000 0.05534  0.00514  0.87505  Biso   1.000  O
  C35      1.0000 0.03736  0.04569  0.87610  Biso   1.000  C
  O105     1.0000 0.06138  0.08219  0.87790  Biso   1.000  O
  O106     1.0000 0.99295  0.54999  0.37467  Biso   1.000  O
  O107     1.0000 0.05534  0.50514  0.37505  Biso   1.000  O
  C36      1.0000 0.03736  0.54569  0.37610  Biso   1.000  C
  O108     1.0000 0.06138  0.58219  0.37790  Biso   1.000  O
  O109     1.0000 0.25705  0.54999  0.87533  Biso   1.000  O
  O110     1.0000 0.19466  0.50514  0.87495  Biso   1.000  O
  C37      1.0000 0.21264  0.54569  0.87390  Biso   1.000  C
  O111     1.0000 0.18862  0.58219  0.87210  Biso   1.000  O
  O112     1.0000 0.25705  0.04999  0.37533  Biso   1.000  O
  O113     1.0000 0.19466  0.00514  0.37495  Biso   1.000  O
  C38      1.0000 0.21264  0.04569  0.37390  Biso   1.000  C
  O114     1.0000 0.18862  0.08219  0.37210  Biso   1.000  O
  O115     1.0000 0.75705  0.54999  0.37533  Biso   1.000  O
  O116     1.0000 0.69466  0.50514  0.37495  Biso   1.000  O
  C39      1.0000 0.71264  0.54569  0.37390  Biso   1.000  C
  O117     1.0000 0.68862  0.58219  0.37210  Biso   1.000  O
  O118     1.0000 0.75705  0.04999  0.87533  Biso   1.000  O
  O119     1.0000 0.69466  0.00514  0.87495  Biso   1.000  O
  C40      1.0000 0.71264  0.04569  0.87390  Biso   1.000  C
  O120     1.0000 0.68862  0.08219  0.87210  Biso   1.000  O
  O121     1.0000 0.99295  0.20001  0.37533  Biso   1.000  O
  O122     1.0000 0.05534  0.24486  0.37495  Biso   1.000  O
  C41      1.0000 0.03736  0.20431  0.37390  Biso   1.000  C
  O123     1.0000 0.06138  0.16781  0.37210  Biso   1.000  O
  O124     1.0000 0.99295  0.70001  0.87533  Biso   1.000  O
  O125     1.0000 0.05534  0.74486  0.87495  Biso   1.000  O
  C42      1.0000 0.03736  0.70431  0.87390  Biso   1.000  C
  O126     1.0000 0.06138  0.66781  0.87210  Biso   1.000  O
  O127     1.0000 0.49295  0.20001  0.87533  Biso   1.000  O
  O128     1.0000 0.55534  0.24486  0.87495  Biso   1.000  O
  C43      1.0000 0.53736  0.20431  0.87390  Biso   1.000  C
  O129     1.0000 0.56138  0.16781  0.87210  Biso   1.000  O
  O130     1.0000 0.49295  0.70001  0.37533  Biso   1.000  O
  O131     1.0000 0.55534  0.74486  0.37495  Biso   1.000  O
  C44      1.0000 0.53736  0.70431  0.37390  Biso   1.000  C
  O132     1.0000 0.56138  0.66781  0.37210  Biso   1.000  O
  O133     1.0000 0.75705  0.70001  0.87467  Biso   1.000  O
  O134     1.0000 0.69466  0.74486  0.87505  Biso   1.000  O
  C45      1.0000 0.71264  0.70431  0.87610  Biso   1.000  C
  O135     1.0000 0.68862  0.66781  0.87790  Biso   1.000  O
  O136     1.0000 0.75705  0.20001  0.37467  Biso   1.000  O
  O137     1.0000 0.69466  0.24486  0.37505  Biso   1.000  O
  C46      1.0000 0.71264  0.20431  0.37610  Biso   1.000  C
  O138     1.0000 0.68862  0.16781  0.37790  Biso   1.000  O
  O139     1.0000 0.25705  0.70001  0.37467  Biso   1.000  O
  O140     1.0000 0.19466  0.74486  0.37505  Biso   1.000  O
  C47      1.0000 0.21264  0.70431  0.37610  Biso   1.000  C
  O141     1.0000 0.18862  0.66781  0.37790  Biso   1.000  O
  O142     1.0000 0.25705  0.20001  0.87467  Biso   1.000  O
  O143     1.0000 0.19466  0.24486  0.87505  Biso   1.000  O
  C48      1.0000 0.21264  0.20431  0.87610  Biso   1.000  C
  O144     1.0000 0.18862  0.16781  0.87790  Biso   1.000  O
  O145     1.0000 0.24295  0.62467  0.95001  Biso   1.000  O
  O146     1.0000 0.30534  0.62505  0.99486  Biso   1.000  O
  C49      1.0000 0.28736  0.62610  0.95431  Biso   1.000  C
  O147     1.0000 0.31138  0.62790  0.91781  Biso   1.000  O
  O148     1.0000 0.24295  0.12467  0.45001  Biso   1.000  O
  O149     1.0000 0.30534  0.12505  0.49486  Biso   1.000  O
  C50      1.0000 0.28736  0.12610  0.45431  Biso   1.000  C
  O150     1.0000 0.31138  0.12790  0.41781  Biso   1.000  O
  O151     1.0000 0.74295  0.62467  0.45001  Biso   1.000  O
  O152     1.0000 0.80534  0.62505  0.49486  Biso   1.000  O
  C51      1.0000 0.78736  0.62610  0.45431  Biso   1.000  C
  O153     1.0000 0.81138  0.62790  0.41781  Biso   1.000  O
  O154     1.0000 0.74295  0.12467  0.95001  Biso   1.000  O
  O155     1.0000 0.80534  0.12505  0.99486  Biso   1.000  O
  C52      1.0000 0.78736  0.12610  0.95431  Biso   1.000  C
  O156     1.0000 0.81138  0.12790  0.91781  Biso   1.000  O
  O157     1.0000 0.00705  0.12533  0.45001  Biso   1.000  O
  O158     1.0000 0.94466  0.12495  0.49486  Biso   1.000  O
  C53      1.0000 0.96264  0.12390  0.45431  Biso   1.000  C
  O159     1.0000 0.93862  0.12210  0.41781  Biso   1.000  O
  O160     1.0000 0.00705  0.62533  0.95001  Biso   1.000  O
  O161     1.0000 0.94466  0.62495  0.99486  Biso   1.000  O
  C54      1.0000 0.96264  0.62390  0.95431  Biso   1.000  C
  O162     1.0000 0.93862  0.62210  0.91781  Biso   1.000  O
  O163     1.0000 0.50705  0.12533  0.95001  Biso   1.000  O
  O164     1.0000 0.44466  0.12495  0.99486  Biso   1.000  O
  C55      1.0000 0.46264  0.12390  0.95431  Biso   1.000  C
  O165     1.0000 0.43862  0.12210  0.91781  Biso   1.000  O
  O166     1.0000 0.50705  0.62533  0.45001  Biso   1.000  O
  O167     1.0000 0.44466  0.62495  0.49486  Biso   1.000  O
  C56      1.0000 0.46264  0.62390  0.45431  Biso   1.000  C
  O168     1.0000 0.43862  0.62210  0.41781  Biso   1.000  O
  O169     1.0000 0.74295  0.62533  0.79999  Biso   1.000  O
  O170     1.0000 0.80534  0.62495  0.75514  Biso   1.000  O
  C57      1.0000 0.78736  0.62390  0.79569  Biso   1.000  C
  O171     1.0000 0.81138  0.62210  0.83219  Biso   1.000  O
  O172     1.0000 0.74295  0.12533  0.29999  Biso   1.000  O
  O173     1.0000 0.80534  0.12495  0.25514  Biso   1.000  O
  C58      1.0000 0.78736  0.12390  0.29569  Biso   1.000  C
  O174     1.0000 0.81138  0.12210  0.33219  Biso   1.000  O
  O175     1.0000 0.24295  0.62533  0.29999  Biso   1.000  O
  O176     1.0000 0.30534  0.62495  0.25514  Biso   1.000  O
  C59      1.0000 0.28736  0.62390  0.29569  Biso   1.000  C
  O177     1.0000 0.31138  0.62210  0.33219  Biso   1.000  O
  O178     1.0000 0.24295  0.12533  0.79999  Biso   1.000  O
  O179     1.0000 0.30534  0.12495  0.75514  Biso   1.000  O
  C60      1.0000 0.28736  0.12390  0.79569  Biso   1.000  C
  O180     1.0000 0.31138  0.12210  0.83219  Biso   1.000  O
  O181     1.0000 0.50705  0.12467  0.29999  Biso   1.000  O
  O182     1.0000 0.44466  0.12505  0.25514  Biso   1.000  O
  C61      1.0000 0.46264  0.12610  0.29569  Biso   1.000  C
  O183     1.0000 0.43862  0.12790  0.33219  Biso   1.000  O
  O184     1.0000 0.50705  0.62467  0.79999  Biso   1.000  O
  O185     1.0000 0.44466  0.62505  0.75514  Biso   1.000  O
  C62      1.0000 0.46264  0.62610  0.79569  Biso   1.000  C
  O186     1.0000 0.43862  0.62790  0.83219  Biso   1.000  O
  O187     1.0000 0.00705  0.12467  0.79999  Biso   1.000  O
  O188     1.0000 0.94466  0.12505  0.75514  Biso   1.000  O
  C63      1.0000 0.96264  0.12610  0.79569  Biso   1.000  C
  O189     1.0000 0.93862  0.12790  0.83219  Biso   1.000  O
  O190     1.0000 0.00705  0.62467  0.29999  Biso   1.000  O
  O191     1.0000 0.94466  0.62505  0.25514  Biso   1.000  O
  C64      1.0000 0.96264  0.62610  0.29569  Biso   1.000  C
  O192     1.0000 0.93862  0.62790  0.33219  Biso   1.000  O
  O193     1.0000 0.12467  0.29999  0.50705  Biso   1.000  O
  O194     1.0000 0.12505  0.25514  0.44466  Biso   1.000  O
  C65      1.0000 0.12610  0.29569  0.46264  Biso   1.000  C
  O195     1.0000 0.12790  0.33219  0.43862  Biso   1.000  O
  O196     1.0000 0.12467  0.79999  0.00705  Biso   1.000  O
  O197     1.0000 0.12505  0.75514  0.94466  Biso   1.000  O
  C66      1.0000 0.12610  0.79569  0.96264  Biso   1.000  C
  O198     1.0000 0.12790  0.83219  0.93862  Biso   1.000  O
  O199     1.0000 0.62467  0.29999  0.00705  Biso   1.000  O
  O200     1.0000 0.62505  0.25514  0.94466  Biso   1.000  O
  C67      1.0000 0.62610  0.29569  0.96264  Biso   1.000  C
  O201     1.0000 0.62790  0.33219  0.93862  Biso   1.000  O
  O202     1.0000 0.62467  0.79999  0.50705  Biso   1.000  O
  O203     1.0000 0.62505  0.75514  0.44466  Biso   1.000  O
  C68      1.0000 0.62610  0.79569  0.46264  Biso   1.000  C
  O204     1.0000 0.62790  0.83219  0.43862  Biso   1.000  O
  O205     1.0000 0.62533  0.79999  0.74295  Biso   1.000  O
  O206     1.0000 0.62495  0.75514  0.80534  Biso   1.000  O
  C69      1.0000 0.62390  0.79569  0.78736  Biso   1.000  C
  O207     1.0000 0.62210  0.83219  0.81138  Biso   1.000  O
  O208     1.0000 0.62533  0.29999  0.24295  Biso   1.000  O
  O209     1.0000 0.62495  0.25514  0.30534  Biso   1.000  O
  C70      1.0000 0.62390  0.29569  0.28736  Biso   1.000  C
  O210     1.0000 0.62210  0.33219  0.31138  Biso   1.000  O
  O211     1.0000 0.12533  0.79999  0.24295  Biso   1.000  O
  O212     1.0000 0.12495  0.75514  0.30534  Biso   1.000  O
  C71      1.0000 0.12390  0.79569  0.28736  Biso   1.000  C
  O213     1.0000 0.12210  0.83219  0.31138  Biso   1.000  O
  O214     1.0000 0.12533  0.29999  0.74295  Biso   1.000  O
  O215     1.0000 0.12495  0.25514  0.80534  Biso   1.000  O
  C72      1.0000 0.12390  0.29569  0.78736  Biso   1.000  C
  O216     1.0000 0.12210  0.33219  0.81138  Biso   1.000  O
  O217     1.0000 0.12533  0.45001  0.00705  Biso   1.000  O
  O218     1.0000 0.12495  0.49486  0.94466  Biso   1.000  O
  C73      1.0000 0.12390  0.45431  0.96264  Biso   1.000  C
  O219     1.0000 0.12210  0.41781  0.93862  Biso   1.000  O
  O220     1.0000 0.12533  0.95001  0.50705  Biso   1.000  O
  O221     1.0000 0.12495  0.99486  0.44466  Biso   1.000  O
  C74      1.0000 0.12390  0.95431  0.46264  Biso   1.000  C
  O222     1.0000 0.12210  0.91781  0.43862  Biso   1.000  O
  O223     1.0000 0.62533  0.45001  0.50705  Biso   1.000  O
  O224     1.0000 0.62495  0.49486  0.44466  Biso   1.000  O
  C75      1.0000 0.62390  0.45431  0.46264  Biso   1.000  C
  O225     1.0000 0.62210  0.41781  0.43862  Biso   1.000  O
  O226     1.0000 0.62533  0.95001  0.00705  Biso   1.000  O
  O227     1.0000 0.62495  0.99486  0.94466  Biso   1.000  O
  C76      1.0000 0.62390  0.95431  0.96264  Biso   1.000  C
  O228     1.0000 0.62210  0.91781  0.93862  Biso   1.000  O
  O229     1.0000 0.62467  0.95001  0.24295  Biso   1.000  O
  O230     1.0000 0.62505  0.99486  0.30534  Biso   1.000  O
  C77      1.0000 0.62610  0.95431  0.28736  Biso   1.000  C
  O231     1.0000 0.62790  0.91781  0.31138  Biso   1.000  O
  O232     1.0000 0.62467  0.45001  0.74295  Biso   1.000  O
  O233     1.0000 0.62505  0.49486  0.80534  Biso   1.000  O
  C78      1.0000 0.62610  0.45431  0.78736  Biso   1.000  C
  O234     1.0000 0.62790  0.41781  0.81138  Biso   1.000  O
  O235     1.0000 0.12467  0.95001  0.74295  Biso   1.000  O
  O236     1.0000 0.12505  0.99486  0.80534  Biso   1.000  O
  C79      1.0000 0.12610  0.95431  0.78736  Biso   1.000  C
  O237     1.0000 0.12790  0.91781  0.81138  Biso   1.000  O
  O238     1.0000 0.12467  0.45001  0.24295  Biso   1.000  O
  O239     1.0000 0.12505  0.49486  0.30534  Biso   1.000  O
  C80      1.0000 0.12610  0.45431  0.28736  Biso   1.000  C
  O240     1.0000 0.12790  0.41781  0.31138  Biso   1.000  O
  O241     1.0000 0.79999  0.74295  0.62533  Biso   1.000  O
  O242     1.0000 0.75514  0.80534  0.62495  Biso   1.000  O
  C81      1.0000 0.79569  0.78736  0.62390  Biso   1.000  C
  O243     1.0000 0.83219  0.81138  0.62210  Biso   1.000  O
  O244     1.0000 0.79999  0.24295  0.12533  Biso   1.000  O
  O245     1.0000 0.75514  0.30534  0.12495  Biso   1.000  O
  C82      1.0000 0.79569  0.28736  0.12390  Biso   1.000  C
  O246     1.0000 0.83219  0.31138  0.12210  Biso   1.000  O
  O247     1.0000 0.29999  0.74295  0.12533  Biso   1.000  O
  O248     1.0000 0.25514  0.80534  0.12495  Biso   1.000  O
  C83      1.0000 0.29569  0.78736  0.12390  Biso   1.000  C
  O249     1.0000 0.33219  0.81138  0.12210  Biso   1.000  O
  O250     1.0000 0.29999  0.24295  0.62533  Biso   1.000  O
  O251     1.0000 0.25514  0.30534  0.62495  Biso   1.000  O
  C84      1.0000 0.29569  0.28736  0.62390  Biso   1.000  C
  O252     1.0000 0.33219  0.31138  0.62210  Biso   1.000  O
  O253     1.0000 0.29999  0.50705  0.12467  Biso   1.000  O
  O254     1.0000 0.25514  0.44466  0.12505  Biso   1.000  O
  C85      1.0000 0.29569  0.46264  0.12610  Biso   1.000  C
  O255     1.0000 0.33219  0.43862  0.12790  Biso   1.000  O
  O256     1.0000 0.29999  0.00705  0.62467  Biso   1.000  O
  O257     1.0000 0.25514  0.94466  0.62505  Biso   1.000  O
  C86      1.0000 0.29569  0.96264  0.62610  Biso   1.000  C
  O258     1.0000 0.33219  0.93862  0.62790  Biso   1.000  O
  O259     1.0000 0.79999  0.50705  0.62467  Biso   1.000  O
  O260     1.0000 0.75514  0.44466  0.62505  Biso   1.000  O
  C87      1.0000 0.79569  0.46264  0.62610  Biso   1.000  C
  O261     1.0000 0.83219  0.43862  0.62790  Biso   1.000  O
  O262     1.0000 0.79999  0.00705  0.12467  Biso   1.000  O
  O263     1.0000 0.75514  0.94466  0.12505  Biso   1.000  O
  C88      1.0000 0.79569  0.96264  0.12610  Biso   1.000  C
  O264     1.0000 0.83219  0.93862  0.12790  Biso   1.000  O
  O265     1.0000 0.95001  0.24295  0.62467  Biso   1.000  O
  O266     1.0000 0.99486  0.30534  0.62505  Biso   1.000  O
  C89      1.0000 0.95431  0.28736  0.62610  Biso   1.000  C
  O267     1.0000 0.91781  0.31138  0.62790  Biso   1.000  O
  O268     1.0000 0.95001  0.74295  0.12467  Biso   1.000  O
  O269     1.0000 0.99486  0.80534  0.12505  Biso   1.000  O
  C90      1.0000 0.95431  0.78736  0.12610  Biso   1.000  C
  O270     1.0000 0.91781  0.81138  0.12790  Biso   1.000  O
  O271     1.0000 0.45001  0.24295  0.12467  Biso   1.000  O
  O272     1.0000 0.49486  0.30534  0.12505  Biso   1.000  O
  C91      1.0000 0.45431  0.28736  0.12610  Biso   1.000  C
  O273     1.0000 0.41781  0.31138  0.12790  Biso   1.000  O
  O274     1.0000 0.45001  0.74295  0.62467  Biso   1.000  O
  O275     1.0000 0.49486  0.80534  0.62505  Biso   1.000  O
  C92      1.0000 0.45431  0.78736  0.62610  Biso   1.000  C
  O276     1.0000 0.41781  0.81138  0.62790  Biso   1.000  O
  O277     1.0000 0.45001  0.00705  0.12533  Biso   1.000  O
  O278     1.0000 0.49486  0.94466  0.12495  Biso   1.000  O
  C93      1.0000 0.45431  0.96264  0.12390  Biso   1.000  C
  O279     1.0000 0.41781  0.93862  0.12210  Biso   1.000  O
  O280     1.0000 0.45001  0.50705  0.62533  Biso   1.000  O
  O281     1.0000 0.49486  0.44466  0.62495  Biso   1.000  O
  C94      1.0000 0.45431  0.46264  0.62390  Biso   1.000  C
  O282     1.0000 0.41781  0.43862  0.62210  Biso   1.000  O
  O283     1.0000 0.95001  0.00705  0.62533  Biso   1.000  O
  O284     1.0000 0.99486  0.94466  0.62495  Biso   1.000  O
  C95      1.0000 0.95431  0.96264  0.62390  Biso   1.000  C
  O285     1.0000 0.91781  0.93862  0.62210  Biso   1.000  O
  O286     1.0000 0.95001  0.50705  0.12533  Biso   1.000  O
  O287     1.0000 0.99486  0.44466  0.12495  Biso   1.000  O
  C96      1.0000 0.95431  0.46264  0.12390  Biso   1.000  C
  O288     1.0000 0.91781  0.43862  0.12210  Biso   1.000  O
  O289     1.0000 0.62533  0.50705  0.95001  Biso   1.000  O
  O290     1.0000 0.62495  0.44466  0.99486  Biso   1.000  O
  C97      1.0000 0.62390  0.46264  0.95431  Biso   1.000  C
  O291     1.0000 0.62210  0.43862  0.91781  Biso   1.000  O
  O292     1.0000 0.62533  0.00705  0.45001  Biso   1.000  O
  O293     1.0000 0.62495  0.94466  0.49486  Biso   1.000  O
  C98      1.0000 0.62390  0.96264  0.45431  Biso   1.000  C
  O294     1.0000 0.62210  0.93862  0.41781  Biso   1.000  O
  O295     1.0000 0.12533  0.50705  0.45001  Biso   1.000  O
  O296     1.0000 0.12495  0.44466  0.49486  Biso   1.000  O
  C99      1.0000 0.12390  0.46264  0.45431  Biso   1.000  C
  O297     1.0000 0.12210  0.43862  0.41781  Biso   1.000  O
  O298     1.0000 0.12533  0.00705  0.95001  Biso   1.000  O
  O299     1.0000 0.12495  0.94466  0.99486  Biso   1.000  O
  C100     1.0000 0.12390  0.96264  0.95431  Biso   1.000  C
  O300     1.0000 0.12210  0.93862  0.91781  Biso   1.000  O
  O301     1.0000 0.12467  0.74295  0.45001  Biso   1.000  O
  O302     1.0000 0.12505  0.80534  0.49486  Biso   1.000  O
  C101     1.0000 0.12610  0.78736  0.45431  Biso   1.000  C
  O303     1.0000 0.12790  0.81138  0.41781  Biso   1.000  O
  O304     1.0000 0.12467  0.24295  0.95001  Biso   1.000  O
  O305     1.0000 0.12505  0.30534  0.99486  Biso   1.000  O
  C102     1.0000 0.12610  0.28736  0.95431  Biso   1.000  C
  O306     1.0000 0.12790  0.31138  0.91781  Biso   1.000  O
  O307     1.0000 0.62467  0.74295  0.95001  Biso   1.000  O
  O308     1.0000 0.62505  0.80534  0.99486  Biso   1.000  O
  C103     1.0000 0.62610  0.78736  0.95431  Biso   1.000  C
  O309     1.0000 0.62790  0.81138  0.91781  Biso   1.000  O
  O310     1.0000 0.62467  0.24295  0.45001  Biso   1.000  O
  O311     1.0000 0.62505  0.30534  0.49486  Biso   1.000  O
  C104     1.0000 0.62610  0.28736  0.45431  Biso   1.000  C
  O312     1.0000 0.62790  0.31138  0.41781  Biso   1.000  O
  O313     1.0000 0.62467  0.00705  0.79999  Biso   1.000  O
  O314     1.0000 0.62505  0.94466  0.75514  Biso   1.000  O
  C105     1.0000 0.62610  0.96264  0.79569  Biso   1.000  C
  O315     1.0000 0.62790  0.93862  0.83219  Biso   1.000  O
  O316     1.0000 0.62467  0.50705  0.29999  Biso   1.000  O
  O317     1.0000 0.62505  0.44466  0.25514  Biso   1.000  O
  C106     1.0000 0.62610  0.46264  0.29569  Biso   1.000  C
  O318     1.0000 0.62790  0.43862  0.33219  Biso   1.000  O
  O319     1.0000 0.12467  0.00705  0.29999  Biso   1.000  O
  O320     1.0000 0.12505  0.94466  0.25514  Biso   1.000  O
  C107     1.0000 0.12610  0.96264  0.29569  Biso   1.000  C
  O321     1.0000 0.12790  0.93862  0.33219  Biso   1.000  O
  O322     1.0000 0.12467  0.50705  0.79999  Biso   1.000  O
  O323     1.0000 0.12505  0.44466  0.75514  Biso   1.000  O
  C108     1.0000 0.12610  0.46264  0.79569  Biso   1.000  C
  O324     1.0000 0.12790  0.43862  0.83219  Biso   1.000  O
  O325     1.0000 0.12533  0.24295  0.29999  Biso   1.000  O
  O326     1.0000 0.12495  0.30534  0.25514  Biso   1.000  O
  C109     1.0000 0.12390  0.28736  0.29569  Biso   1.000  C
  O327     1.0000 0.12210  0.31138  0.33219  Biso   1.000  O
  O328     1.0000 0.12533  0.74295  0.79999  Biso   1.000  O
  O329     1.0000 0.12495  0.80534  0.75514  Biso   1.000  O
  C110     1.0000 0.12390  0.78736  0.79569  Biso   1.000  C
  O330     1.0000 0.12210  0.81138  0.83219  Biso   1.000  O
  O331     1.0000 0.62533  0.24295  0.79999  Biso   1.000  O
  O332     1.0000 0.62495  0.30534  0.75514  Biso   1.000  O
  C111     1.0000 0.62390  0.28736  0.79569  Biso   1.000  C
  O333     1.0000 0.62210  0.31138  0.83219  Biso   1.000  O
  O334     1.0000 0.62533  0.74295  0.29999  Biso   1.000  O
  O335     1.0000 0.62495  0.80534  0.25514  Biso   1.000  O
  C112     1.0000 0.62390  0.78736  0.29569  Biso   1.000  C
  O336     1.0000 0.62210  0.81138  0.33219  Biso   1.000  O
  O337     1.0000 0.95001  0.62533  0.50705  Biso   1.000  O
  O338     1.0000 0.99486  0.62495  0.44466  Biso   1.000  O
  C113     1.0000 0.95431  0.62390  0.46264  Biso   1.000  C
  O339     1.0000 0.91781  0.62210  0.43862  Biso   1.000  O
  O340     1.0000 0.95001  0.12533  0.00705  Biso   1.000  O
  O341     1.0000 0.99486  0.12495  0.94466  Biso   1.000  O
  C114     1.0000 0.95431  0.12390  0.96264  Biso   1.000  C
  O342     1.0000 0.91781  0.12210  0.93862  Biso   1.000  O
  O343     1.0000 0.45001  0.62533  0.00705  Biso   1.000  O
  O344     1.0000 0.49486  0.62495  0.94466  Biso   1.000  O
  C115     1.0000 0.45431  0.62390  0.96264  Biso   1.000  C
  O345     1.0000 0.41781  0.62210  0.93862  Biso   1.000  O
  O346     1.0000 0.45001  0.12533  0.50705  Biso   1.000  O
  O347     1.0000 0.49486  0.12495  0.44466  Biso   1.000  O
  C116     1.0000 0.45431  0.12390  0.46264  Biso   1.000  C
  O348     1.0000 0.41781  0.12210  0.43862  Biso   1.000  O
  O349     1.0000 0.45001  0.12467  0.74295  Biso   1.000  O
  O350     1.0000 0.49486  0.12505  0.80534  Biso   1.000  O
  C117     1.0000 0.45431  0.12610  0.78736  Biso   1.000  C
  O351     1.0000 0.41781  0.12790  0.81138  Biso   1.000  O
  O352     1.0000 0.45001  0.62467  0.24295  Biso   1.000  O
  O353     1.0000 0.49486  0.62505  0.30534  Biso   1.000  O
  C118     1.0000 0.45431  0.62610  0.28736  Biso   1.000  C
  O354     1.0000 0.41781  0.62790  0.31138  Biso   1.000  O
  O355     1.0000 0.95001  0.12467  0.24295  Biso   1.000  O
  O356     1.0000 0.99486  0.12505  0.30534  Biso   1.000  O
  C119     1.0000 0.95431  0.12610  0.28736  Biso   1.000  C
  O357     1.0000 0.91781  0.12790  0.31138  Biso   1.000  O
  O358     1.0000 0.95001  0.62467  0.74295  Biso   1.000  O
  O359     1.0000 0.99486  0.62505  0.80534  Biso   1.000  O
  C120     1.0000 0.95431  0.62610  0.78736  Biso   1.000  C
  O360     1.0000 0.91781  0.62790  0.81138  Biso   1.000  O
  O361     1.0000 0.79999  0.62467  0.00705  Biso   1.000  O
  O362     1.0000 0.75514  0.62505  0.94466  Biso   1.000  O
  C121     1.0000 0.79569  0.62610  0.96264  Biso   1.000  C
  O363     1.0000 0.83219  0.62790  0.93862  Biso   1.000  O
  O364     1.0000 0.79999  0.12467  0.50705  Biso   1.000  O
  O365     1.0000 0.75514  0.12505  0.44466  Biso   1.000  O
  C122     1.0000 0.79569  0.12610  0.46264  Biso   1.000  C
  O366     1.0000 0.83219  0.12790  0.43862  Biso   1.000  O
  O367     1.0000 0.29999  0.62467  0.50705  Biso   1.000  O
  O368     1.0000 0.25514  0.62505  0.44466  Biso   1.000  O
  C123     1.0000 0.29569  0.62610  0.46264  Biso   1.000  C
  O369     1.0000 0.33219  0.62790  0.43862  Biso   1.000  O
  O370     1.0000 0.29999  0.12467  0.00705  Biso   1.000  O
  O371     1.0000 0.25514  0.12505  0.94466  Biso   1.000  O
  C124     1.0000 0.29569  0.12610  0.96264  Biso   1.000  C
  O372     1.0000 0.33219  0.12790  0.93862  Biso   1.000  O
  O373     1.0000 0.29999  0.12533  0.24295  Biso   1.000  O
  O374     1.0000 0.25514  0.12495  0.30534  Biso   1.000  O
  C125     1.0000 0.29569  0.12390  0.28736  Biso   1.000  C
  O375     1.0000 0.33219  0.12210  0.31138  Biso   1.000  O
  O376     1.0000 0.29999  0.62533  0.74295  Biso   1.000  O
  O377     1.0000 0.25514  0.62495  0.80534  Biso   1.000  O
  C126     1.0000 0.29569  0.62390  0.78736  Biso   1.000  C
  O378     1.0000 0.33219  0.62210  0.81138  Biso   1.000  O
  O379     1.0000 0.79999  0.12533  0.74295  Biso   1.000  O
  O380     1.0000 0.75514  0.12495  0.80534  Biso   1.000  O
  C127     1.0000 0.79569  0.12390  0.78736  Biso   1.000  C
  O381     1.0000 0.83219  0.12210  0.81138  Biso   1.000  O
  O382     1.0000 0.79999  0.62533  0.24295  Biso   1.000  O
  O383     1.0000 0.75514  0.62495  0.30534  Biso   1.000  O
  C128     1.0000 0.79569  0.62390  0.28736  Biso   1.000  C
  O384     1.0000 0.83219  0.62210  0.31138  Biso   1.000  O
  O385     1.0000 0.50705  0.95001  0.62533  Biso   1.000  O
  O386     1.0000 0.44466  0.99486  0.62495  Biso   1.000  O
  C129     1.0000 0.46264  0.95431  0.62390  Biso   1.000  C
  O387     1.0000 0.43862  0.91781  0.62210  Biso   1.000  O
  O388     1.0000 0.50705  0.45001  0.12533  Biso   1.000  O
  O389     1.0000 0.44466  0.49486  0.12495  Biso   1.000  O
  C130     1.0000 0.46264  0.45431  0.12390  Biso   1.000  C
  O390     1.0000 0.43862  0.41781  0.12210  Biso   1.000  O
  O391     1.0000 0.00705  0.95001  0.12533  Biso   1.000  O
  O392     1.0000 0.94466  0.99486  0.12495  Biso   1.000  O
  C131     1.0000 0.96264  0.95431  0.12390  Biso   1.000  C
  O393     1.0000 0.93862  0.91781  0.12210  Biso   1.000  O
  O394     1.0000 0.00705  0.45001  0.62533  Biso   1.000  O
  O395     1.0000 0.94466  0.49486  0.62495  Biso   1.000  O
  C132     1.0000 0.96264  0.45431  0.62390  Biso   1.000  C
  O396     1.0000 0.93862  0.41781  0.62210  Biso   1.000  O
  O397     1.0000 0.74295  0.45001  0.12467  Biso   1.000  O
  O398     1.0000 0.80534  0.49486  0.12505  Biso   1.000  O
  C133     1.0000 0.78736  0.45431  0.12610  Biso   1.000  C
  O399     1.0000 0.81138  0.41781  0.12790  Biso   1.000  O
  O400     1.0000 0.74295  0.95001  0.62467  Biso   1.000  O
  O401     1.0000 0.80534  0.99486  0.62505  Biso   1.000  O
  C134     1.0000 0.78736  0.95431  0.62610  Biso   1.000  C
  O402     1.0000 0.81138  0.91781  0.62790  Biso   1.000  O
  O403     1.0000 0.24295  0.45001  0.62467  Biso   1.000  O
  O404     1.0000 0.30534  0.49486  0.62505  Biso   1.000  O
  C135     1.0000 0.28736  0.45431  0.62610  Biso   1.000  C
  O405     1.0000 0.31138  0.41781  0.62790  Biso   1.000  O
  O406     1.0000 0.24295  0.95001  0.12467  Biso   1.000  O
  O407     1.0000 0.30534  0.99486  0.12505  Biso   1.000  O
  C136     1.0000 0.28736  0.95431  0.12610  Biso   1.000  C
  O408     1.0000 0.31138  0.91781  0.12790  Biso   1.000  O
  O409     1.0000 0.00705  0.79999  0.62467  Biso   1.000  O
  O410     1.0000 0.94466  0.75514  0.62505  Biso   1.000  O
  C137     1.0000 0.96264  0.79569  0.62610  Biso   1.000  C
  O411     1.0000 0.93862  0.83219  0.62790  Biso   1.000  O
  O412     1.0000 0.00705  0.29999  0.12467  Biso   1.000  O
  O413     1.0000 0.94466  0.25514  0.12505  Biso   1.000  O
  C138     1.0000 0.96264  0.29569  0.12610  Biso   1.000  C
  O414     1.0000 0.93862  0.33219  0.12790  Biso   1.000  O
  O415     1.0000 0.50705  0.79999  0.12467  Biso   1.000  O
  O416     1.0000 0.44466  0.75514  0.12505  Biso   1.000  O
  C139     1.0000 0.46264  0.79569  0.12610  Biso   1.000  C
  O417     1.0000 0.43862  0.83219  0.12790  Biso   1.000  O
  O418     1.0000 0.50705  0.29999  0.62467  Biso   1.000  O
  O419     1.0000 0.44466  0.25514  0.62505  Biso   1.000  O
  C140     1.0000 0.46264  0.29569  0.62610  Biso   1.000  C
  O420     1.0000 0.43862  0.33219  0.62790  Biso   1.000  O
  O421     1.0000 0.24295  0.29999  0.12533  Biso   1.000  O
  O422     1.0000 0.30534  0.25514  0.12495  Biso   1.000  O
  C141     1.0000 0.28736  0.29569  0.12390  Biso   1.000  C
  O423     1.0000 0.31138  0.33219  0.12210  Biso   1.000  O
  O424     1.0000 0.24295  0.79999  0.62533  Biso   1.000  O
  O425     1.0000 0.30534  0.75514  0.62495  Biso   1.000  O
  C142     1.0000 0.28736  0.79569  0.62390  Biso   1.000  C
  O426     1.0000 0.31138  0.83219  0.62210  Biso   1.000  O
  O427     1.0000 0.74295  0.29999  0.62533  Biso   1.000  O
  O428     1.0000 0.80534  0.25514  0.62495  Biso   1.000  O
  C143     1.0000 0.78736  0.29569  0.62390  Biso   1.000  C
  O429     1.0000 0.81138  0.33219  0.62210  Biso   1.000  O
  O430     1.0000 0.74295  0.79999  0.12533  Biso   1.000  O
  O431     1.0000 0.80534  0.75514  0.12495  Biso   1.000  O
  C144     1.0000 0.78736  0.79569  0.12390  Biso   1.000  C
  O432     1.0000 0.81138  0.83219  0.12210  Biso   1.000  O
  O433     1.0000 0.75705  0.37533  0.04999  Biso   1.000  O
  O434     1.0000 0.69466  0.37495  0.00514  Biso   1.000  O
  C145     1.0000 0.71264  0.37390  0.04569  Biso   1.000  C
  O435     1.0000 0.68862  0.37210  0.08219  Biso   1.000  O
  O436     1.0000 0.75705  0.87533  0.54999  Biso   1.000  O
  O437     1.0000 0.69466  0.87495  0.50514  Biso   1.000  O
  C146     1.0000 0.71264  0.87390  0.54569  Biso   1.000  C
  O438     1.0000 0.68862  0.87210  0.58219  Biso   1.000  O
  O439     1.0000 0.25705  0.37533  0.54999  Biso   1.000  O
  O440     1.0000 0.19466  0.37495  0.50514  Biso   1.000  O
  C147     1.0000 0.21264  0.37390  0.54569  Biso   1.000  C
  O441     1.0000 0.18862  0.37210  0.58219  Biso   1.000  O
  O442     1.0000 0.25705  0.87533  0.04999  Biso   1.000  O
  O443     1.0000 0.19466  0.87495  0.00514  Biso   1.000  O
  C148     1.0000 0.21264  0.87390  0.04569  Biso   1.000  C
  O444     1.0000 0.18862  0.87210  0.08219  Biso   1.000  O
  O445     1.0000 0.99295  0.87467  0.54999  Biso   1.000  O
  O446     1.0000 0.05534  0.87505  0.50514  Biso   1.000  O
  C149     1.0000 0.03736  0.87610  0.54569  Biso   1.000  C
  O447     1.0000 0.06138  0.87790  0.58219  Biso   1.000  O
  O448     1.0000 0.99295  0.37467  0.04999  Biso   1.000  O
  O449     1.0000 0.05534  0.37505  0.00514  Biso   1.000  O
  C150     1.0000 0.03736  0.37610  0.04569  Biso   1.000  C
  O450     1.0000 0.06138  0.37790  0.08219  Biso   1.000  O
  O451     1.0000 0.49295  0.87467  0.04999  Biso   1.000  O
  O452     1.0000 0.55534  0.87505  0.00514  Biso   1.000  O
  C151     1.0000 0.53736  0.87610  0.04569  Biso   1.000  C
  O453     1.0000 0.56138  0.87790  0.08219  Biso   1.000  O
  O454     1.0000 0.49295  0.37467  0.54999  Biso   1.000  O
  O455     1.0000 0.55534  0.37505  0.50514  Biso   1.000  O
  C152     1.0000 0.53736  0.37610  0.54569  Biso   1.000  C
  O456     1.0000 0.56138  0.37790  0.58219  Biso   1.000  O
  O457     1.0000 0.25705  0.37467  0.20001  Biso   1.000  O
  O458     1.0000 0.19466  0.37505  0.24486  Biso   1.000  O
  C153     1.0000 0.21264  0.37610  0.20431  Biso   1.000  C
  O459     1.0000 0.18862  0.37790  0.16781  Biso   1.000  O
  O460     1.0000 0.25705  0.87467  0.70001  Biso   1.000  O
  O461     1.0000 0.19466  0.87505  0.74486  Biso   1.000  O
  C154     1.0000 0.21264  0.87610  0.70431  Biso   1.000  C
  O462     1.0000 0.18862  0.87790  0.66781  Biso   1.000  O
  O463     1.0000 0.75705  0.37467  0.70001  Biso   1.000  O
  O464     1.0000 0.69466  0.37505  0.74486  Biso   1.000  O
  C155     1.0000 0.71264  0.37610  0.70431  Biso   1.000  C
  O465     1.0000 0.68862  0.37790  0.66781  Biso   1.000  O
  O466     1.0000 0.75705  0.87467  0.20001  Biso   1.000  O
  O467     1.0000 0.69466  0.87505  0.24486  Biso   1.000  O
  C156     1.0000 0.71264  0.87610  0.20431  Biso   1.000  C
  O468     1.0000 0.68862  0.87790  0.16781  Biso   1.000  O
  O469     1.0000 0.49295  0.87533  0.70001  Biso   1.000  O
  O470     1.0000 0.55534  0.87495  0.74486  Biso   1.000  O
  C157     1.0000 0.53736  0.87390  0.70431  Biso   1.000  C
  O471     1.0000 0.56138  0.87210  0.66781  Biso   1.000  O
  O472     1.0000 0.49295  0.37533  0.20001  Biso   1.000  O
  O473     1.0000 0.55534  0.37495  0.24486  Biso   1.000  O
  C158     1.0000 0.53736  0.37390  0.20431  Biso   1.000  C
  O474     1.0000 0.56138  0.37210  0.16781  Biso   1.000  O
  O475     1.0000 0.99295  0.87533  0.20001  Biso   1.000  O
  O476     1.0000 0.05534  0.87495  0.24486  Biso   1.000  O
  C159     1.0000 0.03736  0.87390  0.20431  Biso   1.000  C
  O477     1.0000 0.06138  0.87210  0.16781  Biso   1.000  O
  O478     1.0000 0.99295  0.37533  0.70001  Biso   1.000  O
  O479     1.0000 0.05534  0.37495  0.74486  Biso   1.000  O
  C160     1.0000 0.03736  0.37390  0.70431  Biso   1.000  C
  O480     1.0000 0.06138  0.37210  0.66781  Biso   1.000  O
  O481     1.0000 0.87533  0.70001  0.49295  Biso   1.000  O
  O482     1.0000 0.87495  0.74486  0.55534  Biso   1.000  O
  C161     1.0000 0.87390  0.70431  0.53736  Biso   1.000  C
  O483     1.0000 0.87210  0.66781  0.56138  Biso   1.000  O
  O484     1.0000 0.87533  0.20001  0.99295  Biso   1.000  O
  O485     1.0000 0.87495  0.24486  0.05534  Biso   1.000  O
  C162     1.0000 0.87390  0.20431  0.03736  Biso   1.000  C
  O486     1.0000 0.87210  0.16781  0.06138  Biso   1.000  O
  O487     1.0000 0.37533  0.70001  0.99295  Biso   1.000  O
  O488     1.0000 0.37495  0.74486  0.05534  Biso   1.000  O
  C163     1.0000 0.37390  0.70431  0.03736  Biso   1.000  C
  O489     1.0000 0.37210  0.66781  0.06138  Biso   1.000  O
  O490     1.0000 0.37533  0.20001  0.49295  Biso   1.000  O
  O491     1.0000 0.37495  0.24486  0.55534  Biso   1.000  O
  C164     1.0000 0.37390  0.20431  0.53736  Biso   1.000  C
  O492     1.0000 0.37210  0.16781  0.56138  Biso   1.000  O
  O493     1.0000 0.37467  0.20001  0.25705  Biso   1.000  O
  O494     1.0000 0.37505  0.24486  0.19466  Biso   1.000  O
  C165     1.0000 0.37610  0.20431  0.21264  Biso   1.000  C
  O495     1.0000 0.37790  0.16781  0.18862  Biso   1.000  O
  O496     1.0000 0.37467  0.70001  0.75705  Biso   1.000  O
  O497     1.0000 0.37505  0.74486  0.69466  Biso   1.000  O
  C166     1.0000 0.37610  0.70431  0.71264  Biso   1.000  C
  O498     1.0000 0.37790  0.66781  0.68862  Biso   1.000  O
  O499     1.0000 0.87467  0.20001  0.75705  Biso   1.000  O
  O500     1.0000 0.87505  0.24486  0.69466  Biso   1.000  O
  C167     1.0000 0.87610  0.20431  0.71264  Biso   1.000  C
  O501     1.0000 0.87790  0.16781  0.68862  Biso   1.000  O
  O502     1.0000 0.87467  0.70001  0.25705  Biso   1.000  O
  O503     1.0000 0.87505  0.74486  0.19466  Biso   1.000  O
  C168     1.0000 0.87610  0.70431  0.21264  Biso   1.000  C
  O504     1.0000 0.87790  0.66781  0.18862  Biso   1.000  O
  O505     1.0000 0.87467  0.54999  0.99295  Biso   1.000  O
  O506     1.0000 0.87505  0.50514  0.05534  Biso   1.000  O
  C169     1.0000 0.87610  0.54569  0.03736  Biso   1.000  C
  O507     1.0000 0.87790  0.58219  0.06138  Biso   1.000  O
  O508     1.0000 0.87467  0.04999  0.49295  Biso   1.000  O
  O509     1.0000 0.87505  0.00514  0.55534  Biso   1.000  O
  C170     1.0000 0.87610  0.04569  0.53736  Biso   1.000  C
  O510     1.0000 0.87790  0.08219  0.56138  Biso   1.000  O
  O511     1.0000 0.37467  0.54999  0.49295  Biso   1.000  O
  O512     1.0000 0.37505  0.50514  0.55534  Biso   1.000  O
  C171     1.0000 0.37610  0.54569  0.53736  Biso   1.000  C
  O513     1.0000 0.37790  0.58219  0.56138  Biso   1.000  O
  O514     1.0000 0.37467  0.04999  0.99295  Biso   1.000  O
  O515     1.0000 0.37505  0.00514  0.05534  Biso   1.000  O
  C172     1.0000 0.37610  0.04569  0.03736  Biso   1.000  C
  O516     1.0000 0.37790  0.08219  0.06138  Biso   1.000  O
  O517     1.0000 0.37533  0.04999  0.75705  Biso   1.000  O
  O518     1.0000 0.37495  0.00514  0.69466  Biso   1.000  O
  C173     1.0000 0.37390  0.04569  0.71264  Biso   1.000  C
  O519     1.0000 0.37210  0.08219  0.68862  Biso   1.000  O
  O520     1.0000 0.37533  0.54999  0.25705  Biso   1.000  O
  O521     1.0000 0.37495  0.50514  0.19466  Biso   1.000  O
  C174     1.0000 0.37390  0.54569  0.21264  Biso   1.000  C
  O522     1.0000 0.37210  0.58219  0.18862  Biso   1.000  O
  O523     1.0000 0.87533  0.04999  0.25705  Biso   1.000  O
  O524     1.0000 0.87495  0.00514  0.19466  Biso   1.000  O
  C175     1.0000 0.87390  0.04569  0.21264  Biso   1.000  C
  O525     1.0000 0.87210  0.08219  0.18862  Biso   1.000  O
  O526     1.0000 0.87533  0.54999  0.75705  Biso   1.000  O
  O527     1.0000 0.87495  0.50514  0.69466  Biso   1.000  O
  C176     1.0000 0.87390  0.54569  0.71264  Biso   1.000  C
  O528     1.0000 0.87210  0.58219  0.68862  Biso   1.000  O
  O529     1.0000 0.20001  0.25705  0.37467  Biso   1.000  O
  O530     1.0000 0.24486  0.19466  0.37505  Biso   1.000  O
  C177     1.0000 0.20431  0.21264  0.37610  Biso   1.000  C
  O531     1.0000 0.16781  0.18862  0.37790  Biso   1.000  O
  O532     1.0000 0.20001  0.75705  0.87467  Biso   1.000  O
  O533     1.0000 0.24486  0.69466  0.87505  Biso   1.000  O
  C178     1.0000 0.20431  0.71264  0.87610  Biso   1.000  C
  O534     1.0000 0.16781  0.68862  0.87790  Biso   1.000  O
  O535     1.0000 0.70001  0.25705  0.87467  Biso   1.000  O
  O536     1.0000 0.74486  0.19466  0.87505  Biso   1.000  O
  C179     1.0000 0.70431  0.21264  0.87610  Biso   1.000  C
  O537     1.0000 0.66781  0.18862  0.87790  Biso   1.000  O
  O538     1.0000 0.70001  0.75705  0.37467  Biso   1.000  O
  O539     1.0000 0.74486  0.69466  0.37505  Biso   1.000  O
  C180     1.0000 0.70431  0.71264  0.37610  Biso   1.000  C
  O540     1.0000 0.66781  0.68862  0.37790  Biso   1.000  O
  O541     1.0000 0.70001  0.49295  0.87533  Biso   1.000  O
  O542     1.0000 0.74486  0.55534  0.87495  Biso   1.000  O
  C181     1.0000 0.70431  0.53736  0.87390  Biso   1.000  C
  O543     1.0000 0.66781  0.56138  0.87210  Biso   1.000  O
  O544     1.0000 0.70001  0.99295  0.37533  Biso   1.000  O
  O545     1.0000 0.74486  0.05534  0.37495  Biso   1.000  O
  C182     1.0000 0.70431  0.03736  0.37390  Biso   1.000  C
  O546     1.0000 0.66781  0.06138  0.37210  Biso   1.000  O
  O547     1.0000 0.20001  0.49295  0.37533  Biso   1.000  O
  O548     1.0000 0.24486  0.55534  0.37495  Biso   1.000  O
  C183     1.0000 0.20431  0.53736  0.37390  Biso   1.000  C
  O549     1.0000 0.16781  0.56138  0.37210  Biso   1.000  O
  O550     1.0000 0.20001  0.99295  0.87533  Biso   1.000  O
  O551     1.0000 0.24486  0.05534  0.87495  Biso   1.000  O
  C184     1.0000 0.20431  0.03736  0.87390  Biso   1.000  C
  O552     1.0000 0.16781  0.06138  0.87210  Biso   1.000  O
  O553     1.0000 0.04999  0.75705  0.37533  Biso   1.000  O
  O554     1.0000 0.00514  0.69466  0.37495  Biso   1.000  O
  C185     1.0000 0.04569  0.71264  0.37390  Biso   1.000  C
  O555     1.0000 0.08219  0.68862  0.37210  Biso   1.000  O
  O556     1.0000 0.04999  0.25705  0.87533  Biso   1.000  O
  O557     1.0000 0.00514  0.19466  0.87495  Biso   1.000  O
  C186     1.0000 0.04569  0.21264  0.87390  Biso   1.000  C
  O558     1.0000 0.08219  0.18862  0.87210  Biso   1.000  O
  O559     1.0000 0.54999  0.75705  0.87533  Biso   1.000  O
  O560     1.0000 0.50514  0.69466  0.87495  Biso   1.000  O
  C187     1.0000 0.54569  0.71264  0.87390  Biso   1.000  C
  O561     1.0000 0.58219  0.68862  0.87210  Biso   1.000  O
  O562     1.0000 0.54999  0.25705  0.37533  Biso   1.000  O
  O563     1.0000 0.50514  0.19466  0.37495  Biso   1.000  O
  C188     1.0000 0.54569  0.21264  0.37390  Biso   1.000  C
  O564     1.0000 0.58219  0.18862  0.37210  Biso   1.000  O
  O565     1.0000 0.54999  0.99295  0.87467  Biso   1.000  O
  O566     1.0000 0.50514  0.05534  0.87505  Biso   1.000  O
  C189     1.0000 0.54569  0.03736  0.87610  Biso   1.000  C
  O567     1.0000 0.58219  0.06138  0.87790  Biso   1.000  O
  O568     1.0000 0.54999  0.49295  0.37467  Biso   1.000  O
  O569     1.0000 0.50514  0.55534  0.37505  Biso   1.000  O
  C190     1.0000 0.54569  0.53736  0.37610  Biso   1.000  C
  O570     1.0000 0.58219  0.56138  0.37790  Biso   1.000  O
  O571     1.0000 0.04999  0.99295  0.37467  Biso   1.000  O
  O572     1.0000 0.00514  0.05534  0.37505  Biso   1.000  O
  C191     1.0000 0.04569  0.03736  0.37610  Biso   1.000  C
  O573     1.0000 0.08219  0.06138  0.37790  Biso   1.000  O
  O574     1.0000 0.04999  0.49295  0.87467  Biso   1.000  O
  O575     1.0000 0.00514  0.55534  0.87505  Biso   1.000  O
  C192     1.0000 0.04569  0.53736  0.87610  Biso   1.000  C
  O576     1.0000 0.08219  0.56138  0.87790  Biso   1.000  O
  Mg1      1.0000 0.37412  0.50000  0.12412  Biso   1.000  Mg
  Mg2      1.0000 0.37412  0.00000  0.62412  Biso   1.000  Mg
  Mg3      1.0000 0.87412  0.50000  0.62412  Biso   1.000  Mg
  Mg4      1.0000 0.87412  0.00000  0.12412  Biso   1.000  Mg
  Mg5      1.0000 0.87588  0.25000  0.62412  Biso   1.000  Mg
  Mg6      1.0000 0.87588  0.75000  0.12412  Biso   1.000  Mg
  Mg7      1.0000 0.37588  0.25000  0.12412  Biso   1.000  Mg
  Mg8      1.0000 0.37588  0.75000  0.62412  Biso   1.000  Mg
  Mg9      1.0000 0.37588  0.00000  0.12588  Biso   1.000  Mg
  Mg10     1.0000 0.37588  0.50000  0.62588  Biso   1.000  Mg
  Mg11     1.0000 0.87588  0.00000  0.62588  Biso   1.000  Mg
  Mg12     1.0000 0.87588  0.50000  0.12588  Biso   1.000  Mg
  Mg13     1.0000 0.87412  0.75000  0.62588  Biso   1.000  Mg
  Mg14     1.0000 0.87412  0.25000  0.12588  Biso   1.000  Mg
  Mg15     1.0000 0.37412  0.75000  0.12588  Biso   1.000  Mg
  Mg16     1.0000 0.37412  0.25000  0.62588  Biso   1.000  Mg
  Mg17     1.0000 0.12412  0.37412  0.50000  Biso   1.000  Mg
  Mg18     1.0000 0.12412  0.87412  0.00000  Biso   1.000  Mg
  Mg19     1.0000 0.62412  0.37412  0.00000  Biso   1.000  Mg
  Mg20     1.0000 0.62412  0.87412  0.50000  Biso   1.000  Mg
  Mg21     1.0000 0.62412  0.87588  0.25000  Biso   1.000  Mg
  Mg22     1.0000 0.62412  0.37588  0.75000  Biso   1.000  Mg
  Mg23     1.0000 0.12412  0.87588  0.75000  Biso   1.000  Mg
  Mg24     1.0000 0.12412  0.37588  0.25000  Biso   1.000  Mg
  Mg25     1.0000 0.12588  0.37588  0.00000  Biso   1.000  Mg
  Mg26     1.0000 0.12588  0.87588  0.50000  Biso   1.000  Mg
  Mg27     1.0000 0.62588  0.37588  0.50000  Biso   1.000  Mg
  Mg28     1.0000 0.62588  0.87588  0.00000  Biso   1.000  Mg
  Mg29     1.0000 0.62588  0.87412  0.75000  Biso   1.000  Mg
  Mg30     1.0000 0.62588  0.37412  0.25000  Biso   1.000  Mg
  Mg31     1.0000 0.12588  0.87412  0.25000  Biso   1.000  Mg
  Mg32     1.0000 0.12588  0.37412  0.75000  Biso   1.000  Mg
  Mg33     1.0000 0.50000  0.12412  0.37412  Biso   1.000  Mg
  Mg34     1.0000 0.50000  0.62412  0.87412  Biso   1.000  Mg
  Mg35     1.0000 0.00000  0.12412  0.87412  Biso   1.000  Mg
  Mg36     1.0000 0.00000  0.62412  0.37412  Biso   1.000  Mg
  Mg37     1.0000 0.25000  0.62412  0.87588  Biso   1.000  Mg
  Mg38     1.0000 0.25000  0.12412  0.37588  Biso   1.000  Mg
  Mg39     1.0000 0.75000  0.62412  0.37588  Biso   1.000  Mg
  Mg40     1.0000 0.75000  0.12412  0.87588  Biso   1.000  Mg
  Mg41     1.0000 0.00000  0.12588  0.37588  Biso   1.000  Mg
  Mg42     1.0000 0.00000  0.62588  0.87588  Biso   1.000  Mg
  Mg43     1.0000 0.50000  0.12588  0.87588  Biso   1.000  Mg
  Mg44     1.0000 0.50000  0.62588  0.37588  Biso   1.000  Mg
  Mg45     1.0000 0.75000  0.62588  0.87412  Biso   1.000  Mg
  Mg46     1.0000 0.75000  0.12588  0.37412  Biso   1.000  Mg
  Mg47     1.0000 0.25000  0.62588  0.37412  Biso   1.000  Mg
  Mg48     1.0000 0.25000  0.12588  0.87412  Biso   1.000  Mg
  Mg49     1.0000 0.62588  0.50000  0.87588  Biso   1.000  Mg
  Mg50     1.0000 0.62588  0.00000  0.37588  Biso   1.000  Mg
  Mg51     1.0000 0.12588  0.50000  0.37588  Biso   1.000  Mg
  Mg52     1.0000 0.12588  0.00000  0.87588  Biso   1.000  Mg
  Mg53     1.0000 0.12412  0.75000  0.37588  Biso   1.000  Mg
  Mg54     1.0000 0.12412  0.25000  0.87588  Biso   1.000  Mg
  Mg55     1.0000 0.62412  0.75000  0.87588  Biso   1.000  Mg
  Mg56     1.0000 0.62412  0.25000  0.37588  Biso   1.000  Mg
  Mg57     1.0000 0.62412  0.00000  0.87412  Biso   1.000  Mg
  Mg58     1.0000 0.62412  0.50000  0.37412  Biso   1.000  Mg
  Mg59     1.0000 0.12412  0.00000  0.37412  Biso   1.000  Mg
  Mg60     1.0000 0.12412  0.50000  0.87412  Biso   1.000  Mg
  Mg61     1.0000 0.12588  0.25000  0.37412  Biso   1.000  Mg
  Mg62     1.0000 0.12588  0.75000  0.87412  Biso   1.000  Mg
  Mg63     1.0000 0.62588  0.25000  0.87412  Biso   1.000  Mg
  Mg64     1.0000 0.62588  0.75000  0.37412  Biso   1.000  Mg
  Mg65     1.0000 0.87588  0.62588  0.50000  Biso   1.000  Mg
  Mg66     1.0000 0.87588  0.12588  0.00000  Biso   1.000  Mg
  Mg67     1.0000 0.37588  0.62588  0.00000  Biso   1.000  Mg
  Mg68     1.0000 0.37588  0.12588  0.50000  Biso   1.000  Mg
  Mg69     1.0000 0.37588  0.12412  0.75000  Biso   1.000  Mg
  Mg70     1.0000 0.37588  0.62412  0.25000  Biso   1.000  Mg
  Mg71     1.0000 0.87588  0.12412  0.25000  Biso   1.000  Mg
  Mg72     1.0000 0.87588  0.62412  0.75000  Biso   1.000  Mg
  Mg73     1.0000 0.87412  0.62412  0.00000  Biso   1.000  Mg
  Mg74     1.0000 0.87412  0.12412  0.50000  Biso   1.000  Mg
  Mg75     1.0000 0.37412  0.62412  0.50000  Biso   1.000  Mg
  Mg76     1.0000 0.37412  0.12412  0.00000  Biso   1.000  Mg
  Mg77     1.0000 0.37412  0.12588  0.25000  Biso   1.000  Mg
  Mg78     1.0000 0.37412  0.62588  0.75000  Biso   1.000  Mg
  Mg79     1.0000 0.87412  0.12588  0.75000  Biso   1.000  Mg
  Mg80     1.0000 0.87412  0.62588  0.25000  Biso   1.000  Mg
  Mg81     1.0000 0.50000  0.87588  0.62588  Biso   1.000  Mg
  Mg82     1.0000 0.50000  0.37588  0.12588  Biso   1.000  Mg
  Mg83     1.0000 0.00000  0.87588  0.12588  Biso   1.000  Mg
  Mg84     1.0000 0.00000  0.37588  0.62588  Biso   1.000  Mg
  Mg85     1.0000 0.75000  0.37588  0.12412  Biso   1.000  Mg
  Mg86     1.0000 0.75000  0.87588  0.62412  Biso   1.000  Mg
  Mg87     1.0000 0.25000  0.37588  0.62412  Biso   1.000  Mg
  Mg88     1.0000 0.25000  0.87588  0.12412  Biso   1.000  Mg
  Mg89     1.0000 0.00000  0.87412  0.62412  Biso   1.000  Mg
  Mg90     1.0000 0.00000  0.37412  0.12412  Biso   1.000  Mg
  Mg91     1.0000 0.50000  0.87412  0.12412  Biso   1.000  Mg
  Mg92     1.0000 0.50000  0.37412  0.62412  Biso   1.000  Mg
  Mg93     1.0000 0.25000  0.37412  0.12588  Biso   1.000  Mg
  Mg94     1.0000 0.25000  0.87412  0.62588  Biso   1.000  Mg
  Mg95     1.0000 0.75000  0.37412  0.62588  Biso   1.000  Mg
  Mg96     1.0000 0.75000  0.87412  0.12588  Biso   1.000  Mg
  Na1      1.0000 0.37500  0.62500  0.12500  Biso   1.000  Na
  Na2      1.0000 0.87500  0.12500  0.62500  Biso   1.000  Na
  Na3      1.0000 0.37500  0.12500  0.12500  Biso   1.000  Na
  Na4      1.0000 0.37500  0.62500  0.62500  Biso   1.000  Na
  Na5      1.0000 0.87500  0.62500  0.62500  Biso   1.000  Na
  Na6      1.0000 0.87500  0.12500  0.12500  Biso   1.000  Na
  Na7      1.0000 0.12500  0.37500  0.62500  Biso   1.000  Na
  Na8      1.0000 0.12500  0.87500  0.12500  Biso   1.000  Na
  Na9      1.0000 0.62500  0.87500  0.12500  Biso   1.000  Na
  Na10     1.0000 0.62500  0.37500  0.62500  Biso   1.000  Na
  Na11     1.0000 0.12500  0.37500  0.12500  Biso   1.000  Na
  Na12     1.0000 0.62500  0.87500  0.62500  Biso   1.000  Na
  Na13     1.0000 0.62500  0.12500  0.37500  Biso   1.000  Na
  Na14     1.0000 0.12500  0.62500  0.87500  Biso   1.000  Na
  Na15     1.0000 0.12500  0.12500  0.37500  Biso   1.000  Na
  Na16     1.0000 0.62500  0.62500  0.87500  Biso   1.000  Na
  Na17     1.0000 0.37500  0.62500  0.87500  Biso   1.000  Na
  Na18     1.0000 0.87500  0.12500  0.37500  Biso   1.000  Na
  Na19     1.0000 0.87500  0.62500  0.87500  Biso   1.000  Na
  Na20     1.0000 0.37500  0.12500  0.37500  Biso   1.000  Na
  Na21     1.0000 0.12500  0.37500  0.37500  Biso   1.000  Na
  Na22     1.0000 0.12500  0.87500  0.87500  Biso   1.000  Na
  Na23     1.0000 0.62500  0.87500  0.87500  Biso   1.000  Na
  Na24     1.0000 0.62500  0.37500  0.37500  Biso   1.000  Na
  Na25     1.0000 0.12500  0.37500  0.87500  Biso   1.000  Na
  Na26     1.0000 0.62500  0.87500  0.37500  Biso   1.000  Na
  Na27     1.0000 0.87500  0.87500  0.62500  Biso   1.000  Na
  Na28     1.0000 0.37500  0.37500  0.12500  Biso   1.000  Na
  Na29     1.0000 0.87500  0.37500  0.62500  Biso   1.000  Na
  Na30     1.0000 0.87500  0.87500  0.12500  Biso   1.000  Na
  Na31     1.0000 0.37500  0.87500  0.12500  Biso   1.000  Na
  Na32     1.0000 0.37500  0.37500  0.62500  Biso   1.000  Na
  Na33     1.0000 0.62500  0.37500  0.87500  Biso   1.000  Na
  Na34     1.0000 0.12500  0.87500  0.37500  Biso   1.000  Na
  Na35     1.0000 0.87500  0.62500  0.37500  Biso   1.000  Na
  Na36     1.0000 0.87500  0.12500  0.87500  Biso   1.000  Na
  Na37     1.0000 0.37500  0.12500  0.87500  Biso   1.000  Na
  Na38     1.0000 0.37500  0.62500  0.37500  Biso   1.000  Na
  Na39     1.0000 0.37500  0.87500  0.62500  Biso   1.000  Na
  Na40     1.0000 0.87500  0.37500  0.12500  Biso   1.000  Na
  Na41     1.0000 0.62500  0.37500  0.12500  Biso   1.000  Na
  Na42     1.0000 0.12500  0.87500  0.62500  Biso   1.000  Na
  Na43     1.0000 0.87500  0.62500  0.12500  Biso   1.000  Na
  Na44     1.0000 0.37500  0.12500  0.62500  Biso   1.000  Na
  Na45     1.0000 0.12500  0.62500  0.37500  Biso   1.000  Na
  Na46     1.0000 0.12500  0.12500  0.87500  Biso   1.000  Na
  Na47     1.0000 0.62500  0.12500  0.87500  Biso   1.000  Na
  Na48     1.0000 0.62500  0.62500  0.37500  Biso   1.000  Na
