data_image0
_cell_length_a       29.0191
_cell_length_b       29.0191
_cell_length_c       29.0191
_cell_angle_alpha    90
_cell_angle_beta     90
_cell_angle_gamma    90

_symmetry_space_group_name_H-M    "P 1"
_symmetry_int_tables_number       1

loop_
  _symmetry_equiv_pos_as_xyz
  'x, y, z'

loop_
  _atom_site_label
  _atom_site_occupancy
  _atom_site_fract_x
  _atom_site_fract_y
  _atom_site_fract_z
  _atom_site_thermal_displace_type
  _atom_site_B_iso_or_equiv
  _atom_site_type_symbol
  O1       1.0000 0.74280  0.62581  0.79786  Biso   1.000  O
  C1       1.0000 0.78715  0.62475  0.79251  Biso   1.000  C
  O2       1.0000 0.80460  0.62433  0.75177  Biso   1.000  O
  O3       1.0000 0.81155  0.62423  0.82890  Biso   1.000  O
  O4       1.0000 0.74280  0.12581  0.29786  Biso   1.000  O
  C2       1.0000 0.78715  0.12475  0.29251  Biso   1.000  C
  O5       1.0000 0.80460  0.12433  0.25177  Biso   1.000  O
  O6       1.0000 0.81155  0.12423  0.32890  Biso   1.000  O
  O7       1.0000 0.24280  0.62581  0.29786  Biso   1.000  O
  C3       1.0000 0.28715  0.62475  0.29251  Biso   1.000  C
  O8       1.0000 0.30460  0.62433  0.25177  Biso   1.000  O
  O9       1.0000 0.31155  0.62423  0.32890  Biso   1.000  O
  O10      1.0000 0.24280  0.12581  0.79786  Biso   1.000  O
  C4       1.0000 0.28715  0.12475  0.79251  Biso   1.000  C
  O11      1.0000 0.30460  0.12433  0.75177  Biso   1.000  O
  O12      1.0000 0.31155  0.12423  0.82890  Biso   1.000  O
  O13      1.0000 0.50720  0.12419  0.29786  Biso   1.000  O
  C5       1.0000 0.46285  0.12525  0.29251  Biso   1.000  C
  O14      1.0000 0.44540  0.12567  0.25177  Biso   1.000  O
  O15      1.0000 0.43845  0.12577  0.32890  Biso   1.000  O
  O16      1.0000 0.50720  0.62419  0.79786  Biso   1.000  O
  C6       1.0000 0.46285  0.62525  0.79251  Biso   1.000  C
  O17      1.0000 0.44540  0.62567  0.75177  Biso   1.000  O
  O18      1.0000 0.43845  0.62577  0.82890  Biso   1.000  O
  O19      1.0000 0.00720  0.12419  0.79786  Biso   1.000  O
  C7       1.0000 0.96285  0.12525  0.79251  Biso   1.000  C
  O20      1.0000 0.94540  0.12567  0.75177  Biso   1.000  O
  O21      1.0000 0.93845  0.12577  0.82890  Biso   1.000  O
  O22      1.0000 0.00720  0.62419  0.29786  Biso   1.000  O
  C8       1.0000 0.96285  0.62525  0.29251  Biso   1.000  C
  O23      1.0000 0.94540  0.62567  0.25177  Biso   1.000  O
  O24      1.0000 0.93845  0.62577  0.32890  Biso   1.000  O
  O25      1.0000 0.00720  0.12581  0.45214  Biso   1.000  O
  C9       1.0000 0.96285  0.12475  0.45749  Biso   1.000  C
  O26      1.0000 0.94540  0.12433  0.49823  Biso   1.000  O
  O27      1.0000 0.93845  0.12423  0.42110  Biso   1.000  O
  O28      1.0000 0.00720  0.62581  0.95214  Biso   1.000  O
  C10      1.0000 0.96285  0.62475  0.95749  Biso   1.000  C
  O29      1.0000 0.94540  0.62433  0.99823  Biso   1.000  O
  O30      1.0000 0.93845  0.62423  0.92110  Biso   1.000  O
  O31      1.0000 0.50720  0.12581  0.95214  Biso   1.000  O
  C11      1.0000 0.46285  0.12475  0.95749  Biso   1.000  C
  O32      1.0000 0.44540  0.12433  0.99823  Biso   1.000  O
  O33      1.0000 0.43845  0.12423  0.92110  Biso   1.000  O
  O34      1.0000 0.50720  0.62581  0.45214  Biso   1.000  O
  C12      1.0000 0.46285  0.62475  0.45749  Biso   1.000  C
  O35      1.0000 0.44540  0.62433  0.49823  Biso   1.000  O
  O36      1.0000 0.43845  0.62423  0.42110  Biso   1.000  O
  O37      1.0000 0.24280  0.62419  0.95214  Biso   1.000  O
  C13      1.0000 0.28715  0.62525  0.95749  Biso   1.000  C
  O38      1.0000 0.30460  0.62567  0.99823  Biso   1.000  O
  O39      1.0000 0.31155  0.62577  0.92110  Biso   1.000  O
  O40      1.0000 0.24280  0.12419  0.45214  Biso   1.000  O
  C14      1.0000 0.28715  0.12525  0.45749  Biso   1.000  C
  O41      1.0000 0.30460  0.12567  0.49823  Biso   1.000  O
  O42      1.0000 0.31155  0.12577  0.42110  Biso   1.000  O
  O43      1.0000 0.74280  0.62419  0.45214  Biso   1.000  O
  C15      1.0000 0.78715  0.62525  0.45749  Biso   1.000  C
  O44      1.0000 0.80460  0.62567  0.49823  Biso   1.000  O
  O45      1.0000 0.81155  0.62577  0.42110  Biso   1.000  O
  O46      1.0000 0.74280  0.12419  0.95214  Biso   1.000  O
  C16      1.0000 0.78715  0.12525  0.95749  Biso   1.000  C
  O47      1.0000 0.80460  0.12567  0.99823  Biso   1.000  O
  O48      1.0000 0.81155  0.12577  0.92110  Biso   1.000  O
  O49      1.0000 0.79786  0.74280  0.62581  Biso   1.000  O
  C17      1.0000 0.79251  0.78715  0.62475  Biso   1.000  C
  O50      1.0000 0.75177  0.80460  0.62433  Biso   1.000  O
  O51      1.0000 0.82890  0.81155  0.62423  Biso   1.000  O
  O52      1.0000 0.79786  0.24280  0.12581  Biso   1.000  O
  C18      1.0000 0.79251  0.28715  0.12475  Biso   1.000  C
  O53      1.0000 0.75177  0.30460  0.12433  Biso   1.000  O
  O54      1.0000 0.82890  0.31155  0.12423  Biso   1.000  O
  O55      1.0000 0.29786  0.74280  0.12581  Biso   1.000  O
  C19      1.0000 0.29251  0.78715  0.12475  Biso   1.000  C
  O56      1.0000 0.25177  0.80460  0.12433  Biso   1.000  O
  O57      1.0000 0.32890  0.81155  0.12423  Biso   1.000  O
  O58      1.0000 0.29786  0.24280  0.62581  Biso   1.000  O
  C20      1.0000 0.29251  0.28715  0.62475  Biso   1.000  C
  O59      1.0000 0.25177  0.30460  0.62433  Biso   1.000  O
  O60      1.0000 0.32890  0.31155  0.62423  Biso   1.000  O
  O61      1.0000 0.29786  0.50720  0.12419  Biso   1.000  O
  C21      1.0000 0.29251  0.46285  0.12525  Biso   1.000  C
  O62      1.0000 0.25177  0.44540  0.12567  Biso   1.000  O
  O63      1.0000 0.32890  0.43845  0.12577  Biso   1.000  O
  O64      1.0000 0.29786  0.00720  0.62419  Biso   1.000  O
  C22      1.0000 0.29251  0.96285  0.62525  Biso   1.000  C
  O65      1.0000 0.25177  0.94540  0.62567  Biso   1.000  O
  O66      1.0000 0.32890  0.93845  0.62577  Biso   1.000  O
  O67      1.0000 0.79786  0.50720  0.62419  Biso   1.000  O
  C23      1.0000 0.79251  0.46285  0.62525  Biso   1.000  C
  O68      1.0000 0.75177  0.44540  0.62567  Biso   1.000  O
  O69      1.0000 0.82890  0.43845  0.62577  Biso   1.000  O
  O70      1.0000 0.79786  0.00720  0.12419  Biso   1.000  O
  C24      1.0000 0.79251  0.96285  0.12525  Biso   1.000  C
  O71      1.0000 0.75177  0.94540  0.12567  Biso   1.000  O
  O72      1.0000 0.82890  0.93845  0.12577  Biso   1.000  O
  O73      1.0000 0.45214  0.00720  0.12581  Biso   1.000  O
  C25      1.0000 0.45749  0.96285  0.12475  Biso   1.000  C
  O74      1.0000 0.49823  0.94540  0.12433  Biso   1.000  O
  O75      1.0000 0.42110  0.93845  0.12423  Biso   1.000  O
  O76      1.0000 0.45214  0.50720  0.62581  Biso   1.000  O
  C26      1.0000 0.45749  0.46285  0.62475  Biso   1.000  C
  O77      1.0000 0.49823  0.44540  0.62433  Biso   1.000  O
  O78      1.0000 0.42110  0.43845  0.62423  Biso   1.000  O
  O79      1.0000 0.95214  0.00720  0.62581  Biso   1.000  O
  C27      1.0000 0.95749  0.96285  0.62475  Biso   1.000  C
  O80      1.0000 0.99823  0.94540  0.62433  Biso   1.000  O
  O81      1.0000 0.92110  0.93845  0.62423  Biso   1.000  O
  O82      1.0000 0.95214  0.50720  0.12581  Biso   1.000  O
  C28      1.0000 0.95749  0.46285  0.12475  Biso   1.000  C
  O83      1.0000 0.99823  0.44540  0.12433  Biso   1.000  O
  O84      1.0000 0.92110  0.43845  0.12423  Biso   1.000  O
  O85      1.0000 0.95214  0.24280  0.62419  Biso   1.000  O
  C29      1.0000 0.95749  0.28715  0.62525  Biso   1.000  C
  O86      1.0000 0.99823  0.30460  0.62567  Biso   1.000  O
  O87      1.0000 0.92110  0.31155  0.62577  Biso   1.000  O
  O88      1.0000 0.95214  0.74280  0.12419  Biso   1.000  O
  C30      1.0000 0.95749  0.78715  0.12525  Biso   1.000  C
  O89      1.0000 0.99823  0.80460  0.12567  Biso   1.000  O
  O90      1.0000 0.92110  0.81155  0.12577  Biso   1.000  O
  O91      1.0000 0.45214  0.24280  0.12419  Biso   1.000  O
  C31      1.0000 0.45749  0.28715  0.12525  Biso   1.000  C
  O92      1.0000 0.49823  0.30460  0.12567  Biso   1.000  O
  O93      1.0000 0.42110  0.31155  0.12577  Biso   1.000  O
  O94      1.0000 0.45214  0.74280  0.62419  Biso   1.000  O
  C32      1.0000 0.45749  0.78715  0.62525  Biso   1.000  C
  O95      1.0000 0.49823  0.80460  0.62567  Biso   1.000  O
  O96      1.0000 0.42110  0.81155  0.62577  Biso   1.000  O
  O97      1.0000 0.62581  0.79786  0.74280  Biso   1.000  O
  C33      1.0000 0.62475  0.79251  0.78715  Biso   1.000  C
  O98      1.0000 0.62433  0.75177  0.80460  Biso   1.000  O
  O99      1.0000 0.62423  0.82890  0.81155  Biso   1.000  O
  O100     1.0000 0.62581  0.29786  0.24280  Biso   1.000  O
  C34      1.0000 0.62475  0.29251  0.28715  Biso   1.000  C
  O101     1.0000 0.62433  0.25177  0.30460  Biso   1.000  O
  O102     1.0000 0.62423  0.32890  0.31155  Biso   1.000  O
  O103     1.0000 0.12581  0.79786  0.24280  Biso   1.000  O
  C35      1.0000 0.12475  0.79251  0.28715  Biso   1.000  C
  O104     1.0000 0.12433  0.75177  0.30460  Biso   1.000  O
  O105     1.0000 0.12423  0.82890  0.31155  Biso   1.000  O
  O106     1.0000 0.12581  0.29786  0.74280  Biso   1.000  O
  C36      1.0000 0.12475  0.29251  0.78715  Biso   1.000  C
  O107     1.0000 0.12433  0.25177  0.80460  Biso   1.000  O
  O108     1.0000 0.12423  0.32890  0.81155  Biso   1.000  O
  O109     1.0000 0.12419  0.29786  0.50720  Biso   1.000  O
  C37      1.0000 0.12525  0.29251  0.46285  Biso   1.000  C
  O110     1.0000 0.12567  0.25177  0.44540  Biso   1.000  O
  O111     1.0000 0.12577  0.32890  0.43845  Biso   1.000  O
  O112     1.0000 0.12419  0.79786  0.00720  Biso   1.000  O
  C38      1.0000 0.12525  0.79251  0.96285  Biso   1.000  C
  O113     1.0000 0.12567  0.75177  0.94540  Biso   1.000  O
  O114     1.0000 0.12577  0.82890  0.93845  Biso   1.000  O
  O115     1.0000 0.62419  0.29786  0.00720  Biso   1.000  O
  C39      1.0000 0.62525  0.29251  0.96285  Biso   1.000  C
  O116     1.0000 0.62567  0.25177  0.94540  Biso   1.000  O
  O117     1.0000 0.62577  0.32890  0.93845  Biso   1.000  O
  O118     1.0000 0.62419  0.79786  0.50720  Biso   1.000  O
  C40      1.0000 0.62525  0.79251  0.46285  Biso   1.000  C
  O119     1.0000 0.62567  0.75177  0.44540  Biso   1.000  O
  O120     1.0000 0.62577  0.82890  0.43845  Biso   1.000  O
  O121     1.0000 0.12581  0.45214  0.00720  Biso   1.000  O
  C41      1.0000 0.12475  0.45749  0.96285  Biso   1.000  C
  O122     1.0000 0.12433  0.49823  0.94540  Biso   1.000  O
  O123     1.0000 0.12423  0.42110  0.93845  Biso   1.000  O
  O124     1.0000 0.12581  0.95214  0.50720  Biso   1.000  O
  C42      1.0000 0.12475  0.95749  0.46285  Biso   1.000  C
  O125     1.0000 0.12433  0.99823  0.44540  Biso   1.000  O
  O126     1.0000 0.12423  0.92110  0.43845  Biso   1.000  O
  O127     1.0000 0.62581  0.45214  0.50720  Biso   1.000  O
  C43      1.0000 0.62475  0.45749  0.46285  Biso   1.000  C
  O128     1.0000 0.62433  0.49823  0.44540  Biso   1.000  O
  O129     1.0000 0.62423  0.42110  0.43845  Biso   1.000  O
  O130     1.0000 0.62581  0.95214  0.00720  Biso   1.000  O
  C44      1.0000 0.62475  0.95749  0.96285  Biso   1.000  C
  O131     1.0000 0.62433  0.99823  0.94540  Biso   1.000  O
  O132     1.0000 0.62423  0.92110  0.93845  Biso   1.000  O
  O133     1.0000 0.62419  0.95214  0.24280  Biso   1.000  O
  C45      1.0000 0.62525  0.95749  0.28715  Biso   1.000  C
  O134     1.0000 0.62567  0.99823  0.30460  Biso   1.000  O
  O135     1.0000 0.62577  0.92110  0.31155  Biso   1.000  O
  O136     1.0000 0.62419  0.45214  0.74280  Biso   1.000  O
  C46      1.0000 0.62525  0.45749  0.78715  Biso   1.000  C
  O137     1.0000 0.62567  0.49823  0.80460  Biso   1.000  O
  O138     1.0000 0.62577  0.42110  0.81155  Biso   1.000  O
  O139     1.0000 0.12419  0.95214  0.74280  Biso   1.000  O
  C47      1.0000 0.12525  0.95749  0.78715  Biso   1.000  C
  O140     1.0000 0.12567  0.99823  0.80460  Biso   1.000  O
  O141     1.0000 0.12577  0.92110  0.81155  Biso   1.000  O
  O142     1.0000 0.12419  0.45214  0.24280  Biso   1.000  O
  C48      1.0000 0.12525  0.45749  0.28715  Biso   1.000  C
  O143     1.0000 0.12567  0.49823  0.30460  Biso   1.000  O
  O144     1.0000 0.12577  0.42110  0.31155  Biso   1.000  O
  O145     1.0000 0.37581  0.99280  0.20214  Biso   1.000  O
  C49      1.0000 0.37475  0.03715  0.20749  Biso   1.000  C
  O146     1.0000 0.37433  0.05460  0.24823  Biso   1.000  O
  O147     1.0000 0.37423  0.06155  0.17110  Biso   1.000  O
  O148     1.0000 0.37581  0.49280  0.70214  Biso   1.000  O
  C50      1.0000 0.37475  0.53715  0.70749  Biso   1.000  C
  O149     1.0000 0.37433  0.55460  0.74823  Biso   1.000  O
  O150     1.0000 0.37423  0.56155  0.67110  Biso   1.000  O
  O151     1.0000 0.87581  0.99280  0.70214  Biso   1.000  O
  C51      1.0000 0.87475  0.03715  0.70749  Biso   1.000  C
  O152     1.0000 0.87433  0.05460  0.74823  Biso   1.000  O
  O153     1.0000 0.87423  0.06155  0.67110  Biso   1.000  O
  O154     1.0000 0.87581  0.49280  0.20214  Biso   1.000  O
  C52      1.0000 0.87475  0.53715  0.20749  Biso   1.000  C
  O155     1.0000 0.87433  0.55460  0.24823  Biso   1.000  O
  O156     1.0000 0.87423  0.56155  0.17110  Biso   1.000  O
  O157     1.0000 0.87419  0.75720  0.70214  Biso   1.000  O
  C53      1.0000 0.87525  0.71285  0.70749  Biso   1.000  C
  O158     1.0000 0.87567  0.69540  0.74823  Biso   1.000  O
  O159     1.0000 0.87577  0.68845  0.67110  Biso   1.000  O
  O160     1.0000 0.87419  0.25720  0.20214  Biso   1.000  O
  C54      1.0000 0.87525  0.21285  0.20749  Biso   1.000  C
  O161     1.0000 0.87567  0.19540  0.24823  Biso   1.000  O
  O162     1.0000 0.87577  0.18845  0.17110  Biso   1.000  O
  O163     1.0000 0.37419  0.75720  0.20214  Biso   1.000  O
  C55      1.0000 0.37525  0.71285  0.20749  Biso   1.000  C
  O164     1.0000 0.37567  0.69540  0.24823  Biso   1.000  O
  O165     1.0000 0.37577  0.68845  0.17110  Biso   1.000  O
  O166     1.0000 0.37419  0.25720  0.70214  Biso   1.000  O
  C56      1.0000 0.37525  0.21285  0.70749  Biso   1.000  C
  O167     1.0000 0.37567  0.19540  0.74823  Biso   1.000  O
  O168     1.0000 0.37577  0.18845  0.67110  Biso   1.000  O
  O169     1.0000 0.87581  0.25720  0.54786  Biso   1.000  O
  C57      1.0000 0.87475  0.21285  0.54251  Biso   1.000  C
  O170     1.0000 0.87433  0.19540  0.50177  Biso   1.000  O
  O171     1.0000 0.87423  0.18845  0.57890  Biso   1.000  O
  O172     1.0000 0.87581  0.75720  0.04786  Biso   1.000  O
  C58      1.0000 0.87475  0.71285  0.04251  Biso   1.000  C
  O173     1.0000 0.87433  0.69540  0.00177  Biso   1.000  O
  O174     1.0000 0.87423  0.68845  0.07890  Biso   1.000  O
  O175     1.0000 0.37581  0.25720  0.04786  Biso   1.000  O
  C59      1.0000 0.37475  0.21285  0.04251  Biso   1.000  C
  O176     1.0000 0.37433  0.19540  0.00177  Biso   1.000  O
  O177     1.0000 0.37423  0.18845  0.07890  Biso   1.000  O
  O178     1.0000 0.37581  0.75720  0.54786  Biso   1.000  O
  C60      1.0000 0.37475  0.71285  0.54251  Biso   1.000  C
  O179     1.0000 0.37433  0.69540  0.50177  Biso   1.000  O
  O180     1.0000 0.37423  0.68845  0.57890  Biso   1.000  O
  O181     1.0000 0.37419  0.49280  0.04786  Biso   1.000  O
  C61      1.0000 0.37525  0.53715  0.04251  Biso   1.000  C
  O182     1.0000 0.37567  0.55460  0.00177  Biso   1.000  O
  O183     1.0000 0.37577  0.56155  0.07890  Biso   1.000  O
  O184     1.0000 0.37419  0.99280  0.54786  Biso   1.000  O
  C62      1.0000 0.37525  0.03715  0.54251  Biso   1.000  C
  O185     1.0000 0.37567  0.05460  0.50177  Biso   1.000  O
  O186     1.0000 0.37577  0.06155  0.57890  Biso   1.000  O
  O187     1.0000 0.87419  0.49280  0.54786  Biso   1.000  O
  C63      1.0000 0.87525  0.53715  0.54251  Biso   1.000  C
  O188     1.0000 0.87567  0.55460  0.50177  Biso   1.000  O
  O189     1.0000 0.87577  0.56155  0.57890  Biso   1.000  O
  O190     1.0000 0.87419  0.99280  0.04786  Biso   1.000  O
  C64      1.0000 0.87525  0.03715  0.04251  Biso   1.000  C
  O191     1.0000 0.87567  0.05460  0.00177  Biso   1.000  O
  O192     1.0000 0.87577  0.06155  0.07890  Biso   1.000  O
  O193     1.0000 0.49280  0.04786  0.37419  Biso   1.000  O
  C65      1.0000 0.53715  0.04251  0.37525  Biso   1.000  C
  O194     1.0000 0.55460  0.00177  0.37567  Biso   1.000  O
  O195     1.0000 0.56155  0.07890  0.37577  Biso   1.000  O
  O196     1.0000 0.49280  0.54786  0.87419  Biso   1.000  O
  C66      1.0000 0.53715  0.54251  0.87525  Biso   1.000  C
  O197     1.0000 0.55460  0.50177  0.87567  Biso   1.000  O
  O198     1.0000 0.56155  0.57890  0.87577  Biso   1.000  O
  O199     1.0000 0.99280  0.04786  0.87419  Biso   1.000  O
  C67      1.0000 0.03715  0.04251  0.87525  Biso   1.000  C
  O200     1.0000 0.05460  0.00177  0.87567  Biso   1.000  O
  O201     1.0000 0.06155  0.07890  0.87577  Biso   1.000  O
  O202     1.0000 0.99280  0.54786  0.37419  Biso   1.000  O
  C68      1.0000 0.03715  0.54251  0.37525  Biso   1.000  C
  O203     1.0000 0.05460  0.50177  0.37567  Biso   1.000  O
  O204     1.0000 0.06155  0.57890  0.37577  Biso   1.000  O
  O205     1.0000 0.25720  0.54786  0.87581  Biso   1.000  O
  C69      1.0000 0.21285  0.54251  0.87475  Biso   1.000  C
  O206     1.0000 0.19540  0.50177  0.87433  Biso   1.000  O
  O207     1.0000 0.18845  0.57890  0.87423  Biso   1.000  O
  O208     1.0000 0.25720  0.04786  0.37581  Biso   1.000  O
  C70      1.0000 0.21285  0.04251  0.37475  Biso   1.000  C
  O209     1.0000 0.19540  0.00177  0.37433  Biso   1.000  O
  O210     1.0000 0.18845  0.07890  0.37423  Biso   1.000  O
  O211     1.0000 0.75720  0.54786  0.37581  Biso   1.000  O
  C71      1.0000 0.71285  0.54251  0.37475  Biso   1.000  C
  O212     1.0000 0.69540  0.50177  0.37433  Biso   1.000  O
  O213     1.0000 0.68845  0.57890  0.37423  Biso   1.000  O
  O214     1.0000 0.75720  0.04786  0.87581  Biso   1.000  O
  C72      1.0000 0.71285  0.04251  0.87475  Biso   1.000  C
  O215     1.0000 0.69540  0.00177  0.87433  Biso   1.000  O
  O216     1.0000 0.68845  0.07890  0.87423  Biso   1.000  O
  O217     1.0000 0.75720  0.70214  0.87419  Biso   1.000  O
  C73      1.0000 0.71285  0.70749  0.87525  Biso   1.000  C
  O218     1.0000 0.69540  0.74823  0.87567  Biso   1.000  O
  O219     1.0000 0.68845  0.67110  0.87577  Biso   1.000  O
  O220     1.0000 0.75720  0.20214  0.37419  Biso   1.000  O
  C74      1.0000 0.71285  0.20749  0.37525  Biso   1.000  C
  O221     1.0000 0.69540  0.24823  0.37567  Biso   1.000  O
  O222     1.0000 0.68845  0.17110  0.37577  Biso   1.000  O
  O223     1.0000 0.25720  0.70214  0.37419  Biso   1.000  O
  C75      1.0000 0.21285  0.70749  0.37525  Biso   1.000  C
  O224     1.0000 0.19540  0.74823  0.37567  Biso   1.000  O
  O225     1.0000 0.18845  0.67110  0.37577  Biso   1.000  O
  O226     1.0000 0.25720  0.20214  0.87419  Biso   1.000  O
  C76      1.0000 0.21285  0.20749  0.87525  Biso   1.000  C
  O227     1.0000 0.19540  0.24823  0.87567  Biso   1.000  O
  O228     1.0000 0.18845  0.17110  0.87577  Biso   1.000  O
  O229     1.0000 0.99280  0.20214  0.37581  Biso   1.000  O
  C77      1.0000 0.03715  0.20749  0.37475  Biso   1.000  C
  O230     1.0000 0.05460  0.24823  0.37433  Biso   1.000  O
  O231     1.0000 0.06155  0.17110  0.37423  Biso   1.000  O
  O232     1.0000 0.99280  0.70214  0.87581  Biso   1.000  O
  C78      1.0000 0.03715  0.70749  0.87475  Biso   1.000  C
  O233     1.0000 0.05460  0.74823  0.87433  Biso   1.000  O
  O234     1.0000 0.06155  0.67110  0.87423  Biso   1.000  O
  O235     1.0000 0.49280  0.20214  0.87581  Biso   1.000  O
  C79      1.0000 0.53715  0.20749  0.87475  Biso   1.000  C
  O236     1.0000 0.55460  0.24823  0.87433  Biso   1.000  O
  O237     1.0000 0.56155  0.17110  0.87423  Biso   1.000  O
  O238     1.0000 0.49280  0.70214  0.37581  Biso   1.000  O
  C80      1.0000 0.53715  0.70749  0.37475  Biso   1.000  C
  O239     1.0000 0.55460  0.74823  0.37433  Biso   1.000  O
  O240     1.0000 0.56155  0.67110  0.37423  Biso   1.000  O
  O241     1.0000 0.54786  0.87581  0.25720  Biso   1.000  O
  C81      1.0000 0.54251  0.87475  0.21285  Biso   1.000  C
  O242     1.0000 0.50177  0.87433  0.19540  Biso   1.000  O
  O243     1.0000 0.57890  0.87423  0.18845  Biso   1.000  O
  O244     1.0000 0.54786  0.37581  0.75720  Biso   1.000  O
  C82      1.0000 0.54251  0.37475  0.71285  Biso   1.000  C
  O245     1.0000 0.50177  0.37433  0.69540  Biso   1.000  O
  O246     1.0000 0.57890  0.37423  0.68845  Biso   1.000  O
  O247     1.0000 0.04786  0.87581  0.75720  Biso   1.000  O
  C83      1.0000 0.04251  0.87475  0.71285  Biso   1.000  C
  O248     1.0000 0.00177  0.87433  0.69540  Biso   1.000  O
  O249     1.0000 0.07890  0.87423  0.68845  Biso   1.000  O
  O250     1.0000 0.04786  0.37581  0.25720  Biso   1.000  O
  C84      1.0000 0.04251  0.37475  0.21285  Biso   1.000  C
  O251     1.0000 0.00177  0.37433  0.19540  Biso   1.000  O
  O252     1.0000 0.07890  0.37423  0.18845  Biso   1.000  O
  O253     1.0000 0.04786  0.37419  0.49280  Biso   1.000  O
  C85      1.0000 0.04251  0.37525  0.53715  Biso   1.000  C
  O254     1.0000 0.00177  0.37567  0.55460  Biso   1.000  O
  O255     1.0000 0.07890  0.37577  0.56155  Biso   1.000  O
  O256     1.0000 0.04786  0.87419  0.99280  Biso   1.000  O
  C86      1.0000 0.04251  0.87525  0.03715  Biso   1.000  C
  O257     1.0000 0.00177  0.87567  0.05460  Biso   1.000  O
  O258     1.0000 0.07890  0.87577  0.06155  Biso   1.000  O
  O259     1.0000 0.54786  0.37419  0.99280  Biso   1.000  O
  C87      1.0000 0.54251  0.37525  0.03715  Biso   1.000  C
  O260     1.0000 0.50177  0.37567  0.05460  Biso   1.000  O
  O261     1.0000 0.57890  0.37577  0.06155  Biso   1.000  O
  O262     1.0000 0.54786  0.87419  0.49280  Biso   1.000  O
  C88      1.0000 0.54251  0.87525  0.53715  Biso   1.000  C
  O263     1.0000 0.50177  0.87567  0.55460  Biso   1.000  O
  O264     1.0000 0.57890  0.87577  0.56155  Biso   1.000  O
  O265     1.0000 0.20214  0.37581  0.99280  Biso   1.000  O
  C89      1.0000 0.20749  0.37475  0.03715  Biso   1.000  C
  O266     1.0000 0.24823  0.37433  0.05460  Biso   1.000  O
  O267     1.0000 0.17110  0.37423  0.06155  Biso   1.000  O
  O268     1.0000 0.20214  0.87581  0.49280  Biso   1.000  O
  C90      1.0000 0.20749  0.87475  0.53715  Biso   1.000  C
  O269     1.0000 0.24823  0.87433  0.55460  Biso   1.000  O
  O270     1.0000 0.17110  0.87423  0.56155  Biso   1.000  O
  O271     1.0000 0.70214  0.37581  0.49280  Biso   1.000  O
  C91      1.0000 0.70749  0.37475  0.53715  Biso   1.000  C
  O272     1.0000 0.74823  0.37433  0.55460  Biso   1.000  O
  O273     1.0000 0.67110  0.37423  0.56155  Biso   1.000  O
  O274     1.0000 0.70214  0.87581  0.99280  Biso   1.000  O
  C92      1.0000 0.70749  0.87475  0.03715  Biso   1.000  C
  O275     1.0000 0.74823  0.87433  0.05460  Biso   1.000  O
  O276     1.0000 0.67110  0.87423  0.06155  Biso   1.000  O
  O277     1.0000 0.70214  0.87419  0.75720  Biso   1.000  O
  C93      1.0000 0.70749  0.87525  0.71285  Biso   1.000  C
  O278     1.0000 0.74823  0.87567  0.69540  Biso   1.000  O
  O279     1.0000 0.67110  0.87577  0.68845  Biso   1.000  O
  O280     1.0000 0.70214  0.37419  0.25720  Biso   1.000  O
  C94      1.0000 0.70749  0.37525  0.21285  Biso   1.000  C
  O281     1.0000 0.74823  0.37567  0.19540  Biso   1.000  O
  O282     1.0000 0.67110  0.37577  0.18845  Biso   1.000  O
  O283     1.0000 0.20214  0.87419  0.25720  Biso   1.000  O
  C95      1.0000 0.20749  0.87525  0.21285  Biso   1.000  C
  O284     1.0000 0.24823  0.87567  0.19540  Biso   1.000  O
  O285     1.0000 0.17110  0.87577  0.18845  Biso   1.000  O
  O286     1.0000 0.20214  0.37419  0.75720  Biso   1.000  O
  C96      1.0000 0.20749  0.37525  0.71285  Biso   1.000  C
  O287     1.0000 0.24823  0.37567  0.69540  Biso   1.000  O
  O288     1.0000 0.17110  0.37577  0.68845  Biso   1.000  O
  O289     1.0000 0.25720  0.37419  0.20214  Biso   1.000  O
  C97      1.0000 0.21285  0.37525  0.20749  Biso   1.000  C
  O290     1.0000 0.19540  0.37567  0.24823  Biso   1.000  O
  O291     1.0000 0.18845  0.37577  0.17110  Biso   1.000  O
  O292     1.0000 0.25720  0.87419  0.70214  Biso   1.000  O
  C98      1.0000 0.21285  0.87525  0.70749  Biso   1.000  C
  O293     1.0000 0.19540  0.87567  0.74823  Biso   1.000  O
  O294     1.0000 0.18845  0.87577  0.67110  Biso   1.000  O
  O295     1.0000 0.75720  0.37419  0.70214  Biso   1.000  O
  C99      1.0000 0.71285  0.37525  0.70749  Biso   1.000  C
  O296     1.0000 0.69540  0.37567  0.74823  Biso   1.000  O
  O297     1.0000 0.68845  0.37577  0.67110  Biso   1.000  O
  O298     1.0000 0.75720  0.87419  0.20214  Biso   1.000  O
  C100     1.0000 0.71285  0.87525  0.20749  Biso   1.000  C
  O299     1.0000 0.69540  0.87567  0.24823  Biso   1.000  O
  O300     1.0000 0.68845  0.87577  0.17110  Biso   1.000  O
  O301     1.0000 0.49280  0.87581  0.70214  Biso   1.000  O
  C101     1.0000 0.53715  0.87475  0.70749  Biso   1.000  C
  O302     1.0000 0.55460  0.87433  0.74823  Biso   1.000  O
  O303     1.0000 0.56155  0.87423  0.67110  Biso   1.000  O
  O304     1.0000 0.49280  0.37581  0.20214  Biso   1.000  O
  C102     1.0000 0.53715  0.37475  0.20749  Biso   1.000  C
  O305     1.0000 0.55460  0.37433  0.24823  Biso   1.000  O
  O306     1.0000 0.56155  0.37423  0.17110  Biso   1.000  O
  O307     1.0000 0.99280  0.87581  0.20214  Biso   1.000  O
  C103     1.0000 0.03715  0.87475  0.20749  Biso   1.000  C
  O308     1.0000 0.05460  0.87433  0.24823  Biso   1.000  O
  O309     1.0000 0.06155  0.87423  0.17110  Biso   1.000  O
  O310     1.0000 0.99280  0.37581  0.70214  Biso   1.000  O
  C104     1.0000 0.03715  0.37475  0.70749  Biso   1.000  C
  O311     1.0000 0.05460  0.37433  0.74823  Biso   1.000  O
  O312     1.0000 0.06155  0.37423  0.67110  Biso   1.000  O
  O313     1.0000 0.99280  0.87419  0.54786  Biso   1.000  O
  C105     1.0000 0.03715  0.87525  0.54251  Biso   1.000  C
  O314     1.0000 0.05460  0.87567  0.50177  Biso   1.000  O
  O315     1.0000 0.06155  0.87577  0.57890  Biso   1.000  O
  O316     1.0000 0.99280  0.37419  0.04786  Biso   1.000  O
  C106     1.0000 0.03715  0.37525  0.04251  Biso   1.000  C
  O317     1.0000 0.05460  0.37567  0.00177  Biso   1.000  O
  O318     1.0000 0.06155  0.37577  0.07890  Biso   1.000  O
  O319     1.0000 0.49280  0.87419  0.04786  Biso   1.000  O
  C107     1.0000 0.53715  0.87525  0.04251  Biso   1.000  C
  O320     1.0000 0.55460  0.87567  0.00177  Biso   1.000  O
  O321     1.0000 0.56155  0.87577  0.07890  Biso   1.000  O
  O322     1.0000 0.49280  0.37419  0.54786  Biso   1.000  O
  C108     1.0000 0.53715  0.37525  0.54251  Biso   1.000  C
  O323     1.0000 0.55460  0.37567  0.50177  Biso   1.000  O
  O324     1.0000 0.56155  0.37577  0.57890  Biso   1.000  O
  O325     1.0000 0.75720  0.37581  0.04786  Biso   1.000  O
  C109     1.0000 0.71285  0.37475  0.04251  Biso   1.000  C
  O326     1.0000 0.69540  0.37433  0.00177  Biso   1.000  O
  O327     1.0000 0.68845  0.37423  0.07890  Biso   1.000  O
  O328     1.0000 0.75720  0.87581  0.54786  Biso   1.000  O
  C110     1.0000 0.71285  0.87475  0.54251  Biso   1.000  C
  O329     1.0000 0.69540  0.87433  0.50177  Biso   1.000  O
  O330     1.0000 0.68845  0.87423  0.57890  Biso   1.000  O
  O331     1.0000 0.25720  0.37581  0.54786  Biso   1.000  O
  C111     1.0000 0.21285  0.37475  0.54251  Biso   1.000  C
  O332     1.0000 0.19540  0.37433  0.50177  Biso   1.000  O
  O333     1.0000 0.18845  0.37423  0.57890  Biso   1.000  O
  O334     1.0000 0.25720  0.87581  0.04786  Biso   1.000  O
  C112     1.0000 0.21285  0.87475  0.04251  Biso   1.000  C
  O335     1.0000 0.19540  0.87433  0.00177  Biso   1.000  O
  O336     1.0000 0.18845  0.87423  0.07890  Biso   1.000  O
  O337     1.0000 0.20214  0.25720  0.37419  Biso   1.000  O
  C113     1.0000 0.20749  0.21285  0.37525  Biso   1.000  C
  O338     1.0000 0.24823  0.19540  0.37567  Biso   1.000  O
  O339     1.0000 0.17110  0.18845  0.37577  Biso   1.000  O
  O340     1.0000 0.20214  0.75720  0.87419  Biso   1.000  O
  C114     1.0000 0.20749  0.71285  0.87525  Biso   1.000  C
  O341     1.0000 0.24823  0.69540  0.87567  Biso   1.000  O
  O342     1.0000 0.17110  0.68845  0.87577  Biso   1.000  O
  O343     1.0000 0.70214  0.25720  0.87419  Biso   1.000  O
  C115     1.0000 0.70749  0.21285  0.87525  Biso   1.000  C
  O344     1.0000 0.74823  0.19540  0.87567  Biso   1.000  O
  O345     1.0000 0.67110  0.18845  0.87577  Biso   1.000  O
  O346     1.0000 0.70214  0.75720  0.37419  Biso   1.000  O
  C116     1.0000 0.70749  0.71285  0.37525  Biso   1.000  C
  O347     1.0000 0.74823  0.69540  0.37567  Biso   1.000  O
  O348     1.0000 0.67110  0.68845  0.37577  Biso   1.000  O
  O349     1.0000 0.70214  0.49280  0.87581  Biso   1.000  O
  C117     1.0000 0.70749  0.53715  0.87475  Biso   1.000  C
  O350     1.0000 0.74823  0.55460  0.87433  Biso   1.000  O
  O351     1.0000 0.67110  0.56155  0.87423  Biso   1.000  O
  O352     1.0000 0.70214  0.99280  0.37581  Biso   1.000  O
  C118     1.0000 0.70749  0.03715  0.37475  Biso   1.000  C
  O353     1.0000 0.74823  0.05460  0.37433  Biso   1.000  O
  O354     1.0000 0.67110  0.06155  0.37423  Biso   1.000  O
  O355     1.0000 0.20214  0.49280  0.37581  Biso   1.000  O
  C119     1.0000 0.20749  0.53715  0.37475  Biso   1.000  C
  O356     1.0000 0.24823  0.55460  0.37433  Biso   1.000  O
  O357     1.0000 0.17110  0.56155  0.37423  Biso   1.000  O
  O358     1.0000 0.20214  0.99280  0.87581  Biso   1.000  O
  C120     1.0000 0.20749  0.03715  0.87475  Biso   1.000  C
  O359     1.0000 0.24823  0.05460  0.87433  Biso   1.000  O
  O360     1.0000 0.17110  0.06155  0.87423  Biso   1.000  O
  O361     1.0000 0.54786  0.99280  0.87419  Biso   1.000  O
  C121     1.0000 0.54251  0.03715  0.87525  Biso   1.000  C
  O362     1.0000 0.50177  0.05460  0.87567  Biso   1.000  O
  O363     1.0000 0.57890  0.06155  0.87577  Biso   1.000  O
  O364     1.0000 0.54786  0.49280  0.37419  Biso   1.000  O
  C122     1.0000 0.54251  0.53715  0.37525  Biso   1.000  C
  O365     1.0000 0.50177  0.55460  0.37567  Biso   1.000  O
  O366     1.0000 0.57890  0.56155  0.37577  Biso   1.000  O
  O367     1.0000 0.04786  0.99280  0.37419  Biso   1.000  O
  C123     1.0000 0.04251  0.03715  0.37525  Biso   1.000  C
  O368     1.0000 0.00177  0.05460  0.37567  Biso   1.000  O
  O369     1.0000 0.07890  0.06155  0.37577  Biso   1.000  O
  O370     1.0000 0.04786  0.49280  0.87419  Biso   1.000  O
  C124     1.0000 0.04251  0.53715  0.87525  Biso   1.000  C
  O371     1.0000 0.00177  0.55460  0.87567  Biso   1.000  O
  O372     1.0000 0.07890  0.56155  0.87577  Biso   1.000  O
  O373     1.0000 0.04786  0.75720  0.37581  Biso   1.000  O
  C125     1.0000 0.04251  0.71285  0.37475  Biso   1.000  C
  O374     1.0000 0.00177  0.69540  0.37433  Biso   1.000  O
  O375     1.0000 0.07890  0.68845  0.37423  Biso   1.000  O
  O376     1.0000 0.04786  0.25720  0.87581  Biso   1.000  O
  C126     1.0000 0.04251  0.21285  0.87475  Biso   1.000  C
  O377     1.0000 0.00177  0.19540  0.87433  Biso   1.000  O
  O378     1.0000 0.07890  0.18845  0.87423  Biso   1.000  O
  O379     1.0000 0.54786  0.75720  0.87581  Biso   1.000  O
  C127     1.0000 0.54251  0.71285  0.87475  Biso   1.000  C
  O380     1.0000 0.50177  0.69540  0.87433  Biso   1.000  O
  O381     1.0000 0.57890  0.68845  0.87423  Biso   1.000  O
  O382     1.0000 0.54786  0.25720  0.37581  Biso   1.000  O
  C128     1.0000 0.54251  0.21285  0.37475  Biso   1.000  C
  O383     1.0000 0.50177  0.19540  0.37433  Biso   1.000  O
  O384     1.0000 0.57890  0.18845  0.37423  Biso   1.000  O
  O385     1.0000 0.37419  0.20214  0.25720  Biso   1.000  O
  C129     1.0000 0.37525  0.20749  0.21285  Biso   1.000  C
  O386     1.0000 0.37567  0.24823  0.19540  Biso   1.000  O
  O387     1.0000 0.37577  0.17110  0.18845  Biso   1.000  O
  O388     1.0000 0.37419  0.70214  0.75720  Biso   1.000  O
  C130     1.0000 0.37525  0.70749  0.71285  Biso   1.000  C
  O389     1.0000 0.37567  0.74823  0.69540  Biso   1.000  O
  O390     1.0000 0.37577  0.67110  0.68845  Biso   1.000  O
  O391     1.0000 0.87419  0.20214  0.75720  Biso   1.000  O
  C131     1.0000 0.87525  0.20749  0.71285  Biso   1.000  C
  O392     1.0000 0.87567  0.24823  0.69540  Biso   1.000  O
  O393     1.0000 0.87577  0.17110  0.68845  Biso   1.000  O
  O394     1.0000 0.87419  0.70214  0.25720  Biso   1.000  O
  C132     1.0000 0.87525  0.70749  0.21285  Biso   1.000  C
  O395     1.0000 0.87567  0.74823  0.19540  Biso   1.000  O
  O396     1.0000 0.87577  0.67110  0.18845  Biso   1.000  O
  O397     1.0000 0.87581  0.70214  0.49280  Biso   1.000  O
  C133     1.0000 0.87475  0.70749  0.53715  Biso   1.000  C
  O398     1.0000 0.87433  0.74823  0.55460  Biso   1.000  O
  O399     1.0000 0.87423  0.67110  0.56155  Biso   1.000  O
  O400     1.0000 0.87581  0.20214  0.99280  Biso   1.000  O
  C134     1.0000 0.87475  0.20749  0.03715  Biso   1.000  C
  O401     1.0000 0.87433  0.24823  0.05460  Biso   1.000  O
  O402     1.0000 0.87423  0.17110  0.06155  Biso   1.000  O
  O403     1.0000 0.37581  0.70214  0.99280  Biso   1.000  O
  C135     1.0000 0.37475  0.70749  0.03715  Biso   1.000  C
  O404     1.0000 0.37433  0.74823  0.05460  Biso   1.000  O
  O405     1.0000 0.37423  0.67110  0.06155  Biso   1.000  O
  O406     1.0000 0.37581  0.20214  0.49280  Biso   1.000  O
  C136     1.0000 0.37475  0.20749  0.53715  Biso   1.000  C
  O407     1.0000 0.37433  0.24823  0.55460  Biso   1.000  O
  O408     1.0000 0.37423  0.17110  0.56155  Biso   1.000  O
  O409     1.0000 0.87419  0.54786  0.99280  Biso   1.000  O
  C137     1.0000 0.87525  0.54251  0.03715  Biso   1.000  C
  O410     1.0000 0.87567  0.50177  0.05460  Biso   1.000  O
  O411     1.0000 0.87577  0.57890  0.06155  Biso   1.000  O
  O412     1.0000 0.87419  0.04786  0.49280  Biso   1.000  O
  C138     1.0000 0.87525  0.04251  0.53715  Biso   1.000  C
  O413     1.0000 0.87567  0.00177  0.55460  Biso   1.000  O
  O414     1.0000 0.87577  0.07890  0.56155  Biso   1.000  O
  O415     1.0000 0.37419  0.54786  0.49280  Biso   1.000  O
  C139     1.0000 0.37525  0.54251  0.53715  Biso   1.000  C
  O416     1.0000 0.37567  0.50177  0.55460  Biso   1.000  O
  O417     1.0000 0.37577  0.57890  0.56155  Biso   1.000  O
  O418     1.0000 0.37419  0.04786  0.99280  Biso   1.000  O
  C140     1.0000 0.37525  0.04251  0.03715  Biso   1.000  C
  O419     1.0000 0.37567  0.00177  0.05460  Biso   1.000  O
  O420     1.0000 0.37577  0.07890  0.06155  Biso   1.000  O
  O421     1.0000 0.37581  0.04786  0.75720  Biso   1.000  O
  C141     1.0000 0.37475  0.04251  0.71285  Biso   1.000  C
  O422     1.0000 0.37433  0.00177  0.69540  Biso   1.000  O
  O423     1.0000 0.37423  0.07890  0.68845  Biso   1.000  O
  O424     1.0000 0.37581  0.54786  0.25720  Biso   1.000  O
  C142     1.0000 0.37475  0.54251  0.21285  Biso   1.000  C
  O425     1.0000 0.37433  0.50177  0.19540  Biso   1.000  O
  O426     1.0000 0.37423  0.57890  0.18845  Biso   1.000  O
  O427     1.0000 0.87581  0.04786  0.25720  Biso   1.000  O
  C143     1.0000 0.87475  0.04251  0.21285  Biso   1.000  C
  O428     1.0000 0.87433  0.00177  0.19540  Biso   1.000  O
  O429     1.0000 0.87423  0.07890  0.18845  Biso   1.000  O
  O430     1.0000 0.87581  0.54786  0.75720  Biso   1.000  O
  C144     1.0000 0.87475  0.54251  0.71285  Biso   1.000  C
  O431     1.0000 0.87433  0.50177  0.69540  Biso   1.000  O
  O432     1.0000 0.87423  0.57890  0.68845  Biso   1.000  O
  O433     1.0000 0.62419  0.00720  0.79786  Biso   1.000  O
  C145     1.0000 0.62525  0.96285  0.79251  Biso   1.000  C
  O434     1.0000 0.62567  0.94540  0.75177  Biso   1.000  O
  O435     1.0000 0.62577  0.93845  0.82890  Biso   1.000  O
  O436     1.0000 0.62419  0.50720  0.29786  Biso   1.000  O
  C146     1.0000 0.62525  0.46285  0.29251  Biso   1.000  C
  O437     1.0000 0.62567  0.44540  0.25177  Biso   1.000  O
  O438     1.0000 0.62577  0.43845  0.32890  Biso   1.000  O
  O439     1.0000 0.12419  0.00720  0.29786  Biso   1.000  O
  C147     1.0000 0.12525  0.96285  0.29251  Biso   1.000  C
  O440     1.0000 0.12567  0.94540  0.25177  Biso   1.000  O
  O441     1.0000 0.12577  0.93845  0.32890  Biso   1.000  O
  O442     1.0000 0.12419  0.50720  0.79786  Biso   1.000  O
  C148     1.0000 0.12525  0.46285  0.79251  Biso   1.000  C
  O443     1.0000 0.12567  0.44540  0.75177  Biso   1.000  O
  O444     1.0000 0.12577  0.43845  0.82890  Biso   1.000  O
  O445     1.0000 0.12581  0.24280  0.29786  Biso   1.000  O
  C149     1.0000 0.12475  0.28715  0.29251  Biso   1.000  C
  O446     1.0000 0.12433  0.30460  0.25177  Biso   1.000  O
  O447     1.0000 0.12423  0.31155  0.32890  Biso   1.000  O
  O448     1.0000 0.12581  0.74280  0.79786  Biso   1.000  O
  C150     1.0000 0.12475  0.78715  0.79251  Biso   1.000  C
  O449     1.0000 0.12433  0.80460  0.75177  Biso   1.000  O
  O450     1.0000 0.12423  0.81155  0.82890  Biso   1.000  O
  O451     1.0000 0.62581  0.24280  0.79786  Biso   1.000  O
  C151     1.0000 0.62475  0.28715  0.79251  Biso   1.000  C
  O452     1.0000 0.62433  0.30460  0.75177  Biso   1.000  O
  O453     1.0000 0.62423  0.31155  0.82890  Biso   1.000  O
  O454     1.0000 0.62581  0.74280  0.29786  Biso   1.000  O
  C152     1.0000 0.62475  0.78715  0.29251  Biso   1.000  C
  O455     1.0000 0.62433  0.80460  0.25177  Biso   1.000  O
  O456     1.0000 0.62423  0.81155  0.32890  Biso   1.000  O
  O457     1.0000 0.12419  0.74280  0.45214  Biso   1.000  O
  C153     1.0000 0.12525  0.78715  0.45749  Biso   1.000  C
  O458     1.0000 0.12567  0.80460  0.49823  Biso   1.000  O
  O459     1.0000 0.12577  0.81155  0.42110  Biso   1.000  O
  O460     1.0000 0.12419  0.24280  0.95214  Biso   1.000  O
  C154     1.0000 0.12525  0.28715  0.95749  Biso   1.000  C
  O461     1.0000 0.12567  0.30460  0.99823  Biso   1.000  O
  O462     1.0000 0.12577  0.31155  0.92110  Biso   1.000  O
  O463     1.0000 0.62419  0.74280  0.95214  Biso   1.000  O
  C155     1.0000 0.62525  0.78715  0.95749  Biso   1.000  C
  O464     1.0000 0.62567  0.80460  0.99823  Biso   1.000  O
  O465     1.0000 0.62577  0.81155  0.92110  Biso   1.000  O
  O466     1.0000 0.62419  0.24280  0.45214  Biso   1.000  O
  C156     1.0000 0.62525  0.28715  0.45749  Biso   1.000  C
  O467     1.0000 0.62567  0.30460  0.49823  Biso   1.000  O
  O468     1.0000 0.62577  0.31155  0.42110  Biso   1.000  O
  O469     1.0000 0.62581  0.50720  0.95214  Biso   1.000  O
  C157     1.0000 0.62475  0.46285  0.95749  Biso   1.000  C
  O470     1.0000 0.62433  0.44540  0.99823  Biso   1.000  O
  O471     1.0000 0.62423  0.43845  0.92110  Biso   1.000  O
  O472     1.0000 0.62581  0.00720  0.45214  Biso   1.000  O
  C158     1.0000 0.62475  0.96285  0.45749  Biso   1.000  C
  O473     1.0000 0.62433  0.94540  0.49823  Biso   1.000  O
  O474     1.0000 0.62423  0.93845  0.42110  Biso   1.000  O
  O475     1.0000 0.12581  0.50720  0.45214  Biso   1.000  O
  C159     1.0000 0.12475  0.46285  0.45749  Biso   1.000  C
  O476     1.0000 0.12433  0.44540  0.49823  Biso   1.000  O
  O477     1.0000 0.12423  0.43845  0.42110  Biso   1.000  O
  O478     1.0000 0.12581  0.00720  0.95214  Biso   1.000  O
  C160     1.0000 0.12475  0.96285  0.95749  Biso   1.000  C
  O479     1.0000 0.12433  0.94540  0.99823  Biso   1.000  O
  O480     1.0000 0.12423  0.93845  0.92110  Biso   1.000  O
  O481     1.0000 0.50720  0.95214  0.62581  Biso   1.000  O
  C161     1.0000 0.46285  0.95749  0.62475  Biso   1.000  C
  O482     1.0000 0.44540  0.99823  0.62433  Biso   1.000  O
  O483     1.0000 0.43845  0.92110  0.62423  Biso   1.000  O
  O484     1.0000 0.50720  0.45214  0.12581  Biso   1.000  O
  C162     1.0000 0.46285  0.45749  0.12475  Biso   1.000  C
  O485     1.0000 0.44540  0.49823  0.12433  Biso   1.000  O
  O486     1.0000 0.43845  0.42110  0.12423  Biso   1.000  O
  O487     1.0000 0.00720  0.95214  0.12581  Biso   1.000  O
  C163     1.0000 0.96285  0.95749  0.12475  Biso   1.000  C
  O488     1.0000 0.94540  0.99823  0.12433  Biso   1.000  O
  O489     1.0000 0.93845  0.92110  0.12423  Biso   1.000  O
  O490     1.0000 0.00720  0.45214  0.62581  Biso   1.000  O
  C164     1.0000 0.96285  0.45749  0.62475  Biso   1.000  C
  O491     1.0000 0.94540  0.49823  0.62433  Biso   1.000  O
  O492     1.0000 0.93845  0.42110  0.62423  Biso   1.000  O
  O493     1.0000 0.74280  0.45214  0.12419  Biso   1.000  O
  C165     1.0000 0.78715  0.45749  0.12525  Biso   1.000  C
  O494     1.0000 0.80460  0.49823  0.12567  Biso   1.000  O
  O495     1.0000 0.81155  0.42110  0.12577  Biso   1.000  O
  O496     1.0000 0.74280  0.95214  0.62419  Biso   1.000  O
  C166     1.0000 0.78715  0.95749  0.62525  Biso   1.000  C
  O497     1.0000 0.80460  0.99823  0.62567  Biso   1.000  O
  O498     1.0000 0.81155  0.92110  0.62577  Biso   1.000  O
  O499     1.0000 0.24280  0.45214  0.62419  Biso   1.000  O
  C167     1.0000 0.28715  0.45749  0.62525  Biso   1.000  C
  O500     1.0000 0.30460  0.49823  0.62567  Biso   1.000  O
  O501     1.0000 0.31155  0.42110  0.62577  Biso   1.000  O
  O502     1.0000 0.24280  0.95214  0.12419  Biso   1.000  O
  C168     1.0000 0.28715  0.95749  0.12525  Biso   1.000  C
  O503     1.0000 0.30460  0.99823  0.12567  Biso   1.000  O
  O504     1.0000 0.31155  0.92110  0.12577  Biso   1.000  O
  O505     1.0000 0.24280  0.29786  0.12581  Biso   1.000  O
  C169     1.0000 0.28715  0.29251  0.12475  Biso   1.000  C
  O506     1.0000 0.30460  0.25177  0.12433  Biso   1.000  O
  O507     1.0000 0.31155  0.32890  0.12423  Biso   1.000  O
  O508     1.0000 0.24280  0.79786  0.62581  Biso   1.000  O
  C170     1.0000 0.28715  0.79251  0.62475  Biso   1.000  C
  O509     1.0000 0.30460  0.75177  0.62433  Biso   1.000  O
  O510     1.0000 0.31155  0.82890  0.62423  Biso   1.000  O
  O511     1.0000 0.74280  0.29786  0.62581  Biso   1.000  O
  C171     1.0000 0.78715  0.29251  0.62475  Biso   1.000  C
  O512     1.0000 0.80460  0.25177  0.62433  Biso   1.000  O
  O513     1.0000 0.81155  0.32890  0.62423  Biso   1.000  O
  O514     1.0000 0.74280  0.79786  0.12581  Biso   1.000  O
  C172     1.0000 0.78715  0.79251  0.12475  Biso   1.000  C
  O515     1.0000 0.80460  0.75177  0.12433  Biso   1.000  O
  O516     1.0000 0.81155  0.82890  0.12423  Biso   1.000  O
  O517     1.0000 0.00720  0.79786  0.62419  Biso   1.000  O
  C173     1.0000 0.96285  0.79251  0.62525  Biso   1.000  C
  O518     1.0000 0.94540  0.75177  0.62567  Biso   1.000  O
  O519     1.0000 0.93845  0.82890  0.62577  Biso   1.000  O
  O520     1.0000 0.00720  0.29786  0.12419  Biso   1.000  O
  C174     1.0000 0.96285  0.29251  0.12525  Biso   1.000  C
  O521     1.0000 0.94540  0.25177  0.12567  Biso   1.000  O
  O522     1.0000 0.93845  0.32890  0.12577  Biso   1.000  O
  O523     1.0000 0.50720  0.79786  0.12419  Biso   1.000  O
  C175     1.0000 0.46285  0.79251  0.12525  Biso   1.000  C
  O524     1.0000 0.44540  0.75177  0.12567  Biso   1.000  O
  O525     1.0000 0.43845  0.82890  0.12577  Biso   1.000  O
  O526     1.0000 0.50720  0.29786  0.62419  Biso   1.000  O
  C176     1.0000 0.46285  0.29251  0.62525  Biso   1.000  C
  O527     1.0000 0.44540  0.25177  0.62567  Biso   1.000  O
  O528     1.0000 0.43845  0.32890  0.62577  Biso   1.000  O
  O529     1.0000 0.45214  0.12419  0.74280  Biso   1.000  O
  C177     1.0000 0.45749  0.12525  0.78715  Biso   1.000  C
  O530     1.0000 0.49823  0.12567  0.80460  Biso   1.000  O
  O531     1.0000 0.42110  0.12577  0.81155  Biso   1.000  O
  O532     1.0000 0.45214  0.62419  0.24280  Biso   1.000  O
  C178     1.0000 0.45749  0.62525  0.28715  Biso   1.000  C
  O533     1.0000 0.49823  0.62567  0.30460  Biso   1.000  O
  O534     1.0000 0.42110  0.62577  0.31155  Biso   1.000  O
  O535     1.0000 0.95214  0.12419  0.24280  Biso   1.000  O
  C179     1.0000 0.95749  0.12525  0.28715  Biso   1.000  C
  O536     1.0000 0.99823  0.12567  0.30460  Biso   1.000  O
  O537     1.0000 0.92110  0.12577  0.31155  Biso   1.000  O
  O538     1.0000 0.95214  0.62419  0.74280  Biso   1.000  O
  C180     1.0000 0.95749  0.62525  0.78715  Biso   1.000  C
  O539     1.0000 0.99823  0.62567  0.80460  Biso   1.000  O
  O540     1.0000 0.92110  0.62577  0.81155  Biso   1.000  O
  O541     1.0000 0.95214  0.62581  0.50720  Biso   1.000  O
  C181     1.0000 0.95749  0.62475  0.46285  Biso   1.000  C
  O542     1.0000 0.99823  0.62433  0.44540  Biso   1.000  O
  O543     1.0000 0.92110  0.62423  0.43845  Biso   1.000  O
  O544     1.0000 0.95214  0.12581  0.00720  Biso   1.000  O
  C182     1.0000 0.95749  0.12475  0.96285  Biso   1.000  C
  O545     1.0000 0.99823  0.12433  0.94540  Biso   1.000  O
  O546     1.0000 0.92110  0.12423  0.93845  Biso   1.000  O
  O547     1.0000 0.45214  0.62581  0.00720  Biso   1.000  O
  C183     1.0000 0.45749  0.62475  0.96285  Biso   1.000  C
  O548     1.0000 0.49823  0.62433  0.94540  Biso   1.000  O
  O549     1.0000 0.42110  0.62423  0.93845  Biso   1.000  O
  O550     1.0000 0.45214  0.12581  0.50720  Biso   1.000  O
  C184     1.0000 0.45749  0.12475  0.46285  Biso   1.000  C
  O551     1.0000 0.49823  0.12433  0.44540  Biso   1.000  O
  O552     1.0000 0.42110  0.12423  0.43845  Biso   1.000  O
  O553     1.0000 0.79786  0.62419  0.00720  Biso   1.000  O
  C185     1.0000 0.79251  0.62525  0.96285  Biso   1.000  C
  O554     1.0000 0.75177  0.62567  0.94540  Biso   1.000  O
  O555     1.0000 0.82890  0.62577  0.93845  Biso   1.000  O
  O556     1.0000 0.79786  0.12419  0.50720  Biso   1.000  O
  C186     1.0000 0.79251  0.12525  0.46285  Biso   1.000  C
  O557     1.0000 0.75177  0.12567  0.44540  Biso   1.000  O
  O558     1.0000 0.82890  0.12577  0.43845  Biso   1.000  O
  O559     1.0000 0.29786  0.62419  0.50720  Biso   1.000  O
  C187     1.0000 0.29251  0.62525  0.46285  Biso   1.000  C
  O560     1.0000 0.25177  0.62567  0.44540  Biso   1.000  O
  O561     1.0000 0.32890  0.62577  0.43845  Biso   1.000  O
  O562     1.0000 0.29786  0.12419  0.00720  Biso   1.000  O
  C188     1.0000 0.29251  0.12525  0.96285  Biso   1.000  C
  O563     1.0000 0.25177  0.12567  0.94540  Biso   1.000  O
  O564     1.0000 0.32890  0.12577  0.93845  Biso   1.000  O
  O565     1.0000 0.29786  0.12581  0.24280  Biso   1.000  O
  C189     1.0000 0.29251  0.12475  0.28715  Biso   1.000  C
  O566     1.0000 0.25177  0.12433  0.30460  Biso   1.000  O
  O567     1.0000 0.32890  0.12423  0.31155  Biso   1.000  O
  O568     1.0000 0.29786  0.62581  0.74280  Biso   1.000  O
  C190     1.0000 0.29251  0.62475  0.78715  Biso   1.000  C
  O569     1.0000 0.25177  0.62433  0.80460  Biso   1.000  O
  O570     1.0000 0.32890  0.62423  0.81155  Biso   1.000  O
  O571     1.0000 0.79786  0.12581  0.74280  Biso   1.000  O
  C191     1.0000 0.79251  0.12475  0.78715  Biso   1.000  C
  O572     1.0000 0.75177  0.12433  0.80460  Biso   1.000  O
  O573     1.0000 0.82890  0.12423  0.81155  Biso   1.000  O
  O574     1.0000 0.79786  0.62581  0.24280  Biso   1.000  O
  C192     1.0000 0.79251  0.62475  0.28715  Biso   1.000  C
  O575     1.0000 0.75177  0.62433  0.30460  Biso   1.000  O
  O576     1.0000 0.82890  0.62423  0.31155  Biso   1.000  O
  Fe1      1.0000 0.75000  0.62650  0.87350  Biso   1.000  Fe
  Fe2      1.0000 0.75000  0.12650  0.37350  Biso   1.000  Fe
  Fe3      1.0000 0.25000  0.62650  0.37350  Biso   1.000  Fe
  Fe4      1.0000 0.25000  0.12650  0.87350  Biso   1.000  Fe
  Fe5      1.0000 0.50000  0.12350  0.37350  Biso   1.000  Fe
  Fe6      1.0000 0.50000  0.62350  0.87350  Biso   1.000  Fe
  Fe7      1.0000 0.00000  0.12350  0.87350  Biso   1.000  Fe
  Fe8      1.0000 0.00000  0.62350  0.37350  Biso   1.000  Fe
  Fe9      1.0000 0.00000  0.12650  0.37650  Biso   1.000  Fe
  Fe10     1.0000 0.00000  0.62650  0.87650  Biso   1.000  Fe
  Fe11     1.0000 0.50000  0.12650  0.87650  Biso   1.000  Fe
  Fe12     1.0000 0.50000  0.62650  0.37650  Biso   1.000  Fe
  Fe13     1.0000 0.25000  0.62350  0.87650  Biso   1.000  Fe
  Fe14     1.0000 0.25000  0.12350  0.37650  Biso   1.000  Fe
  Fe15     1.0000 0.75000  0.62350  0.37650  Biso   1.000  Fe
  Fe16     1.0000 0.75000  0.12350  0.87650  Biso   1.000  Fe
  Fe17     1.0000 0.87350  0.75000  0.62650  Biso   1.000  Fe
  Fe18     1.0000 0.87350  0.25000  0.12650  Biso   1.000  Fe
  Fe19     1.0000 0.37350  0.75000  0.12650  Biso   1.000  Fe
  Fe20     1.0000 0.37350  0.25000  0.62650  Biso   1.000  Fe
  Fe21     1.0000 0.37350  0.50000  0.12350  Biso   1.000  Fe
  Fe22     1.0000 0.37350  0.00000  0.62350  Biso   1.000  Fe
  Fe23     1.0000 0.87350  0.50000  0.62350  Biso   1.000  Fe
  Fe24     1.0000 0.87350  0.00000  0.12350  Biso   1.000  Fe
  Fe25     1.0000 0.37650  0.00000  0.12650  Biso   1.000  Fe
  Fe26     1.0000 0.37650  0.50000  0.62650  Biso   1.000  Fe
  Fe27     1.0000 0.87650  0.00000  0.62650  Biso   1.000  Fe
  Fe28     1.0000 0.87650  0.50000  0.12650  Biso   1.000  Fe
  Fe29     1.0000 0.87650  0.25000  0.62350  Biso   1.000  Fe
  Fe30     1.0000 0.87650  0.75000  0.12350  Biso   1.000  Fe
  Fe31     1.0000 0.37650  0.25000  0.12350  Biso   1.000  Fe
  Fe32     1.0000 0.37650  0.75000  0.62350  Biso   1.000  Fe
  Fe33     1.0000 0.62650  0.87350  0.75000  Biso   1.000  Fe
  Fe34     1.0000 0.62650  0.37350  0.25000  Biso   1.000  Fe
  Fe35     1.0000 0.12650  0.87350  0.25000  Biso   1.000  Fe
  Fe36     1.0000 0.12650  0.37350  0.75000  Biso   1.000  Fe
  Fe37     1.0000 0.12350  0.37350  0.50000  Biso   1.000  Fe
  Fe38     1.0000 0.12350  0.87350  0.00000  Biso   1.000  Fe
  Fe39     1.0000 0.62350  0.37350  0.00000  Biso   1.000  Fe
  Fe40     1.0000 0.62350  0.87350  0.50000  Biso   1.000  Fe
  Fe41     1.0000 0.12650  0.37650  0.00000  Biso   1.000  Fe
  Fe42     1.0000 0.12650  0.87650  0.50000  Biso   1.000  Fe
  Fe43     1.0000 0.62650  0.37650  0.50000  Biso   1.000  Fe
  Fe44     1.0000 0.62650  0.87650  0.00000  Biso   1.000  Fe
  Fe45     1.0000 0.62350  0.87650  0.25000  Biso   1.000  Fe
  Fe46     1.0000 0.62350  0.37650  0.75000  Biso   1.000  Fe
  Fe47     1.0000 0.12350  0.87650  0.75000  Biso   1.000  Fe
  Fe48     1.0000 0.12350  0.37650  0.25000  Biso   1.000  Fe
  Fe49     1.0000 0.25000  0.37350  0.12650  Biso   1.000  Fe
  Fe50     1.0000 0.25000  0.87350  0.62650  Biso   1.000  Fe
  Fe51     1.0000 0.75000  0.37350  0.62650  Biso   1.000  Fe
  Fe52     1.0000 0.75000  0.87350  0.12650  Biso   1.000  Fe
  Fe53     1.0000 0.50000  0.87650  0.62650  Biso   1.000  Fe
  Fe54     1.0000 0.50000  0.37650  0.12650  Biso   1.000  Fe
  Fe55     1.0000 0.00000  0.87650  0.12650  Biso   1.000  Fe
  Fe56     1.0000 0.00000  0.37650  0.62650  Biso   1.000  Fe
  Fe57     1.0000 0.00000  0.87350  0.62350  Biso   1.000  Fe
  Fe58     1.0000 0.00000  0.37350  0.12350  Biso   1.000  Fe
  Fe59     1.0000 0.50000  0.87350  0.12350  Biso   1.000  Fe
  Fe60     1.0000 0.50000  0.37350  0.62350  Biso   1.000  Fe
  Fe61     1.0000 0.75000  0.37650  0.12350  Biso   1.000  Fe
  Fe62     1.0000 0.75000  0.87650  0.62350  Biso   1.000  Fe
  Fe63     1.0000 0.25000  0.37650  0.62350  Biso   1.000  Fe
  Fe64     1.0000 0.25000  0.87650  0.12350  Biso   1.000  Fe
  Fe65     1.0000 0.12650  0.25000  0.37350  Biso   1.000  Fe
  Fe66     1.0000 0.12650  0.75000  0.87350  Biso   1.000  Fe
  Fe67     1.0000 0.62650  0.25000  0.87350  Biso   1.000  Fe
  Fe68     1.0000 0.62650  0.75000  0.37350  Biso   1.000  Fe
  Fe69     1.0000 0.62650  0.50000  0.87650  Biso   1.000  Fe
  Fe70     1.0000 0.62650  0.00000  0.37650  Biso   1.000  Fe
  Fe71     1.0000 0.12650  0.50000  0.37650  Biso   1.000  Fe
  Fe72     1.0000 0.12650  0.00000  0.87650  Biso   1.000  Fe
  Fe73     1.0000 0.62350  0.00000  0.87350  Biso   1.000  Fe
  Fe74     1.0000 0.62350  0.50000  0.37350  Biso   1.000  Fe
  Fe75     1.0000 0.12350  0.00000  0.37350  Biso   1.000  Fe
  Fe76     1.0000 0.12350  0.50000  0.87350  Biso   1.000  Fe
  Fe77     1.0000 0.12350  0.75000  0.37650  Biso   1.000  Fe
  Fe78     1.0000 0.12350  0.25000  0.87650  Biso   1.000  Fe
  Fe79     1.0000 0.62350  0.75000  0.87650  Biso   1.000  Fe
  Fe80     1.0000 0.62350  0.25000  0.37650  Biso   1.000  Fe
  Fe81     1.0000 0.37350  0.12650  0.25000  Biso   1.000  Fe
  Fe82     1.0000 0.37350  0.62650  0.75000  Biso   1.000  Fe
  Fe83     1.0000 0.87350  0.12650  0.75000  Biso   1.000  Fe
  Fe84     1.0000 0.87350  0.62650  0.25000  Biso   1.000  Fe
  Fe85     1.0000 0.87650  0.62650  0.50000  Biso   1.000  Fe
  Fe86     1.0000 0.87650  0.12650  0.00000  Biso   1.000  Fe
  Fe87     1.0000 0.37650  0.62650  0.00000  Biso   1.000  Fe
  Fe88     1.0000 0.37650  0.12650  0.50000  Biso   1.000  Fe
  Fe89     1.0000 0.87350  0.62350  0.00000  Biso   1.000  Fe
  Fe90     1.0000 0.87350  0.12350  0.50000  Biso   1.000  Fe
  Fe91     1.0000 0.37350  0.62350  0.50000  Biso   1.000  Fe
  Fe92     1.0000 0.37350  0.12350  0.00000  Biso   1.000  Fe
  Fe93     1.0000 0.37650  0.12350  0.75000  Biso   1.000  Fe
  Fe94     1.0000 0.37650  0.62350  0.25000  Biso   1.000  Fe
  Fe95     1.0000 0.87650  0.12350  0.25000  Biso   1.000  Fe
  Fe96     1.0000 0.87650  0.62350  0.75000  Biso   1.000  Fe
  Na1      1.0000 0.62500  0.62500  0.87500  Biso   1.000  Na
  Na2      1.0000 0.62500  0.12500  0.37500  Biso   1.000  Na
  Na3      1.0000 0.12500  0.12500  0.37500  Biso   1.000  Na
  Na4      1.0000 0.12500  0.62500  0.87500  Biso   1.000  Na
  Na5      1.0000 0.87500  0.62500  0.62500  Biso   1.000  Na
  Na6      1.0000 0.87500  0.12500  0.12500  Biso   1.000  Na
  Na7      1.0000 0.37500  0.62500  0.12500  Biso   1.000  Na
  Na8      1.0000 0.37500  0.12500  0.12500  Biso   1.000  Na
  Na9      1.0000 0.37500  0.62500  0.62500  Biso   1.000  Na
  Na10     1.0000 0.87500  0.12500  0.62500  Biso   1.000  Na
  Na11     1.0000 0.62500  0.87500  0.62500  Biso   1.000  Na
  Na12     1.0000 0.12500  0.37500  0.62500  Biso   1.000  Na
  Na13     1.0000 0.12500  0.87500  0.12500  Biso   1.000  Na
  Na14     1.0000 0.12500  0.37500  0.12500  Biso   1.000  Na
  Na15     1.0000 0.62500  0.87500  0.12500  Biso   1.000  Na
  Na16     1.0000 0.62500  0.37500  0.62500  Biso   1.000  Na
  Na17     1.0000 0.37500  0.87500  0.12500  Biso   1.000  Na
  Na18     1.0000 0.37500  0.37500  0.62500  Biso   1.000  Na
  Na19     1.0000 0.87500  0.87500  0.62500  Biso   1.000  Na
  Na20     1.0000 0.87500  0.37500  0.62500  Biso   1.000  Na
  Na21     1.0000 0.87500  0.87500  0.12500  Biso   1.000  Na
  Na22     1.0000 0.37500  0.37500  0.12500  Biso   1.000  Na
  Na23     1.0000 0.37500  0.12500  0.37500  Biso   1.000  Na
  Na24     1.0000 0.37500  0.62500  0.87500  Biso   1.000  Na
  Na25     1.0000 0.87500  0.62500  0.87500  Biso   1.000  Na
  Na26     1.0000 0.87500  0.12500  0.37500  Biso   1.000  Na
  Na27     1.0000 0.62500  0.87500  0.37500  Biso   1.000  Na
  Na28     1.0000 0.12500  0.37500  0.37500  Biso   1.000  Na
  Na29     1.0000 0.12500  0.87500  0.87500  Biso   1.000  Na
  Na30     1.0000 0.12500  0.37500  0.87500  Biso   1.000  Na
  Na31     1.0000 0.62500  0.87500  0.87500  Biso   1.000  Na
  Na32     1.0000 0.62500  0.37500  0.37500  Biso   1.000  Na
  Na33     1.0000 0.37500  0.87500  0.62500  Biso   1.000  Na
  Na34     1.0000 0.87500  0.37500  0.12500  Biso   1.000  Na
  Na35     1.0000 0.62500  0.37500  0.87500  Biso   1.000  Na
  Na36     1.0000 0.12500  0.87500  0.37500  Biso   1.000  Na
  Na37     1.0000 0.87500  0.62500  0.37500  Biso   1.000  Na
  Na38     1.0000 0.87500  0.12500  0.87500  Biso   1.000  Na
  Na39     1.0000 0.37500  0.12500  0.87500  Biso   1.000  Na
  Na40     1.0000 0.37500  0.62500  0.37500  Biso   1.000  Na
  Na41     1.0000 0.62500  0.12500  0.87500  Biso   1.000  Na
  Na42     1.0000 0.62500  0.62500  0.37500  Biso   1.000  Na
  Na43     1.0000 0.12500  0.62500  0.37500  Biso   1.000  Na
  Na44     1.0000 0.12500  0.12500  0.87500  Biso   1.000  Na
  Na45     1.0000 0.62500  0.37500  0.12500  Biso   1.000  Na
  Na46     1.0000 0.12500  0.87500  0.62500  Biso   1.000  Na
  Na47     1.0000 0.37500  0.12500  0.62500  Biso   1.000  Na
  Na48     1.0000 0.87500  0.62500  0.12500  Biso   1.000  Na
