data_image0
_cell_length_a       28.9057
_cell_length_b       28.9057
_cell_length_c       28.9057
_cell_angle_alpha    90
_cell_angle_beta     90
_cell_angle_gamma    90

_symmetry_space_group_name_H-M    "P 1"
_symmetry_int_tables_number       1

loop_
  _symmetry_equiv_pos_as_xyz
  'x, y, z'

loop_
  _atom_site_label
  _atom_site_occupancy
  _atom_site_fract_x
  _atom_site_fract_y
  _atom_site_fract_z
  _atom_site_thermal_displace_type
  _atom_site_B_iso_or_equiv
  _atom_site_type_symbol
  O1       1.0000 0.99560  0.30547  0.12600  Biso   1.000  O
  O2       1.0000 0.95195  0.24203  0.12496  Biso   1.000  O
  O3       1.0000 0.91825  0.30993  0.12598  Biso   1.000  O
  C1       1.0000 0.95547  0.28666  0.12559  Biso   1.000  C
  O4       1.0000 0.99560  0.80547  0.62600  Biso   1.000  O
  O5       1.0000 0.95195  0.74203  0.62496  Biso   1.000  O
  O6       1.0000 0.91825  0.80993  0.62598  Biso   1.000  O
  C2       1.0000 0.95547  0.78666  0.62559  Biso   1.000  C
  O7       1.0000 0.49560  0.30547  0.62600  Biso   1.000  O
  O8       1.0000 0.45195  0.24203  0.62496  Biso   1.000  O
  O9       1.0000 0.41825  0.30993  0.62598  Biso   1.000  O
  C3       1.0000 0.45547  0.28666  0.62559  Biso   1.000  C
  O10      1.0000 0.49560  0.80547  0.12600  Biso   1.000  O
  O11      1.0000 0.45195  0.74203  0.12496  Biso   1.000  O
  O12      1.0000 0.41825  0.80993  0.12598  Biso   1.000  O
  C4       1.0000 0.45547  0.78666  0.12559  Biso   1.000  C
  O13      1.0000 0.25440  0.44453  0.62600  Biso   1.000  O
  O14      1.0000 0.29805  0.50797  0.62496  Biso   1.000  O
  O15      1.0000 0.33175  0.44007  0.62598  Biso   1.000  O
  C5       1.0000 0.29453  0.46334  0.62559  Biso   1.000  C
  O16      1.0000 0.25440  0.94453  0.12600  Biso   1.000  O
  O17      1.0000 0.29805  0.00797  0.12496  Biso   1.000  O
  O18      1.0000 0.33175  0.94007  0.12598  Biso   1.000  O
  C6       1.0000 0.29453  0.96334  0.12559  Biso   1.000  C
  O19      1.0000 0.75440  0.44453  0.12600  Biso   1.000  O
  O20      1.0000 0.79805  0.50797  0.12496  Biso   1.000  O
  O21      1.0000 0.83175  0.44007  0.12598  Biso   1.000  O
  C7       1.0000 0.79453  0.46334  0.12559  Biso   1.000  C
  O22      1.0000 0.75440  0.94453  0.62600  Biso   1.000  O
  O23      1.0000 0.79805  0.00797  0.62496  Biso   1.000  O
  O24      1.0000 0.83175  0.94007  0.62598  Biso   1.000  O
  C8       1.0000 0.79453  0.96334  0.62559  Biso   1.000  C
  O25      1.0000 0.75440  0.80547  0.12400  Biso   1.000  O
  O26      1.0000 0.79805  0.74203  0.12504  Biso   1.000  O
  O27      1.0000 0.83175  0.80993  0.12402  Biso   1.000  O
  C9       1.0000 0.79453  0.78666  0.12441  Biso   1.000  C
  O28      1.0000 0.75440  0.30547  0.62400  Biso   1.000  O
  O29      1.0000 0.79805  0.24203  0.62504  Biso   1.000  O
  O30      1.0000 0.83175  0.30993  0.62402  Biso   1.000  O
  C10      1.0000 0.79453  0.28666  0.62441  Biso   1.000  C
  O31      1.0000 0.25440  0.80547  0.62400  Biso   1.000  O
  O32      1.0000 0.29805  0.74203  0.62504  Biso   1.000  O
  O33      1.0000 0.33175  0.80993  0.62402  Biso   1.000  O
  C11      1.0000 0.29453  0.78666  0.62441  Biso   1.000  C
  O34      1.0000 0.25440  0.30547  0.12400  Biso   1.000  O
  O35      1.0000 0.29805  0.24203  0.12504  Biso   1.000  O
  O36      1.0000 0.33175  0.30993  0.12402  Biso   1.000  O
  C12      1.0000 0.29453  0.28666  0.12441  Biso   1.000  C
  O37      1.0000 0.49560  0.94453  0.62400  Biso   1.000  O
  O38      1.0000 0.45195  0.00797  0.62504  Biso   1.000  O
  O39      1.0000 0.41825  0.94007  0.62402  Biso   1.000  O
  C13      1.0000 0.45547  0.96334  0.62441  Biso   1.000  C
  O40      1.0000 0.49560  0.44453  0.12400  Biso   1.000  O
  O41      1.0000 0.45195  0.50797  0.12504  Biso   1.000  O
  O42      1.0000 0.41825  0.44007  0.12402  Biso   1.000  O
  C14      1.0000 0.45547  0.46334  0.12441  Biso   1.000  C
  O43      1.0000 0.99560  0.94453  0.12400  Biso   1.000  O
  O44      1.0000 0.95195  0.00797  0.12504  Biso   1.000  O
  O45      1.0000 0.91825  0.94007  0.12402  Biso   1.000  O
  C15      1.0000 0.95547  0.96334  0.12441  Biso   1.000  C
  O46      1.0000 0.99560  0.44453  0.62400  Biso   1.000  O
  O47      1.0000 0.95195  0.50797  0.62504  Biso   1.000  O
  O48      1.0000 0.91825  0.44007  0.62402  Biso   1.000  O
  C16      1.0000 0.95547  0.46334  0.62441  Biso   1.000  C
  O49      1.0000 0.12600  0.99560  0.30547  Biso   1.000  O
  O50      1.0000 0.12496  0.95195  0.24203  Biso   1.000  O
  O51      1.0000 0.12598  0.91825  0.30993  Biso   1.000  O
  C17      1.0000 0.12559  0.95547  0.28666  Biso   1.000  C
  O52      1.0000 0.12600  0.49560  0.80547  Biso   1.000  O
  O53      1.0000 0.12496  0.45195  0.74203  Biso   1.000  O
  O54      1.0000 0.12598  0.41825  0.80993  Biso   1.000  O
  C18      1.0000 0.12559  0.45547  0.78666  Biso   1.000  C
  O55      1.0000 0.62600  0.99560  0.80547  Biso   1.000  O
  O56      1.0000 0.62496  0.95195  0.74203  Biso   1.000  O
  O57      1.0000 0.62598  0.91825  0.80993  Biso   1.000  O
  C19      1.0000 0.62559  0.95547  0.78666  Biso   1.000  C
  O58      1.0000 0.62600  0.49560  0.30547  Biso   1.000  O
  O59      1.0000 0.62496  0.45195  0.24203  Biso   1.000  O
  O60      1.0000 0.62598  0.41825  0.30993  Biso   1.000  O
  C20      1.0000 0.62559  0.45547  0.28666  Biso   1.000  C
  O61      1.0000 0.62600  0.25440  0.44453  Biso   1.000  O
  O62      1.0000 0.62496  0.29805  0.50797  Biso   1.000  O
  O63      1.0000 0.62598  0.33175  0.44007  Biso   1.000  O
  C21      1.0000 0.62559  0.29453  0.46334  Biso   1.000  C
  O64      1.0000 0.62600  0.75440  0.94453  Biso   1.000  O
  O65      1.0000 0.62496  0.79805  0.00797  Biso   1.000  O
  O66      1.0000 0.62598  0.83175  0.94007  Biso   1.000  O
  C22      1.0000 0.62559  0.79453  0.96334  Biso   1.000  C
  O67      1.0000 0.12600  0.25440  0.94453  Biso   1.000  O
  O68      1.0000 0.12496  0.29805  0.00797  Biso   1.000  O
  O69      1.0000 0.12598  0.33175  0.94007  Biso   1.000  O
  C23      1.0000 0.12559  0.29453  0.96334  Biso   1.000  C
  O70      1.0000 0.12600  0.75440  0.44453  Biso   1.000  O
  O71      1.0000 0.12496  0.79805  0.50797  Biso   1.000  O
  O72      1.0000 0.12598  0.83175  0.44007  Biso   1.000  O
  C24      1.0000 0.12559  0.79453  0.46334  Biso   1.000  C
  O73      1.0000 0.12400  0.75440  0.80547  Biso   1.000  O
  O74      1.0000 0.12504  0.79805  0.74203  Biso   1.000  O
  O75      1.0000 0.12402  0.83175  0.80993  Biso   1.000  O
  C25      1.0000 0.12441  0.79453  0.78666  Biso   1.000  C
  O76      1.0000 0.12400  0.25440  0.30547  Biso   1.000  O
  O77      1.0000 0.12504  0.29805  0.24203  Biso   1.000  O
  O78      1.0000 0.12402  0.33175  0.30993  Biso   1.000  O
  C26      1.0000 0.12441  0.29453  0.28666  Biso   1.000  C
  O79      1.0000 0.62400  0.75440  0.30547  Biso   1.000  O
  O80      1.0000 0.62504  0.79805  0.24203  Biso   1.000  O
  O81      1.0000 0.62402  0.83175  0.30993  Biso   1.000  O
  C27      1.0000 0.62441  0.79453  0.28666  Biso   1.000  C
  O82      1.0000 0.62400  0.25440  0.80547  Biso   1.000  O
  O83      1.0000 0.62504  0.29805  0.74203  Biso   1.000  O
  O84      1.0000 0.62402  0.33175  0.80993  Biso   1.000  O
  C28      1.0000 0.62441  0.29453  0.78666  Biso   1.000  C
  O85      1.0000 0.62400  0.49560  0.94453  Biso   1.000  O
  O86      1.0000 0.62504  0.45195  0.00797  Biso   1.000  O
  O87      1.0000 0.62402  0.41825  0.94007  Biso   1.000  O
  C29      1.0000 0.62441  0.45547  0.96334  Biso   1.000  C
  O88      1.0000 0.62400  0.99560  0.44453  Biso   1.000  O
  O89      1.0000 0.62504  0.95195  0.50797  Biso   1.000  O
  O90      1.0000 0.62402  0.91825  0.44007  Biso   1.000  O
  C30      1.0000 0.62441  0.95547  0.46334  Biso   1.000  C
  O91      1.0000 0.12400  0.49560  0.44453  Biso   1.000  O
  O92      1.0000 0.12504  0.45195  0.50797  Biso   1.000  O
  O93      1.0000 0.12402  0.41825  0.44007  Biso   1.000  O
  C31      1.0000 0.12441  0.45547  0.46334  Biso   1.000  C
  O94      1.0000 0.12400  0.99560  0.94453  Biso   1.000  O
  O95      1.0000 0.12504  0.95195  0.00797  Biso   1.000  O
  O96      1.0000 0.12402  0.91825  0.94007  Biso   1.000  O
  C32      1.0000 0.12441  0.95547  0.96334  Biso   1.000  C
  O97      1.0000 0.30547  0.12600  0.99560  Biso   1.000  O
  O98      1.0000 0.24203  0.12496  0.95195  Biso   1.000  O
  O99      1.0000 0.30993  0.12598  0.91825  Biso   1.000  O
  C33      1.0000 0.28666  0.12559  0.95547  Biso   1.000  C
  O100     1.0000 0.30547  0.62600  0.49560  Biso   1.000  O
  O101     1.0000 0.24203  0.62496  0.45195  Biso   1.000  O
  O102     1.0000 0.30993  0.62598  0.41825  Biso   1.000  O
  C34      1.0000 0.28666  0.62559  0.45547  Biso   1.000  C
  O103     1.0000 0.80547  0.12600  0.49560  Biso   1.000  O
  O104     1.0000 0.74203  0.12496  0.45195  Biso   1.000  O
  O105     1.0000 0.80993  0.12598  0.41825  Biso   1.000  O
  C35      1.0000 0.78666  0.12559  0.45547  Biso   1.000  C
  O106     1.0000 0.80547  0.62600  0.99560  Biso   1.000  O
  O107     1.0000 0.74203  0.62496  0.95195  Biso   1.000  O
  O108     1.0000 0.80993  0.62598  0.91825  Biso   1.000  O
  C36      1.0000 0.78666  0.62559  0.95547  Biso   1.000  C
  O109     1.0000 0.44453  0.62600  0.25440  Biso   1.000  O
  O110     1.0000 0.50797  0.62496  0.29805  Biso   1.000  O
  O111     1.0000 0.44007  0.62598  0.33175  Biso   1.000  O
  C37      1.0000 0.46334  0.62559  0.29453  Biso   1.000  C
  O112     1.0000 0.44453  0.12600  0.75440  Biso   1.000  O
  O113     1.0000 0.50797  0.12496  0.79805  Biso   1.000  O
  O114     1.0000 0.44007  0.12598  0.83175  Biso   1.000  O
  C38      1.0000 0.46334  0.12559  0.79453  Biso   1.000  C
  O115     1.0000 0.94453  0.62600  0.75440  Biso   1.000  O
  O116     1.0000 0.00797  0.62496  0.79805  Biso   1.000  O
  O117     1.0000 0.94007  0.62598  0.83175  Biso   1.000  O
  C39      1.0000 0.96334  0.62559  0.79453  Biso   1.000  C
  O118     1.0000 0.94453  0.12600  0.25440  Biso   1.000  O
  O119     1.0000 0.00797  0.12496  0.29805  Biso   1.000  O
  O120     1.0000 0.94007  0.12598  0.33175  Biso   1.000  O
  C40      1.0000 0.96334  0.12559  0.29453  Biso   1.000  C
  O121     1.0000 0.80547  0.12400  0.75440  Biso   1.000  O
  O122     1.0000 0.74203  0.12504  0.79805  Biso   1.000  O
  O123     1.0000 0.80993  0.12402  0.83175  Biso   1.000  O
  C41      1.0000 0.78666  0.12441  0.79453  Biso   1.000  C
  O124     1.0000 0.80547  0.62400  0.25440  Biso   1.000  O
  O125     1.0000 0.74203  0.62504  0.29805  Biso   1.000  O
  O126     1.0000 0.80993  0.62402  0.33175  Biso   1.000  O
  C42      1.0000 0.78666  0.62441  0.29453  Biso   1.000  C
  O127     1.0000 0.30547  0.12400  0.25440  Biso   1.000  O
  O128     1.0000 0.24203  0.12504  0.29805  Biso   1.000  O
  O129     1.0000 0.30993  0.12402  0.33175  Biso   1.000  O
  C43      1.0000 0.28666  0.12441  0.29453  Biso   1.000  C
  O130     1.0000 0.30547  0.62400  0.75440  Biso   1.000  O
  O131     1.0000 0.24203  0.62504  0.79805  Biso   1.000  O
  O132     1.0000 0.30993  0.62402  0.83175  Biso   1.000  O
  C44      1.0000 0.28666  0.62441  0.79453  Biso   1.000  C
  O133     1.0000 0.94453  0.62400  0.49560  Biso   1.000  O
  O134     1.0000 0.00797  0.62504  0.45195  Biso   1.000  O
  O135     1.0000 0.94007  0.62402  0.41825  Biso   1.000  O
  C45      1.0000 0.96334  0.62441  0.45547  Biso   1.000  C
  O136     1.0000 0.94453  0.12400  0.99560  Biso   1.000  O
  O137     1.0000 0.00797  0.12504  0.95195  Biso   1.000  O
  O138     1.0000 0.94007  0.12402  0.91825  Biso   1.000  O
  C46      1.0000 0.96334  0.12441  0.95547  Biso   1.000  C
  O139     1.0000 0.44453  0.62400  0.99560  Biso   1.000  O
  O140     1.0000 0.50797  0.62504  0.95195  Biso   1.000  O
  O141     1.0000 0.44007  0.62402  0.91825  Biso   1.000  O
  C47      1.0000 0.46334  0.62441  0.95547  Biso   1.000  C
  O142     1.0000 0.44453  0.12400  0.49560  Biso   1.000  O
  O143     1.0000 0.50797  0.12504  0.45195  Biso   1.000  O
  O144     1.0000 0.44007  0.12402  0.41825  Biso   1.000  O
  C48      1.0000 0.46334  0.12441  0.45547  Biso   1.000  C
  O145     1.0000 0.05547  0.24560  0.87400  Biso   1.000  O
  O146     1.0000 0.99203  0.20195  0.87504  Biso   1.000  O
  O147     1.0000 0.05993  0.16825  0.87402  Biso   1.000  O
  C49      1.0000 0.03666  0.20547  0.87441  Biso   1.000  C
  O148     1.0000 0.05547  0.74560  0.37400  Biso   1.000  O
  O149     1.0000 0.99203  0.70195  0.37504  Biso   1.000  O
  O150     1.0000 0.05993  0.66825  0.37402  Biso   1.000  O
  C50      1.0000 0.03666  0.70547  0.37441  Biso   1.000  C
  O151     1.0000 0.55547  0.24560  0.37400  Biso   1.000  O
  O152     1.0000 0.49203  0.20195  0.37504  Biso   1.000  O
  O153     1.0000 0.55993  0.16825  0.37402  Biso   1.000  O
  C51      1.0000 0.53666  0.20547  0.37441  Biso   1.000  C
  O154     1.0000 0.55547  0.74560  0.87400  Biso   1.000  O
  O155     1.0000 0.49203  0.70195  0.87504  Biso   1.000  O
  O156     1.0000 0.55993  0.66825  0.87402  Biso   1.000  O
  C52      1.0000 0.53666  0.70547  0.87441  Biso   1.000  C
  O157     1.0000 0.19453  0.50440  0.37400  Biso   1.000  O
  O158     1.0000 0.25797  0.54805  0.37504  Biso   1.000  O
  O159     1.0000 0.19007  0.58175  0.37402  Biso   1.000  O
  C53      1.0000 0.21334  0.54453  0.37441  Biso   1.000  C
  O160     1.0000 0.19453  0.00440  0.87400  Biso   1.000  O
  O161     1.0000 0.25797  0.04805  0.87504  Biso   1.000  O
  O162     1.0000 0.19007  0.08175  0.87402  Biso   1.000  O
  C54      1.0000 0.21334  0.04453  0.87441  Biso   1.000  C
  O163     1.0000 0.69453  0.50440  0.87400  Biso   1.000  O
  O164     1.0000 0.75797  0.54805  0.87504  Biso   1.000  O
  O165     1.0000 0.69007  0.58175  0.87402  Biso   1.000  O
  C55      1.0000 0.71334  0.54453  0.87441  Biso   1.000  C
  O166     1.0000 0.69453  0.00440  0.37400  Biso   1.000  O
  O167     1.0000 0.75797  0.04805  0.37504  Biso   1.000  O
  O168     1.0000 0.69007  0.08175  0.37402  Biso   1.000  O
  C56      1.0000 0.71334  0.04453  0.37441  Biso   1.000  C
  O169     1.0000 0.55547  0.00440  0.87600  Biso   1.000  O
  O170     1.0000 0.49203  0.04805  0.87496  Biso   1.000  O
  O171     1.0000 0.55993  0.08175  0.87598  Biso   1.000  O
  C57      1.0000 0.53666  0.04453  0.87559  Biso   1.000  C
  O172     1.0000 0.55547  0.50440  0.37600  Biso   1.000  O
  O173     1.0000 0.49203  0.54805  0.37496  Biso   1.000  O
  O174     1.0000 0.55993  0.58175  0.37598  Biso   1.000  O
  C58      1.0000 0.53666  0.54453  0.37559  Biso   1.000  C
  O175     1.0000 0.05547  0.00440  0.37600  Biso   1.000  O
  O176     1.0000 0.99203  0.04805  0.37496  Biso   1.000  O
  O177     1.0000 0.05993  0.08175  0.37598  Biso   1.000  O
  C59      1.0000 0.03666  0.04453  0.37559  Biso   1.000  C
  O178     1.0000 0.05547  0.50440  0.87600  Biso   1.000  O
  O179     1.0000 0.99203  0.54805  0.87496  Biso   1.000  O
  O180     1.0000 0.05993  0.58175  0.87598  Biso   1.000  O
  C60      1.0000 0.03666  0.54453  0.87559  Biso   1.000  C
  O181     1.0000 0.69453  0.74560  0.37600  Biso   1.000  O
  O182     1.0000 0.75797  0.70195  0.37496  Biso   1.000  O
  O183     1.0000 0.69007  0.66825  0.37598  Biso   1.000  O
  C61      1.0000 0.71334  0.70547  0.37559  Biso   1.000  C
  O184     1.0000 0.69453  0.24560  0.87600  Biso   1.000  O
  O185     1.0000 0.75797  0.20195  0.87496  Biso   1.000  O
  O186     1.0000 0.69007  0.16825  0.87598  Biso   1.000  O
  C62      1.0000 0.71334  0.20547  0.87559  Biso   1.000  C
  O187     1.0000 0.19453  0.74560  0.87600  Biso   1.000  O
  O188     1.0000 0.25797  0.70195  0.87496  Biso   1.000  O
  O189     1.0000 0.19007  0.66825  0.87598  Biso   1.000  O
  C63      1.0000 0.21334  0.70547  0.87559  Biso   1.000  C
  O190     1.0000 0.19453  0.24560  0.37600  Biso   1.000  O
  O191     1.0000 0.25797  0.20195  0.37496  Biso   1.000  O
  O192     1.0000 0.19007  0.16825  0.37598  Biso   1.000  O
  C64      1.0000 0.21334  0.20547  0.37559  Biso   1.000  C
  O193     1.0000 0.74560  0.37600  0.69453  Biso   1.000  O
  O194     1.0000 0.70195  0.37496  0.75797  Biso   1.000  O
  O195     1.0000 0.66825  0.37598  0.69007  Biso   1.000  O
  C65      1.0000 0.70547  0.37559  0.71334  Biso   1.000  C
  O196     1.0000 0.74560  0.87600  0.19453  Biso   1.000  O
  O197     1.0000 0.70195  0.87496  0.25797  Biso   1.000  O
  O198     1.0000 0.66825  0.87598  0.19007  Biso   1.000  O
  C66      1.0000 0.70547  0.87559  0.21334  Biso   1.000  C
  O199     1.0000 0.24560  0.37600  0.19453  Biso   1.000  O
  O200     1.0000 0.20195  0.37496  0.25797  Biso   1.000  O
  O201     1.0000 0.16825  0.37598  0.19007  Biso   1.000  O
  C67      1.0000 0.20547  0.37559  0.21334  Biso   1.000  C
  O202     1.0000 0.24560  0.87600  0.69453  Biso   1.000  O
  O203     1.0000 0.20195  0.87496  0.75797  Biso   1.000  O
  O204     1.0000 0.16825  0.87598  0.69007  Biso   1.000  O
  C68      1.0000 0.20547  0.87559  0.71334  Biso   1.000  C
  O205     1.0000 0.00440  0.87600  0.55547  Biso   1.000  O
  O206     1.0000 0.04805  0.87496  0.49203  Biso   1.000  O
  O207     1.0000 0.08175  0.87598  0.55993  Biso   1.000  O
  C69      1.0000 0.04453  0.87559  0.53666  Biso   1.000  C
  O208     1.0000 0.00440  0.37600  0.05547  Biso   1.000  O
  O209     1.0000 0.04805  0.37496  0.99203  Biso   1.000  O
  O210     1.0000 0.08175  0.37598  0.05993  Biso   1.000  O
  C70      1.0000 0.04453  0.37559  0.03666  Biso   1.000  C
  O211     1.0000 0.50440  0.87600  0.05547  Biso   1.000  O
  O212     1.0000 0.54805  0.87496  0.99203  Biso   1.000  O
  O213     1.0000 0.58175  0.87598  0.05993  Biso   1.000  O
  C71      1.0000 0.54453  0.87559  0.03666  Biso   1.000  C
  O214     1.0000 0.50440  0.37600  0.55547  Biso   1.000  O
  O215     1.0000 0.54805  0.37496  0.49203  Biso   1.000  O
  O216     1.0000 0.58175  0.37598  0.55993  Biso   1.000  O
  C72      1.0000 0.54453  0.37559  0.53666  Biso   1.000  C
  O217     1.0000 0.50440  0.37400  0.19453  Biso   1.000  O
  O218     1.0000 0.54805  0.37504  0.25797  Biso   1.000  O
  O219     1.0000 0.58175  0.37402  0.19007  Biso   1.000  O
  C73      1.0000 0.54453  0.37441  0.21334  Biso   1.000  C
  O220     1.0000 0.50440  0.87400  0.69453  Biso   1.000  O
  O221     1.0000 0.54805  0.87504  0.75797  Biso   1.000  O
  O222     1.0000 0.58175  0.87402  0.69007  Biso   1.000  O
  C74      1.0000 0.54453  0.87441  0.71334  Biso   1.000  C
  O223     1.0000 0.00440  0.37400  0.69453  Biso   1.000  O
  O224     1.0000 0.04805  0.37504  0.75797  Biso   1.000  O
  O225     1.0000 0.08175  0.37402  0.69007  Biso   1.000  O
  C75      1.0000 0.04453  0.37441  0.71334  Biso   1.000  C
  O226     1.0000 0.00440  0.87400  0.19453  Biso   1.000  O
  O227     1.0000 0.04805  0.87504  0.25797  Biso   1.000  O
  O228     1.0000 0.08175  0.87402  0.19007  Biso   1.000  O
  C76      1.0000 0.04453  0.87441  0.21334  Biso   1.000  C
  O229     1.0000 0.24560  0.87400  0.05547  Biso   1.000  O
  O230     1.0000 0.20195  0.87504  0.99203  Biso   1.000  O
  O231     1.0000 0.16825  0.87402  0.05993  Biso   1.000  O
  C77      1.0000 0.20547  0.87441  0.03666  Biso   1.000  C
  O232     1.0000 0.24560  0.37400  0.55547  Biso   1.000  O
  O233     1.0000 0.20195  0.37504  0.49203  Biso   1.000  O
  O234     1.0000 0.16825  0.37402  0.55993  Biso   1.000  O
  C78      1.0000 0.20547  0.37441  0.53666  Biso   1.000  C
  O235     1.0000 0.74560  0.87400  0.55547  Biso   1.000  O
  O236     1.0000 0.70195  0.87504  0.49203  Biso   1.000  O
  O237     1.0000 0.66825  0.87402  0.55993  Biso   1.000  O
  C79      1.0000 0.70547  0.87441  0.53666  Biso   1.000  C
  O238     1.0000 0.74560  0.37400  0.05547  Biso   1.000  O
  O239     1.0000 0.70195  0.37504  0.99203  Biso   1.000  O
  O240     1.0000 0.66825  0.37402  0.05993  Biso   1.000  O
  C80      1.0000 0.70547  0.37441  0.03666  Biso   1.000  C
  O241     1.0000 0.87600  0.55547  0.00440  Biso   1.000  O
  O242     1.0000 0.87496  0.49203  0.04805  Biso   1.000  O
  O243     1.0000 0.87598  0.55993  0.08175  Biso   1.000  O
  C81      1.0000 0.87559  0.53666  0.04453  Biso   1.000  C
  O244     1.0000 0.87600  0.05547  0.50440  Biso   1.000  O
  O245     1.0000 0.87496  0.99203  0.54805  Biso   1.000  O
  O246     1.0000 0.87598  0.05993  0.58175  Biso   1.000  O
  C82      1.0000 0.87559  0.03666  0.54453  Biso   1.000  C
  O247     1.0000 0.37600  0.55547  0.50440  Biso   1.000  O
  O248     1.0000 0.37496  0.49203  0.54805  Biso   1.000  O
  O249     1.0000 0.37598  0.55993  0.58175  Biso   1.000  O
  C83      1.0000 0.37559  0.53666  0.54453  Biso   1.000  C
  O250     1.0000 0.37600  0.05547  0.00440  Biso   1.000  O
  O251     1.0000 0.37496  0.99203  0.04805  Biso   1.000  O
  O252     1.0000 0.37598  0.05993  0.08175  Biso   1.000  O
  C84      1.0000 0.37559  0.03666  0.04453  Biso   1.000  C
  O253     1.0000 0.37600  0.69453  0.74560  Biso   1.000  O
  O254     1.0000 0.37496  0.75797  0.70195  Biso   1.000  O
  O255     1.0000 0.37598  0.69007  0.66825  Biso   1.000  O
  C85      1.0000 0.37559  0.71334  0.70547  Biso   1.000  C
  O256     1.0000 0.37600  0.19453  0.24560  Biso   1.000  O
  O257     1.0000 0.37496  0.25797  0.20195  Biso   1.000  O
  O258     1.0000 0.37598  0.19007  0.16825  Biso   1.000  O
  C86      1.0000 0.37559  0.21334  0.20547  Biso   1.000  C
  O259     1.0000 0.87600  0.69453  0.24560  Biso   1.000  O
  O260     1.0000 0.87496  0.75797  0.20195  Biso   1.000  O
  O261     1.0000 0.87598  0.69007  0.16825  Biso   1.000  O
  C87      1.0000 0.87559  0.71334  0.20547  Biso   1.000  C
  O262     1.0000 0.87600  0.19453  0.74560  Biso   1.000  O
  O263     1.0000 0.87496  0.25797  0.70195  Biso   1.000  O
  O264     1.0000 0.87598  0.19007  0.66825  Biso   1.000  O
  C88      1.0000 0.87559  0.21334  0.70547  Biso   1.000  C
  O265     1.0000 0.87400  0.05547  0.24560  Biso   1.000  O
  O266     1.0000 0.87504  0.99203  0.20195  Biso   1.000  O
  O267     1.0000 0.87402  0.05993  0.16825  Biso   1.000  O
  C89      1.0000 0.87441  0.03666  0.20547  Biso   1.000  C
  O268     1.0000 0.87400  0.55547  0.74560  Biso   1.000  O
  O269     1.0000 0.87504  0.49203  0.70195  Biso   1.000  O
  O270     1.0000 0.87402  0.55993  0.66825  Biso   1.000  O
  C90      1.0000 0.87441  0.53666  0.70547  Biso   1.000  C
  O271     1.0000 0.37400  0.05547  0.74560  Biso   1.000  O
  O272     1.0000 0.37504  0.99203  0.70195  Biso   1.000  O
  O273     1.0000 0.37402  0.05993  0.66825  Biso   1.000  O
  C91      1.0000 0.37441  0.03666  0.70547  Biso   1.000  C
  O274     1.0000 0.37400  0.55547  0.24560  Biso   1.000  O
  O275     1.0000 0.37504  0.49203  0.20195  Biso   1.000  O
  O276     1.0000 0.37402  0.55993  0.16825  Biso   1.000  O
  C92      1.0000 0.37441  0.53666  0.20547  Biso   1.000  C
  O277     1.0000 0.37400  0.19453  0.50440  Biso   1.000  O
  O278     1.0000 0.37504  0.25797  0.54805  Biso   1.000  O
  O279     1.0000 0.37402  0.19007  0.58175  Biso   1.000  O
  C93      1.0000 0.37441  0.21334  0.54453  Biso   1.000  C
  O280     1.0000 0.37400  0.69453  0.00440  Biso   1.000  O
  O281     1.0000 0.37504  0.75797  0.04805  Biso   1.000  O
  O282     1.0000 0.37402  0.69007  0.08175  Biso   1.000  O
  C94      1.0000 0.37441  0.71334  0.04453  Biso   1.000  C
  O283     1.0000 0.87400  0.19453  0.00440  Biso   1.000  O
  O284     1.0000 0.87504  0.25797  0.04805  Biso   1.000  O
  O285     1.0000 0.87402  0.19007  0.08175  Biso   1.000  O
  C95      1.0000 0.87441  0.21334  0.04453  Biso   1.000  C
  O286     1.0000 0.87400  0.69453  0.50440  Biso   1.000  O
  O287     1.0000 0.87504  0.75797  0.54805  Biso   1.000  O
  O288     1.0000 0.87402  0.69007  0.58175  Biso   1.000  O
  C96      1.0000 0.87441  0.71334  0.54453  Biso   1.000  C
  O289     1.0000 0.00440  0.69453  0.87400  Biso   1.000  O
  O290     1.0000 0.04805  0.75797  0.87504  Biso   1.000  O
  O291     1.0000 0.08175  0.69007  0.87402  Biso   1.000  O
  C97      1.0000 0.04453  0.71334  0.87441  Biso   1.000  C
  O292     1.0000 0.00440  0.19453  0.37400  Biso   1.000  O
  O293     1.0000 0.04805  0.25797  0.37504  Biso   1.000  O
  O294     1.0000 0.08175  0.19007  0.37402  Biso   1.000  O
  C98      1.0000 0.04453  0.21334  0.37441  Biso   1.000  C
  O295     1.0000 0.50440  0.69453  0.37400  Biso   1.000  O
  O296     1.0000 0.54805  0.75797  0.37504  Biso   1.000  O
  O297     1.0000 0.58175  0.69007  0.37402  Biso   1.000  O
  C99      1.0000 0.54453  0.71334  0.37441  Biso   1.000  C
  O298     1.0000 0.50440  0.19453  0.87400  Biso   1.000  O
  O299     1.0000 0.54805  0.25797  0.87504  Biso   1.000  O
  O300     1.0000 0.58175  0.19007  0.87402  Biso   1.000  O
  C100     1.0000 0.54453  0.21334  0.87441  Biso   1.000  C
  O301     1.0000 0.74560  0.55547  0.37400  Biso   1.000  O
  O302     1.0000 0.70195  0.49203  0.37504  Biso   1.000  O
  O303     1.0000 0.66825  0.55993  0.37402  Biso   1.000  O
  C101     1.0000 0.70547  0.53666  0.37441  Biso   1.000  C
  O304     1.0000 0.74560  0.05547  0.87400  Biso   1.000  O
  O305     1.0000 0.70195  0.99203  0.87504  Biso   1.000  O
  O306     1.0000 0.66825  0.05993  0.87402  Biso   1.000  O
  C102     1.0000 0.70547  0.03666  0.87441  Biso   1.000  C
  O307     1.0000 0.24560  0.55547  0.87400  Biso   1.000  O
  O308     1.0000 0.20195  0.49203  0.87504  Biso   1.000  O
  O309     1.0000 0.16825  0.55993  0.87402  Biso   1.000  O
  C103     1.0000 0.20547  0.53666  0.87441  Biso   1.000  C
  O310     1.0000 0.24560  0.05547  0.37400  Biso   1.000  O
  O311     1.0000 0.20195  0.99203  0.37504  Biso   1.000  O
  O312     1.0000 0.16825  0.05993  0.37402  Biso   1.000  O
  C104     1.0000 0.20547  0.03666  0.37441  Biso   1.000  C
  O313     1.0000 0.24560  0.19453  0.87600  Biso   1.000  O
  O314     1.0000 0.20195  0.25797  0.87496  Biso   1.000  O
  O315     1.0000 0.16825  0.19007  0.87598  Biso   1.000  O
  C105     1.0000 0.20547  0.21334  0.87559  Biso   1.000  C
  O316     1.0000 0.24560  0.69453  0.37600  Biso   1.000  O
  O317     1.0000 0.20195  0.75797  0.37496  Biso   1.000  O
  O318     1.0000 0.16825  0.69007  0.37598  Biso   1.000  O
  C106     1.0000 0.20547  0.71334  0.37559  Biso   1.000  C
  O319     1.0000 0.74560  0.19453  0.37600  Biso   1.000  O
  O320     1.0000 0.70195  0.25797  0.37496  Biso   1.000  O
  O321     1.0000 0.66825  0.19007  0.37598  Biso   1.000  O
  C107     1.0000 0.70547  0.21334  0.37559  Biso   1.000  C
  O322     1.0000 0.74560  0.69453  0.87600  Biso   1.000  O
  O323     1.0000 0.70195  0.75797  0.87496  Biso   1.000  O
  O324     1.0000 0.66825  0.69007  0.87598  Biso   1.000  O
  C108     1.0000 0.70547  0.71334  0.87559  Biso   1.000  C
  O325     1.0000 0.50440  0.05547  0.37600  Biso   1.000  O
  O326     1.0000 0.54805  0.99203  0.37496  Biso   1.000  O
  O327     1.0000 0.58175  0.05993  0.37598  Biso   1.000  O
  C109     1.0000 0.54453  0.03666  0.37559  Biso   1.000  C
  O328     1.0000 0.50440  0.55547  0.87600  Biso   1.000  O
  O329     1.0000 0.54805  0.49203  0.87496  Biso   1.000  O
  O330     1.0000 0.58175  0.55993  0.87598  Biso   1.000  O
  C110     1.0000 0.54453  0.53666  0.87559  Biso   1.000  C
  O331     1.0000 0.00440  0.05547  0.87600  Biso   1.000  O
  O332     1.0000 0.04805  0.99203  0.87496  Biso   1.000  O
  O333     1.0000 0.08175  0.05993  0.87598  Biso   1.000  O
  C111     1.0000 0.04453  0.03666  0.87559  Biso   1.000  C
  O334     1.0000 0.00440  0.55547  0.37600  Biso   1.000  O
  O335     1.0000 0.04805  0.49203  0.37496  Biso   1.000  O
  O336     1.0000 0.08175  0.55993  0.37598  Biso   1.000  O
  C112     1.0000 0.04453  0.53666  0.37559  Biso   1.000  C
  O337     1.0000 0.87400  0.00440  0.69453  Biso   1.000  O
  O338     1.0000 0.87504  0.04805  0.75797  Biso   1.000  O
  O339     1.0000 0.87402  0.08175  0.69007  Biso   1.000  O
  C113     1.0000 0.87441  0.04453  0.71334  Biso   1.000  C
  O340     1.0000 0.87400  0.50440  0.19453  Biso   1.000  O
  O341     1.0000 0.87504  0.54805  0.25797  Biso   1.000  O
  O342     1.0000 0.87402  0.58175  0.19007  Biso   1.000  O
  C114     1.0000 0.87441  0.54453  0.21334  Biso   1.000  C
  O343     1.0000 0.37400  0.00440  0.19453  Biso   1.000  O
  O344     1.0000 0.37504  0.04805  0.25797  Biso   1.000  O
  O345     1.0000 0.37402  0.08175  0.19007  Biso   1.000  O
  C115     1.0000 0.37441  0.04453  0.21334  Biso   1.000  C
  O346     1.0000 0.37400  0.50440  0.69453  Biso   1.000  O
  O347     1.0000 0.37504  0.54805  0.75797  Biso   1.000  O
  O348     1.0000 0.37402  0.58175  0.69007  Biso   1.000  O
  C116     1.0000 0.37441  0.54453  0.71334  Biso   1.000  C
  O349     1.0000 0.37400  0.74560  0.55547  Biso   1.000  O
  O350     1.0000 0.37504  0.70195  0.49203  Biso   1.000  O
  O351     1.0000 0.37402  0.66825  0.55993  Biso   1.000  O
  C117     1.0000 0.37441  0.70547  0.53666  Biso   1.000  C
  O352     1.0000 0.37400  0.24560  0.05547  Biso   1.000  O
  O353     1.0000 0.37504  0.20195  0.99203  Biso   1.000  O
  O354     1.0000 0.37402  0.16825  0.05993  Biso   1.000  O
  C118     1.0000 0.37441  0.20547  0.03666  Biso   1.000  C
  O355     1.0000 0.87400  0.74560  0.05547  Biso   1.000  O
  O356     1.0000 0.87504  0.70195  0.99203  Biso   1.000  O
  O357     1.0000 0.87402  0.66825  0.05993  Biso   1.000  O
  C119     1.0000 0.87441  0.70547  0.03666  Biso   1.000  C
  O358     1.0000 0.87400  0.24560  0.55547  Biso   1.000  O
  O359     1.0000 0.87504  0.20195  0.49203  Biso   1.000  O
  O360     1.0000 0.87402  0.16825  0.55993  Biso   1.000  O
  C120     1.0000 0.87441  0.20547  0.53666  Biso   1.000  C
  O361     1.0000 0.87600  0.24560  0.19453  Biso   1.000  O
  O362     1.0000 0.87496  0.20195  0.25797  Biso   1.000  O
  O363     1.0000 0.87598  0.16825  0.19007  Biso   1.000  O
  C121     1.0000 0.87559  0.20547  0.21334  Biso   1.000  C
  O364     1.0000 0.87600  0.74560  0.69453  Biso   1.000  O
  O365     1.0000 0.87496  0.70195  0.75797  Biso   1.000  O
  O366     1.0000 0.87598  0.66825  0.69007  Biso   1.000  O
  C122     1.0000 0.87559  0.70547  0.71334  Biso   1.000  C
  O367     1.0000 0.37600  0.24560  0.69453  Biso   1.000  O
  O368     1.0000 0.37496  0.20195  0.75797  Biso   1.000  O
  O369     1.0000 0.37598  0.16825  0.69007  Biso   1.000  O
  C123     1.0000 0.37559  0.20547  0.71334  Biso   1.000  C
  O370     1.0000 0.37600  0.74560  0.19453  Biso   1.000  O
  O371     1.0000 0.37496  0.70195  0.25797  Biso   1.000  O
  O372     1.0000 0.37598  0.66825  0.19007  Biso   1.000  O
  C124     1.0000 0.37559  0.70547  0.21334  Biso   1.000  C
  O373     1.0000 0.37600  0.50440  0.05547  Biso   1.000  O
  O374     1.0000 0.37496  0.54805  0.99203  Biso   1.000  O
  O375     1.0000 0.37598  0.58175  0.05993  Biso   1.000  O
  C125     1.0000 0.37559  0.54453  0.03666  Biso   1.000  C
  O376     1.0000 0.37600  0.00440  0.55547  Biso   1.000  O
  O377     1.0000 0.37496  0.04805  0.49203  Biso   1.000  O
  O378     1.0000 0.37598  0.08175  0.55993  Biso   1.000  O
  C126     1.0000 0.37559  0.04453  0.53666  Biso   1.000  C
  O379     1.0000 0.87600  0.50440  0.55547  Biso   1.000  O
  O380     1.0000 0.87496  0.54805  0.49203  Biso   1.000  O
  O381     1.0000 0.87598  0.58175  0.55993  Biso   1.000  O
  C127     1.0000 0.87559  0.54453  0.53666  Biso   1.000  C
  O382     1.0000 0.87600  0.00440  0.05547  Biso   1.000  O
  O383     1.0000 0.87496  0.04805  0.99203  Biso   1.000  O
  O384     1.0000 0.87598  0.08175  0.05993  Biso   1.000  O
  C128     1.0000 0.87559  0.04453  0.03666  Biso   1.000  C
  O385     1.0000 0.69453  0.87400  0.00440  Biso   1.000  O
  O386     1.0000 0.75797  0.87504  0.04805  Biso   1.000  O
  O387     1.0000 0.69007  0.87402  0.08175  Biso   1.000  O
  C129     1.0000 0.71334  0.87441  0.04453  Biso   1.000  C
  O388     1.0000 0.69453  0.37400  0.50440  Biso   1.000  O
  O389     1.0000 0.75797  0.37504  0.54805  Biso   1.000  O
  O390     1.0000 0.69007  0.37402  0.58175  Biso   1.000  O
  C130     1.0000 0.71334  0.37441  0.54453  Biso   1.000  C
  O391     1.0000 0.19453  0.87400  0.50440  Biso   1.000  O
  O392     1.0000 0.25797  0.87504  0.54805  Biso   1.000  O
  O393     1.0000 0.19007  0.87402  0.58175  Biso   1.000  O
  C131     1.0000 0.21334  0.87441  0.54453  Biso   1.000  C
  O394     1.0000 0.19453  0.37400  0.00440  Biso   1.000  O
  O395     1.0000 0.25797  0.37504  0.04805  Biso   1.000  O
  O396     1.0000 0.19007  0.37402  0.08175  Biso   1.000  O
  C132     1.0000 0.21334  0.37441  0.04453  Biso   1.000  C
  O397     1.0000 0.55547  0.37400  0.74560  Biso   1.000  O
  O398     1.0000 0.49203  0.37504  0.70195  Biso   1.000  O
  O399     1.0000 0.55993  0.37402  0.66825  Biso   1.000  O
  C133     1.0000 0.53666  0.37441  0.70547  Biso   1.000  C
  O400     1.0000 0.55547  0.87400  0.24560  Biso   1.000  O
  O401     1.0000 0.49203  0.87504  0.20195  Biso   1.000  O
  O402     1.0000 0.55993  0.87402  0.16825  Biso   1.000  O
  C134     1.0000 0.53666  0.87441  0.20547  Biso   1.000  C
  O403     1.0000 0.05547  0.37400  0.24560  Biso   1.000  O
  O404     1.0000 0.99203  0.37504  0.20195  Biso   1.000  O
  O405     1.0000 0.05993  0.37402  0.16825  Biso   1.000  O
  C135     1.0000 0.03666  0.37441  0.20547  Biso   1.000  C
  O406     1.0000 0.05547  0.87400  0.74560  Biso   1.000  O
  O407     1.0000 0.99203  0.87504  0.70195  Biso   1.000  O
  O408     1.0000 0.05993  0.87402  0.66825  Biso   1.000  O
  C136     1.0000 0.03666  0.87441  0.70547  Biso   1.000  C
  O409     1.0000 0.19453  0.87600  0.24560  Biso   1.000  O
  O410     1.0000 0.25797  0.87496  0.20195  Biso   1.000  O
  O411     1.0000 0.19007  0.87598  0.16825  Biso   1.000  O
  C137     1.0000 0.21334  0.87559  0.20547  Biso   1.000  C
  O412     1.0000 0.19453  0.37600  0.74560  Biso   1.000  O
  O413     1.0000 0.25797  0.37496  0.70195  Biso   1.000  O
  O414     1.0000 0.19007  0.37598  0.66825  Biso   1.000  O
  C138     1.0000 0.21334  0.37559  0.70547  Biso   1.000  C
  O415     1.0000 0.69453  0.87600  0.74560  Biso   1.000  O
  O416     1.0000 0.75797  0.87496  0.70195  Biso   1.000  O
  O417     1.0000 0.69007  0.87598  0.66825  Biso   1.000  O
  C139     1.0000 0.71334  0.87559  0.70547  Biso   1.000  C
  O418     1.0000 0.69453  0.37600  0.24560  Biso   1.000  O
  O419     1.0000 0.75797  0.37496  0.20195  Biso   1.000  O
  O420     1.0000 0.69007  0.37598  0.16825  Biso   1.000  O
  C140     1.0000 0.71334  0.37559  0.20547  Biso   1.000  C
  O421     1.0000 0.05547  0.37600  0.50440  Biso   1.000  O
  O422     1.0000 0.99203  0.37496  0.54805  Biso   1.000  O
  O423     1.0000 0.05993  0.37598  0.58175  Biso   1.000  O
  C141     1.0000 0.03666  0.37559  0.54453  Biso   1.000  C
  O424     1.0000 0.05547  0.87600  0.00440  Biso   1.000  O
  O425     1.0000 0.99203  0.87496  0.04805  Biso   1.000  O
  O426     1.0000 0.05993  0.87598  0.08175  Biso   1.000  O
  C142     1.0000 0.03666  0.87559  0.04453  Biso   1.000  C
  O427     1.0000 0.55547  0.37600  0.00440  Biso   1.000  O
  O428     1.0000 0.49203  0.37496  0.04805  Biso   1.000  O
  O429     1.0000 0.55993  0.37598  0.08175  Biso   1.000  O
  C143     1.0000 0.53666  0.37559  0.04453  Biso   1.000  C
  O430     1.0000 0.55547  0.87600  0.50440  Biso   1.000  O
  O431     1.0000 0.49203  0.87496  0.54805  Biso   1.000  O
  O432     1.0000 0.55993  0.87598  0.58175  Biso   1.000  O
  C144     1.0000 0.53666  0.87559  0.54453  Biso   1.000  C
  O433     1.0000 0.94453  0.75440  0.12600  Biso   1.000  O
  O434     1.0000 0.00797  0.79805  0.12496  Biso   1.000  O
  O435     1.0000 0.94007  0.83175  0.12598  Biso   1.000  O
  C145     1.0000 0.96334  0.79453  0.12559  Biso   1.000  C
  O436     1.0000 0.94453  0.25440  0.62600  Biso   1.000  O
  O437     1.0000 0.00797  0.29805  0.62496  Biso   1.000  O
  O438     1.0000 0.94007  0.33175  0.62598  Biso   1.000  O
  C146     1.0000 0.96334  0.29453  0.62559  Biso   1.000  C
  O439     1.0000 0.44453  0.75440  0.62600  Biso   1.000  O
  O440     1.0000 0.50797  0.79805  0.62496  Biso   1.000  O
  O441     1.0000 0.44007  0.83175  0.62598  Biso   1.000  O
  C147     1.0000 0.46334  0.79453  0.62559  Biso   1.000  C
  O442     1.0000 0.44453  0.25440  0.12600  Biso   1.000  O
  O443     1.0000 0.50797  0.29805  0.12496  Biso   1.000  O
  O444     1.0000 0.44007  0.33175  0.12598  Biso   1.000  O
  C148     1.0000 0.46334  0.29453  0.12559  Biso   1.000  C
  O445     1.0000 0.80547  0.49560  0.62600  Biso   1.000  O
  O446     1.0000 0.74203  0.45195  0.62496  Biso   1.000  O
  O447     1.0000 0.80993  0.41825  0.62598  Biso   1.000  O
  C149     1.0000 0.78666  0.45547  0.62559  Biso   1.000  C
  O448     1.0000 0.80547  0.99560  0.12600  Biso   1.000  O
  O449     1.0000 0.74203  0.95195  0.12496  Biso   1.000  O
  O450     1.0000 0.80993  0.91825  0.12598  Biso   1.000  O
  C150     1.0000 0.78666  0.95547  0.12559  Biso   1.000  C
  O451     1.0000 0.30547  0.49560  0.12600  Biso   1.000  O
  O452     1.0000 0.24203  0.45195  0.12496  Biso   1.000  O
  O453     1.0000 0.30993  0.41825  0.12598  Biso   1.000  O
  C151     1.0000 0.28666  0.45547  0.12559  Biso   1.000  C
  O454     1.0000 0.30547  0.99560  0.62600  Biso   1.000  O
  O455     1.0000 0.24203  0.95195  0.62496  Biso   1.000  O
  O456     1.0000 0.30993  0.91825  0.62598  Biso   1.000  O
  C152     1.0000 0.28666  0.95547  0.62559  Biso   1.000  C
  O457     1.0000 0.44453  0.99560  0.12400  Biso   1.000  O
  O458     1.0000 0.50797  0.95195  0.12504  Biso   1.000  O
  O459     1.0000 0.44007  0.91825  0.12402  Biso   1.000  O
  C153     1.0000 0.46334  0.95547  0.12441  Biso   1.000  C
  O460     1.0000 0.44453  0.49560  0.62400  Biso   1.000  O
  O461     1.0000 0.50797  0.45195  0.62504  Biso   1.000  O
  O462     1.0000 0.44007  0.41825  0.62402  Biso   1.000  O
  C154     1.0000 0.46334  0.45547  0.62441  Biso   1.000  C
  O463     1.0000 0.94453  0.99560  0.62400  Biso   1.000  O
  O464     1.0000 0.00797  0.95195  0.62504  Biso   1.000  O
  O465     1.0000 0.94007  0.91825  0.62402  Biso   1.000  O
  C155     1.0000 0.96334  0.95547  0.62441  Biso   1.000  C
  O466     1.0000 0.94453  0.49560  0.12400  Biso   1.000  O
  O467     1.0000 0.00797  0.45195  0.12504  Biso   1.000  O
  O468     1.0000 0.94007  0.41825  0.12402  Biso   1.000  O
  C156     1.0000 0.96334  0.45547  0.12441  Biso   1.000  C
  O469     1.0000 0.30547  0.25440  0.62400  Biso   1.000  O
  O470     1.0000 0.24203  0.29805  0.62504  Biso   1.000  O
  O471     1.0000 0.30993  0.33175  0.62402  Biso   1.000  O
  C157     1.0000 0.28666  0.29453  0.62441  Biso   1.000  C
  O472     1.0000 0.30547  0.75440  0.12400  Biso   1.000  O
  O473     1.0000 0.24203  0.79805  0.12504  Biso   1.000  O
  O474     1.0000 0.30993  0.83175  0.12402  Biso   1.000  O
  C158     1.0000 0.28666  0.79453  0.12441  Biso   1.000  C
  O475     1.0000 0.80547  0.25440  0.12400  Biso   1.000  O
  O476     1.0000 0.74203  0.29805  0.12504  Biso   1.000  O
  O477     1.0000 0.80993  0.33175  0.12402  Biso   1.000  O
  C159     1.0000 0.78666  0.29453  0.12441  Biso   1.000  C
  O478     1.0000 0.80547  0.75440  0.62400  Biso   1.000  O
  O479     1.0000 0.74203  0.79805  0.62504  Biso   1.000  O
  O480     1.0000 0.80993  0.83175  0.62402  Biso   1.000  O
  C160     1.0000 0.78666  0.79453  0.62441  Biso   1.000  C
  O481     1.0000 0.25440  0.62400  0.30547  Biso   1.000  O
  O482     1.0000 0.29805  0.62504  0.24203  Biso   1.000  O
  O483     1.0000 0.33175  0.62402  0.30993  Biso   1.000  O
  C161     1.0000 0.29453  0.62441  0.28666  Biso   1.000  C
  O484     1.0000 0.25440  0.12400  0.80547  Biso   1.000  O
  O485     1.0000 0.29805  0.12504  0.74203  Biso   1.000  O
  O486     1.0000 0.33175  0.12402  0.80993  Biso   1.000  O
  C162     1.0000 0.29453  0.12441  0.78666  Biso   1.000  C
  O487     1.0000 0.75440  0.62400  0.80547  Biso   1.000  O
  O488     1.0000 0.79805  0.62504  0.74203  Biso   1.000  O
  O489     1.0000 0.83175  0.62402  0.80993  Biso   1.000  O
  C163     1.0000 0.79453  0.62441  0.78666  Biso   1.000  C
  O490     1.0000 0.75440  0.12400  0.30547  Biso   1.000  O
  O491     1.0000 0.79805  0.12504  0.24203  Biso   1.000  O
  O492     1.0000 0.83175  0.12402  0.30993  Biso   1.000  O
  C164     1.0000 0.79453  0.12441  0.28666  Biso   1.000  C
  O493     1.0000 0.99560  0.12400  0.44453  Biso   1.000  O
  O494     1.0000 0.95195  0.12504  0.50797  Biso   1.000  O
  O495     1.0000 0.91825  0.12402  0.44007  Biso   1.000  O
  C165     1.0000 0.95547  0.12441  0.46334  Biso   1.000  C
  O496     1.0000 0.99560  0.62400  0.94453  Biso   1.000  O
  O497     1.0000 0.95195  0.62504  0.00797  Biso   1.000  O
  O498     1.0000 0.91825  0.62402  0.94007  Biso   1.000  O
  C166     1.0000 0.95547  0.62441  0.96334  Biso   1.000  C
  O499     1.0000 0.49560  0.12400  0.94453  Biso   1.000  O
  O500     1.0000 0.45195  0.12504  0.00797  Biso   1.000  O
  O501     1.0000 0.41825  0.12402  0.94007  Biso   1.000  O
  C167     1.0000 0.45547  0.12441  0.96334  Biso   1.000  C
  O502     1.0000 0.49560  0.62400  0.44453  Biso   1.000  O
  O503     1.0000 0.45195  0.62504  0.50797  Biso   1.000  O
  O504     1.0000 0.41825  0.62402  0.44007  Biso   1.000  O
  C168     1.0000 0.45547  0.62441  0.46334  Biso   1.000  C
  O505     1.0000 0.49560  0.62600  0.80547  Biso   1.000  O
  O506     1.0000 0.45195  0.62496  0.74203  Biso   1.000  O
  O507     1.0000 0.41825  0.62598  0.80993  Biso   1.000  O
  C169     1.0000 0.45547  0.62559  0.78666  Biso   1.000  C
  O508     1.0000 0.49560  0.12600  0.30547  Biso   1.000  O
  O509     1.0000 0.45195  0.12496  0.24203  Biso   1.000  O
  O510     1.0000 0.41825  0.12598  0.30993  Biso   1.000  O
  C170     1.0000 0.45547  0.12559  0.28666  Biso   1.000  C
  O511     1.0000 0.99560  0.62600  0.30547  Biso   1.000  O
  O512     1.0000 0.95195  0.62496  0.24203  Biso   1.000  O
  O513     1.0000 0.91825  0.62598  0.30993  Biso   1.000  O
  C171     1.0000 0.95547  0.62559  0.28666  Biso   1.000  C
  O514     1.0000 0.99560  0.12600  0.80547  Biso   1.000  O
  O515     1.0000 0.95195  0.12496  0.74203  Biso   1.000  O
  O516     1.0000 0.91825  0.12598  0.80993  Biso   1.000  O
  C172     1.0000 0.95547  0.12559  0.78666  Biso   1.000  C
  O517     1.0000 0.75440  0.12600  0.94453  Biso   1.000  O
  O518     1.0000 0.79805  0.12496  0.00797  Biso   1.000  O
  O519     1.0000 0.83175  0.12598  0.94007  Biso   1.000  O
  C173     1.0000 0.79453  0.12559  0.96334  Biso   1.000  C
  O520     1.0000 0.75440  0.62600  0.44453  Biso   1.000  O
  O521     1.0000 0.79805  0.62496  0.50797  Biso   1.000  O
  O522     1.0000 0.83175  0.62598  0.44007  Biso   1.000  O
  C174     1.0000 0.79453  0.62559  0.46334  Biso   1.000  C
  O523     1.0000 0.25440  0.12600  0.44453  Biso   1.000  O
  O524     1.0000 0.29805  0.12496  0.50797  Biso   1.000  O
  O525     1.0000 0.33175  0.12598  0.44007  Biso   1.000  O
  C175     1.0000 0.29453  0.12559  0.46334  Biso   1.000  C
  O526     1.0000 0.25440  0.62600  0.94453  Biso   1.000  O
  O527     1.0000 0.29805  0.62496  0.00797  Biso   1.000  O
  O528     1.0000 0.33175  0.62598  0.94007  Biso   1.000  O
  C176     1.0000 0.29453  0.62559  0.96334  Biso   1.000  C
  O529     1.0000 0.12400  0.44453  0.99560  Biso   1.000  O
  O530     1.0000 0.12504  0.50797  0.95195  Biso   1.000  O
  O531     1.0000 0.12402  0.44007  0.91825  Biso   1.000  O
  C177     1.0000 0.12441  0.46334  0.95547  Biso   1.000  C
  O532     1.0000 0.12400  0.94453  0.49560  Biso   1.000  O
  O533     1.0000 0.12504  0.00797  0.45195  Biso   1.000  O
  O534     1.0000 0.12402  0.94007  0.41825  Biso   1.000  O
  C178     1.0000 0.12441  0.96334  0.45547  Biso   1.000  C
  O535     1.0000 0.62400  0.44453  0.49560  Biso   1.000  O
  O536     1.0000 0.62504  0.50797  0.45195  Biso   1.000  O
  O537     1.0000 0.62402  0.44007  0.41825  Biso   1.000  O
  C179     1.0000 0.62441  0.46334  0.45547  Biso   1.000  C
  O538     1.0000 0.62400  0.94453  0.99560  Biso   1.000  O
  O539     1.0000 0.62504  0.00797  0.95195  Biso   1.000  O
  O540     1.0000 0.62402  0.94007  0.91825  Biso   1.000  O
  C180     1.0000 0.62441  0.96334  0.95547  Biso   1.000  C
  O541     1.0000 0.62400  0.30547  0.25440  Biso   1.000  O
  O542     1.0000 0.62504  0.24203  0.29805  Biso   1.000  O
  O543     1.0000 0.62402  0.30993  0.33175  Biso   1.000  O
  C181     1.0000 0.62441  0.28666  0.29453  Biso   1.000  C
  O544     1.0000 0.62400  0.80547  0.75440  Biso   1.000  O
  O545     1.0000 0.62504  0.74203  0.79805  Biso   1.000  O
  O546     1.0000 0.62402  0.80993  0.83175  Biso   1.000  O
  C182     1.0000 0.62441  0.78666  0.79453  Biso   1.000  C
  O547     1.0000 0.12400  0.30547  0.75440  Biso   1.000  O
  O548     1.0000 0.12504  0.24203  0.79805  Biso   1.000  O
  O549     1.0000 0.12402  0.30993  0.83175  Biso   1.000  O
  C183     1.0000 0.12441  0.28666  0.79453  Biso   1.000  C
  O550     1.0000 0.12400  0.80547  0.25440  Biso   1.000  O
  O551     1.0000 0.12504  0.74203  0.29805  Biso   1.000  O
  O552     1.0000 0.12402  0.80993  0.33175  Biso   1.000  O
  C184     1.0000 0.12441  0.78666  0.29453  Biso   1.000  C
  O553     1.0000 0.12600  0.94453  0.75440  Biso   1.000  O
  O554     1.0000 0.12496  0.00797  0.79805  Biso   1.000  O
  O555     1.0000 0.12598  0.94007  0.83175  Biso   1.000  O
  C185     1.0000 0.12559  0.96334  0.79453  Biso   1.000  C
  O556     1.0000 0.12600  0.44453  0.25440  Biso   1.000  O
  O557     1.0000 0.12496  0.50797  0.29805  Biso   1.000  O
  O558     1.0000 0.12598  0.44007  0.33175  Biso   1.000  O
  C186     1.0000 0.12559  0.46334  0.29453  Biso   1.000  C
  O559     1.0000 0.62600  0.94453  0.25440  Biso   1.000  O
  O560     1.0000 0.62496  0.00797  0.29805  Biso   1.000  O
  O561     1.0000 0.62598  0.94007  0.33175  Biso   1.000  O
  C187     1.0000 0.62559  0.96334  0.29453  Biso   1.000  C
  O562     1.0000 0.62600  0.44453  0.75440  Biso   1.000  O
  O563     1.0000 0.62496  0.50797  0.79805  Biso   1.000  O
  O564     1.0000 0.62598  0.44007  0.83175  Biso   1.000  O
  C188     1.0000 0.62559  0.46334  0.79453  Biso   1.000  C
  O565     1.0000 0.62600  0.80547  0.49560  Biso   1.000  O
  O566     1.0000 0.62496  0.74203  0.45195  Biso   1.000  O
  O567     1.0000 0.62598  0.80993  0.41825  Biso   1.000  O
  C189     1.0000 0.62559  0.78666  0.45547  Biso   1.000  C
  O568     1.0000 0.62600  0.30547  0.99560  Biso   1.000  O
  O569     1.0000 0.62496  0.24203  0.95195  Biso   1.000  O
  O570     1.0000 0.62598  0.30993  0.91825  Biso   1.000  O
  C190     1.0000 0.62559  0.28666  0.95547  Biso   1.000  C
  O571     1.0000 0.12600  0.80547  0.99560  Biso   1.000  O
  O572     1.0000 0.12496  0.74203  0.95195  Biso   1.000  O
  O573     1.0000 0.12598  0.80993  0.91825  Biso   1.000  O
  C191     1.0000 0.12559  0.78666  0.95547  Biso   1.000  C
  O574     1.0000 0.12600  0.30547  0.49560  Biso   1.000  O
  O575     1.0000 0.12496  0.24203  0.45195  Biso   1.000  O
  O576     1.0000 0.12598  0.30993  0.41825  Biso   1.000  O
  C192     1.0000 0.12559  0.28666  0.45547  Biso   1.000  C
  Co1      1.0000 0.00000  0.37635  0.12635  Biso   1.000  Co
  Co2      1.0000 0.50000  0.37635  0.62635  Biso   1.000  Co
  Co3      1.0000 0.25000  0.37365  0.62635  Biso   1.000  Co
  Co4      1.0000 0.75000  0.37365  0.12635  Biso   1.000  Co
  Co5      1.0000 0.75000  0.87635  0.12365  Biso   1.000  Co
  Co6      1.0000 0.25000  0.87635  0.62365  Biso   1.000  Co
  Co7      1.0000 0.50000  0.87365  0.62365  Biso   1.000  Co
  Co8      1.0000 0.00000  0.87365  0.12365  Biso   1.000  Co
  Co9      1.0000 0.12635  0.00000  0.37635  Biso   1.000  Co
  Co10     1.0000 0.12635  0.50000  0.87635  Biso   1.000  Co
  Co11     1.0000 0.62635  0.25000  0.37365  Biso   1.000  Co
  Co12     1.0000 0.62635  0.75000  0.87365  Biso   1.000  Co
  Co13     1.0000 0.12365  0.75000  0.87635  Biso   1.000  Co
  Co14     1.0000 0.12365  0.25000  0.37635  Biso   1.000  Co
  Co15     1.0000 0.62365  0.50000  0.87365  Biso   1.000  Co
  Co16     1.0000 0.62365  0.00000  0.37365  Biso   1.000  Co
  Co17     1.0000 0.37635  0.12635  0.00000  Biso   1.000  Co
  Co18     1.0000 0.37635  0.62635  0.50000  Biso   1.000  Co
  Co19     1.0000 0.37365  0.62635  0.25000  Biso   1.000  Co
  Co20     1.0000 0.37365  0.12635  0.75000  Biso   1.000  Co
  Co21     1.0000 0.87635  0.12365  0.75000  Biso   1.000  Co
  Co22     1.0000 0.87635  0.62365  0.25000  Biso   1.000  Co
  Co23     1.0000 0.87365  0.62365  0.50000  Biso   1.000  Co
  Co24     1.0000 0.87365  0.12365  0.00000  Biso   1.000  Co
  Co25     1.0000 0.12635  0.25000  0.87365  Biso   1.000  Co
  Co26     1.0000 0.12635  0.75000  0.37365  Biso   1.000  Co
  Co27     1.0000 0.12365  0.50000  0.37365  Biso   1.000  Co
  Co28     1.0000 0.12365  0.00000  0.87365  Biso   1.000  Co
  Co29     1.0000 0.62635  0.00000  0.87635  Biso   1.000  Co
  Co30     1.0000 0.62635  0.50000  0.37635  Biso   1.000  Co
  Co31     1.0000 0.62365  0.75000  0.37635  Biso   1.000  Co
  Co32     1.0000 0.62365  0.25000  0.87635  Biso   1.000  Co
  Co33     1.0000 0.75000  0.37635  0.62365  Biso   1.000  Co
  Co34     1.0000 0.25000  0.37635  0.12365  Biso   1.000  Co
  Co35     1.0000 0.00000  0.87635  0.62635  Biso   1.000  Co
  Co36     1.0000 0.50000  0.87635  0.12635  Biso   1.000  Co
  Co37     1.0000 0.50000  0.37365  0.12365  Biso   1.000  Co
  Co38     1.0000 0.00000  0.37365  0.62365  Biso   1.000  Co
  Co39     1.0000 0.25000  0.87365  0.12635  Biso   1.000  Co
  Co40     1.0000 0.75000  0.87365  0.62635  Biso   1.000  Co
  Co41     1.0000 0.87635  0.62635  0.00000  Biso   1.000  Co
  Co42     1.0000 0.87635  0.12635  0.50000  Biso   1.000  Co
  Co43     1.0000 0.37635  0.62365  0.75000  Biso   1.000  Co
  Co44     1.0000 0.37635  0.12365  0.25000  Biso   1.000  Co
  Co45     1.0000 0.87365  0.12635  0.25000  Biso   1.000  Co
  Co46     1.0000 0.87365  0.62635  0.75000  Biso   1.000  Co
  Co47     1.0000 0.37365  0.12365  0.50000  Biso   1.000  Co
  Co48     1.0000 0.37365  0.62365  0.00000  Biso   1.000  Co
  Co49     1.0000 0.00000  0.62365  0.87365  Biso   1.000  Co
  Co50     1.0000 0.50000  0.62365  0.37365  Biso   1.000  Co
  Co51     1.0000 0.75000  0.62635  0.37365  Biso   1.000  Co
  Co52     1.0000 0.25000  0.62635  0.87365  Biso   1.000  Co
  Co53     1.0000 0.25000  0.12365  0.87635  Biso   1.000  Co
  Co54     1.0000 0.75000  0.12365  0.37635  Biso   1.000  Co
  Co55     1.0000 0.50000  0.12635  0.37635  Biso   1.000  Co
  Co56     1.0000 0.00000  0.12635  0.87635  Biso   1.000  Co
  Co57     1.0000 0.87365  0.00000  0.62365  Biso   1.000  Co
  Co58     1.0000 0.87365  0.50000  0.12365  Biso   1.000  Co
  Co59     1.0000 0.37365  0.75000  0.62635  Biso   1.000  Co
  Co60     1.0000 0.37365  0.25000  0.12635  Biso   1.000  Co
  Co61     1.0000 0.87635  0.25000  0.12365  Biso   1.000  Co
  Co62     1.0000 0.87635  0.75000  0.62365  Biso   1.000  Co
  Co63     1.0000 0.37635  0.50000  0.12635  Biso   1.000  Co
  Co64     1.0000 0.37635  0.00000  0.62635  Biso   1.000  Co
  Co65     1.0000 0.62365  0.87365  0.00000  Biso   1.000  Co
  Co66     1.0000 0.62365  0.37365  0.50000  Biso   1.000  Co
  Co67     1.0000 0.62635  0.37365  0.75000  Biso   1.000  Co
  Co68     1.0000 0.62635  0.87365  0.25000  Biso   1.000  Co
  Co69     1.0000 0.12365  0.87635  0.25000  Biso   1.000  Co
  Co70     1.0000 0.12365  0.37635  0.75000  Biso   1.000  Co
  Co71     1.0000 0.12635  0.37635  0.50000  Biso   1.000  Co
  Co72     1.0000 0.12635  0.87635  0.00000  Biso   1.000  Co
  Co73     1.0000 0.87365  0.75000  0.12635  Biso   1.000  Co
  Co74     1.0000 0.87365  0.25000  0.62635  Biso   1.000  Co
  Co75     1.0000 0.87635  0.50000  0.62635  Biso   1.000  Co
  Co76     1.0000 0.87635  0.00000  0.12635  Biso   1.000  Co
  Co77     1.0000 0.37365  0.00000  0.12365  Biso   1.000  Co
  Co78     1.0000 0.37365  0.50000  0.62365  Biso   1.000  Co
  Co79     1.0000 0.37635  0.25000  0.62365  Biso   1.000  Co
  Co80     1.0000 0.37635  0.75000  0.12365  Biso   1.000  Co
  Co81     1.0000 0.25000  0.62365  0.37635  Biso   1.000  Co
  Co82     1.0000 0.75000  0.62365  0.87635  Biso   1.000  Co
  Co83     1.0000 0.00000  0.12365  0.37365  Biso   1.000  Co
  Co84     1.0000 0.50000  0.12365  0.87365  Biso   1.000  Co
  Co85     1.0000 0.50000  0.62635  0.87635  Biso   1.000  Co
  Co86     1.0000 0.00000  0.62635  0.37635  Biso   1.000  Co
  Co87     1.0000 0.75000  0.12635  0.87365  Biso   1.000  Co
  Co88     1.0000 0.25000  0.12635  0.37365  Biso   1.000  Co
  Co89     1.0000 0.12365  0.37365  0.00000  Biso   1.000  Co
  Co90     1.0000 0.12365  0.87365  0.50000  Biso   1.000  Co
  Co91     1.0000 0.62365  0.37635  0.25000  Biso   1.000  Co
  Co92     1.0000 0.62365  0.87635  0.75000  Biso   1.000  Co
  Co93     1.0000 0.12635  0.87365  0.75000  Biso   1.000  Co
  Co94     1.0000 0.12635  0.37365  0.25000  Biso   1.000  Co
  Co95     1.0000 0.62635  0.87635  0.50000  Biso   1.000  Co
  Co96     1.0000 0.62635  0.37635  0.00000  Biso   1.000  Co
  Na1      1.0000 0.12500  0.37500  0.12500  Biso   1.000  Na
  Na2      1.0000 0.12500  0.37500  0.62500  Biso   1.000  Na
  Na3      1.0000 0.12500  0.87500  0.12500  Biso   1.000  Na
  Na4      1.0000 0.62500  0.87500  0.12500  Biso   1.000  Na
  Na5      1.0000 0.62500  0.37500  0.62500  Biso   1.000  Na
  Na6      1.0000 0.62500  0.87500  0.62500  Biso   1.000  Na
  Na7      1.0000 0.12500  0.12500  0.37500  Biso   1.000  Na
  Na8      1.0000 0.62500  0.12500  0.37500  Biso   1.000  Na
  Na9      1.0000 0.12500  0.62500  0.87500  Biso   1.000  Na
  Na10     1.0000 0.62500  0.62500  0.87500  Biso   1.000  Na
  Na11     1.0000 0.37500  0.12500  0.12500  Biso   1.000  Na
  Na12     1.0000 0.37500  0.62500  0.62500  Biso   1.000  Na
  Na13     1.0000 0.37500  0.62500  0.12500  Biso   1.000  Na
  Na14     1.0000 0.87500  0.12500  0.62500  Biso   1.000  Na
  Na15     1.0000 0.87500  0.62500  0.62500  Biso   1.000  Na
  Na16     1.0000 0.87500  0.12500  0.12500  Biso   1.000  Na
  Na17     1.0000 0.12500  0.37500  0.87500  Biso   1.000  Na
  Na18     1.0000 0.12500  0.37500  0.37500  Biso   1.000  Na
  Na19     1.0000 0.12500  0.87500  0.87500  Biso   1.000  Na
  Na20     1.0000 0.62500  0.87500  0.87500  Biso   1.000  Na
  Na21     1.0000 0.62500  0.37500  0.37500  Biso   1.000  Na
  Na22     1.0000 0.62500  0.87500  0.37500  Biso   1.000  Na
  Na23     1.0000 0.87500  0.37500  0.62500  Biso   1.000  Na
  Na24     1.0000 0.87500  0.87500  0.12500  Biso   1.000  Na
  Na25     1.0000 0.87500  0.87500  0.62500  Biso   1.000  Na
  Na26     1.0000 0.37500  0.37500  0.12500  Biso   1.000  Na
  Na27     1.0000 0.37500  0.87500  0.12500  Biso   1.000  Na
  Na28     1.0000 0.37500  0.37500  0.62500  Biso   1.000  Na
  Na29     1.0000 0.87500  0.62500  0.87500  Biso   1.000  Na
  Na30     1.0000 0.37500  0.62500  0.87500  Biso   1.000  Na
  Na31     1.0000 0.87500  0.12500  0.37500  Biso   1.000  Na
  Na32     1.0000 0.37500  0.12500  0.37500  Biso   1.000  Na
  Na33     1.0000 0.87500  0.62500  0.37500  Biso   1.000  Na
  Na34     1.0000 0.87500  0.12500  0.87500  Biso   1.000  Na
  Na35     1.0000 0.37500  0.12500  0.87500  Biso   1.000  Na
  Na36     1.0000 0.37500  0.62500  0.37500  Biso   1.000  Na
  Na37     1.0000 0.37500  0.87500  0.62500  Biso   1.000  Na
  Na38     1.0000 0.87500  0.37500  0.12500  Biso   1.000  Na
  Na39     1.0000 0.62500  0.37500  0.87500  Biso   1.000  Na
  Na40     1.0000 0.12500  0.87500  0.37500  Biso   1.000  Na
  Na41     1.0000 0.87500  0.62500  0.12500  Biso   1.000  Na
  Na42     1.0000 0.37500  0.12500  0.62500  Biso   1.000  Na
  Na43     1.0000 0.12500  0.62500  0.37500  Biso   1.000  Na
  Na44     1.0000 0.12500  0.12500  0.87500  Biso   1.000  Na
  Na45     1.0000 0.62500  0.12500  0.87500  Biso   1.000  Na
  Na46     1.0000 0.62500  0.62500  0.37500  Biso   1.000  Na
  Na47     1.0000 0.62500  0.37500  0.12500  Biso   1.000  Na
  Na48     1.0000 0.12500  0.87500  0.62500  Biso   1.000  Na
