data_image0
_cell_length_a       26.217
_cell_length_b       26.217
_cell_length_c       44.813
_cell_angle_alpha    90
_cell_angle_beta     90
_cell_angle_gamma    90

_symmetry_space_group_name_H-M    "P 1"
_symmetry_int_tables_number       1

loop_
  _symmetry_equiv_pos_as_xyz
  'x, y, z'

loop_
  _atom_site_label
  _atom_site_occupancy
  _atom_site_fract_x
  _atom_site_fract_y
  _atom_site_fract_z
  _atom_site_thermal_displace_type
  _atom_site_B_iso_or_equiv
  _atom_site_type_symbol
  O1       1.0000 0.18180  0.25560  0.46936  Biso   1.000  O
  O2       1.0000 0.18090  0.44764  0.35780  Biso   1.000  O
  O3       1.0000 0.24250  0.31565  0.46983  Biso   1.000  O
  O4       1.0000 0.25550  0.44712  0.31367  Biso   1.000  O
  O5       1.0000 0.31614  0.44636  0.35010  Biso   1.000  O
  O6       1.0000 0.24180  0.44741  0.39303  Biso   1.000  O
  C1       1.0000 0.20400  0.43170  0.38020  Biso   1.000  C
  C2       1.0000 0.20330  0.29550  0.46019  Biso   1.000  C
  C3       1.0000 0.29370  0.43080  0.32683  Biso   1.000  C
  C4       1.0000 0.30300  0.36690  0.28420  Biso   1.000  C
  C5       1.0000 0.20110  0.36640  0.42185  Biso   1.000  C
  C6       1.0000 0.12990  0.30290  0.42320  Biso   1.000  C
  C7       1.0000 0.17840  0.38780  0.39680  Biso   1.000  C
  C8       1.0000 0.12940  0.36840  0.38380  Biso   1.000  C
  C9       1.0000 0.17620  0.32300  0.43435  Biso   1.000  C
  C10      1.0000 0.10740  0.32570  0.39730  Biso   1.000  C
  C11      1.0000 0.32200  0.38650  0.31076  Biso   1.000  C
  N1       1.0000 0.06060  0.30510  0.38230  Biso   1.000  N
  O7       1.0000 0.68180  0.75560  0.96936  Biso   1.000  O
  O8       1.0000 0.68090  0.94764  0.85780  Biso   1.000  O
  O9       1.0000 0.74250  0.81565  0.96983  Biso   1.000  O
  O10      1.0000 0.75550  0.94712  0.81367  Biso   1.000  O
  O11      1.0000 0.81614  0.94636  0.85010  Biso   1.000  O
  O12      1.0000 0.74180  0.94741  0.89303  Biso   1.000  O
  C12      1.0000 0.70400  0.93170  0.88020  Biso   1.000  C
  C13      1.0000 0.70330  0.79550  0.96019  Biso   1.000  C
  C14      1.0000 0.79370  0.93080  0.82683  Biso   1.000  C
  C15      1.0000 0.80300  0.86690  0.78420  Biso   1.000  C
  C16      1.0000 0.70110  0.86640  0.92185  Biso   1.000  C
  C17      1.0000 0.62990  0.80290  0.92320  Biso   1.000  C
  C18      1.0000 0.67840  0.88780  0.89680  Biso   1.000  C
  C19      1.0000 0.62940  0.86840  0.88380  Biso   1.000  C
  C20      1.0000 0.67620  0.82300  0.93435  Biso   1.000  C
  C21      1.0000 0.60740  0.82570  0.89730  Biso   1.000  C
  C22      1.0000 0.82200  0.88650  0.81076  Biso   1.000  C
  N2       1.0000 0.56060  0.80510  0.88230  Biso   1.000  N
  O13      1.0000 0.81820  0.74440  0.46936  Biso   1.000  O
  O14      1.0000 0.81910  0.55236  0.35780  Biso   1.000  O
  O15      1.0000 0.75750  0.68435  0.46983  Biso   1.000  O
  O16      1.0000 0.74450  0.55288  0.31367  Biso   1.000  O
  O17      1.0000 0.68386  0.55364  0.35010  Biso   1.000  O
  O18      1.0000 0.75820  0.55259  0.39303  Biso   1.000  O
  C23      1.0000 0.79600  0.56830  0.38020  Biso   1.000  C
  C24      1.0000 0.79670  0.70450  0.46019  Biso   1.000  C
  C25      1.0000 0.70630  0.56920  0.32683  Biso   1.000  C
  C26      1.0000 0.69700  0.63310  0.28420  Biso   1.000  C
  C27      1.0000 0.79890  0.63360  0.42185  Biso   1.000  C
  C28      1.0000 0.87010  0.69710  0.42320  Biso   1.000  C
  C29      1.0000 0.82160  0.61220  0.39680  Biso   1.000  C
  C30      1.0000 0.87060  0.63160  0.38380  Biso   1.000  C
  C31      1.0000 0.82380  0.67700  0.43435  Biso   1.000  C
  C32      1.0000 0.89260  0.67430  0.39730  Biso   1.000  C
  C33      1.0000 0.67800  0.61350  0.31076  Biso   1.000  C
  N3       1.0000 0.93940  0.69490  0.38230  Biso   1.000  N
  O19      1.0000 0.31820  0.24440  0.96936  Biso   1.000  O
  O20      1.0000 0.31910  0.05236  0.85780  Biso   1.000  O
  O21      1.0000 0.25750  0.18435  0.96983  Biso   1.000  O
  O22      1.0000 0.24450  0.05288  0.81367  Biso   1.000  O
  O23      1.0000 0.18386  0.05364  0.85010  Biso   1.000  O
  O24      1.0000 0.25820  0.05259  0.89303  Biso   1.000  O
  C34      1.0000 0.29600  0.06830  0.88020  Biso   1.000  C
  C35      1.0000 0.29670  0.20450  0.96019  Biso   1.000  C
  C36      1.0000 0.20630  0.06920  0.82683  Biso   1.000  C
  C37      1.0000 0.19700  0.13310  0.78420  Biso   1.000  C
  C38      1.0000 0.29890  0.13360  0.92185  Biso   1.000  C
  C39      1.0000 0.37010  0.19710  0.92320  Biso   1.000  C
  C40      1.0000 0.32160  0.11220  0.89680  Biso   1.000  C
  C41      1.0000 0.37060  0.13160  0.88380  Biso   1.000  C
  C42      1.0000 0.32380  0.17700  0.93435  Biso   1.000  C
  C43      1.0000 0.39260  0.17430  0.89730  Biso   1.000  C
  C44      1.0000 0.17800  0.11350  0.81076  Biso   1.000  C
  N4       1.0000 0.43940  0.19490  0.88230  Biso   1.000  N
  O25      1.0000 0.74440  0.18180  0.46936  Biso   1.000  O
  O26      1.0000 0.55236  0.18090  0.35780  Biso   1.000  O
  O27      1.0000 0.68435  0.24250  0.46983  Biso   1.000  O
  O28      1.0000 0.55288  0.25550  0.31367  Biso   1.000  O
  O29      1.0000 0.55364  0.31614  0.35010  Biso   1.000  O
  O30      1.0000 0.55259  0.24180  0.39303  Biso   1.000  O
  C45      1.0000 0.56830  0.20400  0.38020  Biso   1.000  C
  C46      1.0000 0.70450  0.20330  0.46019  Biso   1.000  C
  C47      1.0000 0.56920  0.29370  0.32683  Biso   1.000  C
  C48      1.0000 0.63310  0.30300  0.28420  Biso   1.000  C
  C49      1.0000 0.63360  0.20110  0.42185  Biso   1.000  C
  C50      1.0000 0.69710  0.12990  0.42320  Biso   1.000  C
  C51      1.0000 0.61220  0.17840  0.39680  Biso   1.000  C
  C52      1.0000 0.63160  0.12940  0.38380  Biso   1.000  C
  C53      1.0000 0.67700  0.17620  0.43435  Biso   1.000  C
  C54      1.0000 0.67430  0.10740  0.39730  Biso   1.000  C
  C55      1.0000 0.61350  0.32200  0.31076  Biso   1.000  C
  N5       1.0000 0.69490  0.06060  0.38230  Biso   1.000  N
  O31      1.0000 0.24440  0.68180  0.96936  Biso   1.000  O
  O32      1.0000 0.05236  0.68090  0.85780  Biso   1.000  O
  O33      1.0000 0.18435  0.74250  0.96983  Biso   1.000  O
  O34      1.0000 0.05288  0.75550  0.81367  Biso   1.000  O
  O35      1.0000 0.05364  0.81614  0.85010  Biso   1.000  O
  O36      1.0000 0.05259  0.74180  0.89303  Biso   1.000  O
  C56      1.0000 0.06830  0.70400  0.88020  Biso   1.000  C
  C57      1.0000 0.20450  0.70330  0.96019  Biso   1.000  C
  C58      1.0000 0.06920  0.79370  0.82683  Biso   1.000  C
  C59      1.0000 0.13310  0.80300  0.78420  Biso   1.000  C
  C60      1.0000 0.13360  0.70110  0.92185  Biso   1.000  C
  C61      1.0000 0.19710  0.62990  0.92320  Biso   1.000  C
  C62      1.0000 0.11220  0.67840  0.89680  Biso   1.000  C
  C63      1.0000 0.13160  0.62940  0.88380  Biso   1.000  C
  C64      1.0000 0.17700  0.67620  0.93435  Biso   1.000  C
  C65      1.0000 0.17430  0.60740  0.89730  Biso   1.000  C
  C66      1.0000 0.11350  0.82200  0.81076  Biso   1.000  C
  N6       1.0000 0.19490  0.56060  0.88230  Biso   1.000  N
  O37      1.0000 0.25560  0.81820  0.46936  Biso   1.000  O
  O38      1.0000 0.44764  0.81910  0.35780  Biso   1.000  O
  O39      1.0000 0.31565  0.75750  0.46983  Biso   1.000  O
  O40      1.0000 0.44712  0.74450  0.31367  Biso   1.000  O
  O41      1.0000 0.44636  0.68386  0.35010  Biso   1.000  O
  O42      1.0000 0.44741  0.75820  0.39303  Biso   1.000  O
  C67      1.0000 0.43170  0.79600  0.38020  Biso   1.000  C
  C68      1.0000 0.29550  0.79670  0.46019  Biso   1.000  C
  C69      1.0000 0.43080  0.70630  0.32683  Biso   1.000  C
  C70      1.0000 0.36690  0.69700  0.28420  Biso   1.000  C
  C71      1.0000 0.36640  0.79890  0.42185  Biso   1.000  C
  C72      1.0000 0.30290  0.87010  0.42320  Biso   1.000  C
  C73      1.0000 0.38780  0.82160  0.39680  Biso   1.000  C
  C74      1.0000 0.36840  0.87060  0.38380  Biso   1.000  C
  C75      1.0000 0.32300  0.82380  0.43435  Biso   1.000  C
  C76      1.0000 0.32570  0.89260  0.39730  Biso   1.000  C
  C77      1.0000 0.38650  0.67800  0.31076  Biso   1.000  C
  N7       1.0000 0.30510  0.93940  0.38230  Biso   1.000  N
  O43      1.0000 0.75560  0.31820  0.96936  Biso   1.000  O
  O44      1.0000 0.94764  0.31910  0.85780  Biso   1.000  O
  O45      1.0000 0.81565  0.25750  0.96983  Biso   1.000  O
  O46      1.0000 0.94712  0.24450  0.81367  Biso   1.000  O
  O47      1.0000 0.94636  0.18386  0.85010  Biso   1.000  O
  O48      1.0000 0.94741  0.25820  0.89303  Biso   1.000  O
  C78      1.0000 0.93170  0.29600  0.88020  Biso   1.000  C
  C79      1.0000 0.79550  0.29670  0.96019  Biso   1.000  C
  C80      1.0000 0.93080  0.20630  0.82683  Biso   1.000  C
  C81      1.0000 0.86690  0.19700  0.78420  Biso   1.000  C
  C82      1.0000 0.86640  0.29890  0.92185  Biso   1.000  C
  C83      1.0000 0.80290  0.37010  0.92320  Biso   1.000  C
  C84      1.0000 0.88780  0.32160  0.89680  Biso   1.000  C
  C85      1.0000 0.86840  0.37060  0.88380  Biso   1.000  C
  C86      1.0000 0.82300  0.32380  0.93435  Biso   1.000  C
  C87      1.0000 0.82570  0.39260  0.89730  Biso   1.000  C
  C88      1.0000 0.88650  0.17800  0.81076  Biso   1.000  C
  N8       1.0000 0.80510  0.43940  0.88230  Biso   1.000  N
  O49      1.0000 0.81820  0.25560  0.53064  Biso   1.000  O
  O50      1.0000 0.81910  0.44764  0.64220  Biso   1.000  O
  O51      1.0000 0.75750  0.31565  0.53017  Biso   1.000  O
  O52      1.0000 0.74450  0.44712  0.68633  Biso   1.000  O
  O53      1.0000 0.68386  0.44636  0.64990  Biso   1.000  O
  O54      1.0000 0.75820  0.44741  0.60697  Biso   1.000  O
  C89      1.0000 0.79600  0.43170  0.61980  Biso   1.000  C
  C90      1.0000 0.79670  0.29550  0.53981  Biso   1.000  C
  C91      1.0000 0.70630  0.43080  0.67317  Biso   1.000  C
  C92      1.0000 0.69700  0.36690  0.71580  Biso   1.000  C
  C93      1.0000 0.79890  0.36640  0.57815  Biso   1.000  C
  C94      1.0000 0.87010  0.30290  0.57680  Biso   1.000  C
  C95      1.0000 0.82160  0.38780  0.60320  Biso   1.000  C
  C96      1.0000 0.87060  0.36840  0.61620  Biso   1.000  C
  C97      1.0000 0.82380  0.32300  0.56565  Biso   1.000  C
  C98      1.0000 0.89260  0.32570  0.60270  Biso   1.000  C
  C99      1.0000 0.67800  0.38650  0.68924  Biso   1.000  C
  N9       1.0000 0.93940  0.30510  0.61770  Biso   1.000  N
  O55      1.0000 0.31820  0.75560  0.03064  Biso   1.000  O
  O56      1.0000 0.31910  0.94764  0.14220  Biso   1.000  O
  O57      1.0000 0.25750  0.81565  0.03017  Biso   1.000  O
  O58      1.0000 0.24450  0.94712  0.18633  Biso   1.000  O
  O59      1.0000 0.18386  0.94636  0.14990  Biso   1.000  O
  O60      1.0000 0.25820  0.94741  0.10697  Biso   1.000  O
  C100     1.0000 0.29600  0.93170  0.11980  Biso   1.000  C
  C101     1.0000 0.29670  0.79550  0.03981  Biso   1.000  C
  C102     1.0000 0.20630  0.93080  0.17317  Biso   1.000  C
  C103     1.0000 0.19700  0.86690  0.21580  Biso   1.000  C
  C104     1.0000 0.29890  0.86640  0.07815  Biso   1.000  C
  C105     1.0000 0.37010  0.80290  0.07680  Biso   1.000  C
  C106     1.0000 0.32160  0.88780  0.10320  Biso   1.000  C
  C107     1.0000 0.37060  0.86840  0.11620  Biso   1.000  C
  C108     1.0000 0.32380  0.82300  0.06565  Biso   1.000  C
  C109     1.0000 0.39260  0.82570  0.10270  Biso   1.000  C
  C110     1.0000 0.17800  0.88650  0.18924  Biso   1.000  C
  N10      1.0000 0.43940  0.80510  0.11770  Biso   1.000  N
  O61      1.0000 0.18180  0.74440  0.53064  Biso   1.000  O
  O62      1.0000 0.18090  0.55236  0.64220  Biso   1.000  O
  O63      1.0000 0.24250  0.68435  0.53017  Biso   1.000  O
  O64      1.0000 0.25550  0.55288  0.68633  Biso   1.000  O
  O65      1.0000 0.31614  0.55364  0.64990  Biso   1.000  O
  O66      1.0000 0.24180  0.55259  0.60697  Biso   1.000  O
  C111     1.0000 0.20400  0.56830  0.61980  Biso   1.000  C
  C112     1.0000 0.20330  0.70450  0.53981  Biso   1.000  C
  C113     1.0000 0.29370  0.56920  0.67317  Biso   1.000  C
  C114     1.0000 0.30300  0.63310  0.71580  Biso   1.000  C
  C115     1.0000 0.20110  0.63360  0.57815  Biso   1.000  C
  C116     1.0000 0.12990  0.69710  0.57680  Biso   1.000  C
  C117     1.0000 0.17840  0.61220  0.60320  Biso   1.000  C
  C118     1.0000 0.12940  0.63160  0.61620  Biso   1.000  C
  C119     1.0000 0.17620  0.67700  0.56565  Biso   1.000  C
  C120     1.0000 0.10740  0.67430  0.60270  Biso   1.000  C
  C121     1.0000 0.32200  0.61350  0.68924  Biso   1.000  C
  N11      1.0000 0.06060  0.69490  0.61770  Biso   1.000  N
  O67      1.0000 0.68180  0.24440  0.03064  Biso   1.000  O
  O68      1.0000 0.68090  0.05236  0.14220  Biso   1.000  O
  O69      1.0000 0.74250  0.18435  0.03017  Biso   1.000  O
  O70      1.0000 0.75550  0.05288  0.18633  Biso   1.000  O
  O71      1.0000 0.81614  0.05364  0.14990  Biso   1.000  O
  O72      1.0000 0.74180  0.05259  0.10697  Biso   1.000  O
  C122     1.0000 0.70400  0.06830  0.11980  Biso   1.000  C
  C123     1.0000 0.70330  0.20450  0.03981  Biso   1.000  C
  C124     1.0000 0.79370  0.06920  0.17317  Biso   1.000  C
  C125     1.0000 0.80300  0.13310  0.21580  Biso   1.000  C
  C126     1.0000 0.70110  0.13360  0.07815  Biso   1.000  C
  C127     1.0000 0.62990  0.19710  0.07680  Biso   1.000  C
  C128     1.0000 0.67840  0.11220  0.10320  Biso   1.000  C
  C129     1.0000 0.62940  0.13160  0.11620  Biso   1.000  C
  C130     1.0000 0.67620  0.17700  0.06565  Biso   1.000  C
  C131     1.0000 0.60740  0.17430  0.10270  Biso   1.000  C
  C132     1.0000 0.82200  0.11350  0.18924  Biso   1.000  C
  N12      1.0000 0.56060  0.19490  0.11770  Biso   1.000  N
  O73      1.0000 0.25560  0.18180  0.53064  Biso   1.000  O
  O74      1.0000 0.44764  0.18090  0.64220  Biso   1.000  O
  O75      1.0000 0.31565  0.24250  0.53017  Biso   1.000  O
  O76      1.0000 0.44712  0.25550  0.68633  Biso   1.000  O
  O77      1.0000 0.44636  0.31614  0.64990  Biso   1.000  O
  O78      1.0000 0.44741  0.24180  0.60697  Biso   1.000  O
  C133     1.0000 0.43170  0.20400  0.61980  Biso   1.000  C
  C134     1.0000 0.29550  0.20330  0.53981  Biso   1.000  C
  C135     1.0000 0.43080  0.29370  0.67317  Biso   1.000  C
  C136     1.0000 0.36690  0.30300  0.71580  Biso   1.000  C
  C137     1.0000 0.36640  0.20110  0.57815  Biso   1.000  C
  C138     1.0000 0.30290  0.12990  0.57680  Biso   1.000  C
  C139     1.0000 0.38780  0.17840  0.60320  Biso   1.000  C
  C140     1.0000 0.36840  0.12940  0.61620  Biso   1.000  C
  C141     1.0000 0.32300  0.17620  0.56565  Biso   1.000  C
  C142     1.0000 0.32570  0.10740  0.60270  Biso   1.000  C
  C143     1.0000 0.38650  0.32200  0.68924  Biso   1.000  C
  N13      1.0000 0.30510  0.06060  0.61770  Biso   1.000  N
  O79      1.0000 0.75560  0.68180  0.03064  Biso   1.000  O
  O80      1.0000 0.94764  0.68090  0.14220  Biso   1.000  O
  O81      1.0000 0.81565  0.74250  0.03017  Biso   1.000  O
  O82      1.0000 0.94712  0.75550  0.18633  Biso   1.000  O
  O83      1.0000 0.94636  0.81614  0.14990  Biso   1.000  O
  O84      1.0000 0.94741  0.74180  0.10697  Biso   1.000  O
  C144     1.0000 0.93170  0.70400  0.11980  Biso   1.000  C
  C145     1.0000 0.79550  0.70330  0.03981  Biso   1.000  C
  C146     1.0000 0.93080  0.79370  0.17317  Biso   1.000  C
  C147     1.0000 0.86690  0.80300  0.21580  Biso   1.000  C
  C148     1.0000 0.86640  0.70110  0.07815  Biso   1.000  C
  C149     1.0000 0.80290  0.62990  0.07680  Biso   1.000  C
  C150     1.0000 0.88780  0.67840  0.10320  Biso   1.000  C
  C151     1.0000 0.86840  0.62940  0.11620  Biso   1.000  C
  C152     1.0000 0.82300  0.67620  0.06565  Biso   1.000  C
  C153     1.0000 0.82570  0.60740  0.10270  Biso   1.000  C
  C154     1.0000 0.88650  0.82200  0.18924  Biso   1.000  C
  N14      1.0000 0.80510  0.56060  0.11770  Biso   1.000  N
  O85      1.0000 0.74440  0.81820  0.53064  Biso   1.000  O
  O86      1.0000 0.55236  0.81910  0.64220  Biso   1.000  O
  O87      1.0000 0.68435  0.75750  0.53017  Biso   1.000  O
  O88      1.0000 0.55288  0.74450  0.68633  Biso   1.000  O
  O89      1.0000 0.55364  0.68386  0.64990  Biso   1.000  O
  O90      1.0000 0.55259  0.75820  0.60697  Biso   1.000  O
  C155     1.0000 0.56830  0.79600  0.61980  Biso   1.000  C
  C156     1.0000 0.70450  0.79670  0.53981  Biso   1.000  C
  C157     1.0000 0.56920  0.70630  0.67317  Biso   1.000  C
  C158     1.0000 0.63310  0.69700  0.71580  Biso   1.000  C
  C159     1.0000 0.63360  0.79890  0.57815  Biso   1.000  C
  C160     1.0000 0.69710  0.87010  0.57680  Biso   1.000  C
  C161     1.0000 0.61220  0.82160  0.60320  Biso   1.000  C
  C162     1.0000 0.63160  0.87060  0.61620  Biso   1.000  C
  C163     1.0000 0.67700  0.82380  0.56565  Biso   1.000  C
  C164     1.0000 0.67430  0.89260  0.60270  Biso   1.000  C
  C165     1.0000 0.61350  0.67800  0.68924  Biso   1.000  C
  N15      1.0000 0.69490  0.93940  0.61770  Biso   1.000  N
  O91      1.0000 0.24440  0.31820  0.03064  Biso   1.000  O
  O92      1.0000 0.05236  0.31910  0.14220  Biso   1.000  O
  O93      1.0000 0.18435  0.25750  0.03017  Biso   1.000  O
  O94      1.0000 0.05288  0.24450  0.18633  Biso   1.000  O
  O95      1.0000 0.05364  0.18386  0.14990  Biso   1.000  O
  O96      1.0000 0.05259  0.25820  0.10697  Biso   1.000  O
  C166     1.0000 0.06830  0.29600  0.11980  Biso   1.000  C
  C167     1.0000 0.20450  0.29670  0.03981  Biso   1.000  C
  C168     1.0000 0.06920  0.20630  0.17317  Biso   1.000  C
  C169     1.0000 0.13310  0.19700  0.21580  Biso   1.000  C
  C170     1.0000 0.13360  0.29890  0.07815  Biso   1.000  C
  C171     1.0000 0.19710  0.37010  0.07680  Biso   1.000  C
  C172     1.0000 0.11220  0.32160  0.10320  Biso   1.000  C
  C173     1.0000 0.13160  0.37060  0.11620  Biso   1.000  C
  C174     1.0000 0.17700  0.32380  0.06565  Biso   1.000  C
  C175     1.0000 0.17430  0.39260  0.10270  Biso   1.000  C
  C176     1.0000 0.11350  0.17800  0.18924  Biso   1.000  C
  N16      1.0000 0.19490  0.43940  0.11770  Biso   1.000  N
  O97      1.0000 0.81820  0.74440  0.53064  Biso   1.000  O
  O98      1.0000 0.81910  0.55236  0.64220  Biso   1.000  O
  O99      1.0000 0.75750  0.68435  0.53017  Biso   1.000  O
  O100     1.0000 0.74450  0.55288  0.68633  Biso   1.000  O
  O101     1.0000 0.68386  0.55364  0.64990  Biso   1.000  O
  O102     1.0000 0.75820  0.55259  0.60697  Biso   1.000  O
  C177     1.0000 0.79600  0.56830  0.61980  Biso   1.000  C
  C178     1.0000 0.79670  0.70450  0.53981  Biso   1.000  C
  C179     1.0000 0.70630  0.56920  0.67317  Biso   1.000  C
  C180     1.0000 0.69700  0.63310  0.71580  Biso   1.000  C
  C181     1.0000 0.79890  0.63360  0.57815  Biso   1.000  C
  C182     1.0000 0.87010  0.69710  0.57680  Biso   1.000  C
  C183     1.0000 0.82160  0.61220  0.60320  Biso   1.000  C
  C184     1.0000 0.87060  0.63160  0.61620  Biso   1.000  C
  C185     1.0000 0.82380  0.67700  0.56565  Biso   1.000  C
  C186     1.0000 0.89260  0.67430  0.60270  Biso   1.000  C
  C187     1.0000 0.67800  0.61350  0.68924  Biso   1.000  C
  N17      1.0000 0.93940  0.69490  0.61770  Biso   1.000  N
  O103     1.0000 0.31820  0.24440  0.03064  Biso   1.000  O
  O104     1.0000 0.31910  0.05236  0.14220  Biso   1.000  O
  O105     1.0000 0.25750  0.18435  0.03017  Biso   1.000  O
  O106     1.0000 0.24450  0.05288  0.18633  Biso   1.000  O
  O107     1.0000 0.18386  0.05364  0.14990  Biso   1.000  O
  O108     1.0000 0.25820  0.05259  0.10697  Biso   1.000  O
  C188     1.0000 0.29600  0.06830  0.11980  Biso   1.000  C
  C189     1.0000 0.29670  0.20450  0.03981  Biso   1.000  C
  C190     1.0000 0.20630  0.06920  0.17317  Biso   1.000  C
  C191     1.0000 0.19700  0.13310  0.21580  Biso   1.000  C
  C192     1.0000 0.29890  0.13360  0.07815  Biso   1.000  C
  C193     1.0000 0.37010  0.19710  0.07680  Biso   1.000  C
  C194     1.0000 0.32160  0.11220  0.10320  Biso   1.000  C
  C195     1.0000 0.37060  0.13160  0.11620  Biso   1.000  C
  C196     1.0000 0.32380  0.17700  0.06565  Biso   1.000  C
  C197     1.0000 0.39260  0.17430  0.10270  Biso   1.000  C
  C198     1.0000 0.17800  0.11350  0.18924  Biso   1.000  C
  N18      1.0000 0.43940  0.19490  0.11770  Biso   1.000  N
  O109     1.0000 0.18180  0.25560  0.53064  Biso   1.000  O
  O110     1.0000 0.18090  0.44764  0.64220  Biso   1.000  O
  O111     1.0000 0.24250  0.31565  0.53017  Biso   1.000  O
  O112     1.0000 0.25550  0.44712  0.68633  Biso   1.000  O
  O113     1.0000 0.31614  0.44636  0.64990  Biso   1.000  O
  O114     1.0000 0.24180  0.44741  0.60697  Biso   1.000  O
  C199     1.0000 0.20400  0.43170  0.61980  Biso   1.000  C
  C200     1.0000 0.20330  0.29550  0.53981  Biso   1.000  C
  C201     1.0000 0.29370  0.43080  0.67317  Biso   1.000  C
  C202     1.0000 0.30300  0.36690  0.71580  Biso   1.000  C
  C203     1.0000 0.20110  0.36640  0.57815  Biso   1.000  C
  C204     1.0000 0.12990  0.30290  0.57680  Biso   1.000  C
  C205     1.0000 0.17840  0.38780  0.60320  Biso   1.000  C
  C206     1.0000 0.12940  0.36840  0.61620  Biso   1.000  C
  C207     1.0000 0.17620  0.32300  0.56565  Biso   1.000  C
  C208     1.0000 0.10740  0.32570  0.60270  Biso   1.000  C
  C209     1.0000 0.32200  0.38650  0.68924  Biso   1.000  C
  N19      1.0000 0.06060  0.30510  0.61770  Biso   1.000  N
  O115     1.0000 0.68180  0.75560  0.03064  Biso   1.000  O
  O116     1.0000 0.68090  0.94764  0.14220  Biso   1.000  O
  O117     1.0000 0.74250  0.81565  0.03017  Biso   1.000  O
  O118     1.0000 0.75550  0.94712  0.18633  Biso   1.000  O
  O119     1.0000 0.81614  0.94636  0.14990  Biso   1.000  O
  O120     1.0000 0.74180  0.94741  0.10697  Biso   1.000  O
  C210     1.0000 0.70400  0.93170  0.11980  Biso   1.000  C
  C211     1.0000 0.70330  0.79550  0.03981  Biso   1.000  C
  C212     1.0000 0.79370  0.93080  0.17317  Biso   1.000  C
  C213     1.0000 0.80300  0.86690  0.21580  Biso   1.000  C
  C214     1.0000 0.70110  0.86640  0.07815  Biso   1.000  C
  C215     1.0000 0.62990  0.80290  0.07680  Biso   1.000  C
  C216     1.0000 0.67840  0.88780  0.10320  Biso   1.000  C
  C217     1.0000 0.62940  0.86840  0.11620  Biso   1.000  C
  C218     1.0000 0.67620  0.82300  0.06565  Biso   1.000  C
  C219     1.0000 0.60740  0.82570  0.10270  Biso   1.000  C
  C220     1.0000 0.82200  0.88650  0.18924  Biso   1.000  C
  N20      1.0000 0.56060  0.80510  0.11770  Biso   1.000  N
  O121     1.0000 0.25560  0.81820  0.53064  Biso   1.000  O
  O122     1.0000 0.44764  0.81910  0.64220  Biso   1.000  O
  O123     1.0000 0.31565  0.75750  0.53017  Biso   1.000  O
  O124     1.0000 0.44712  0.74450  0.68633  Biso   1.000  O
  O125     1.0000 0.44636  0.68386  0.64990  Biso   1.000  O
  O126     1.0000 0.44741  0.75820  0.60697  Biso   1.000  O
  C221     1.0000 0.43170  0.79600  0.61980  Biso   1.000  C
  C222     1.0000 0.29550  0.79670  0.53981  Biso   1.000  C
  C223     1.0000 0.43080  0.70630  0.67317  Biso   1.000  C
  C224     1.0000 0.36690  0.69700  0.71580  Biso   1.000  C
  C225     1.0000 0.36640  0.79890  0.57815  Biso   1.000  C
  C226     1.0000 0.30290  0.87010  0.57680  Biso   1.000  C
  C227     1.0000 0.38780  0.82160  0.60320  Biso   1.000  C
  C228     1.0000 0.36840  0.87060  0.61620  Biso   1.000  C
  C229     1.0000 0.32300  0.82380  0.56565  Biso   1.000  C
  C230     1.0000 0.32570  0.89260  0.60270  Biso   1.000  C
  C231     1.0000 0.38650  0.67800  0.68924  Biso   1.000  C
  N21      1.0000 0.30510  0.93940  0.61770  Biso   1.000  N
  O127     1.0000 0.75560  0.31820  0.03064  Biso   1.000  O
  O128     1.0000 0.94764  0.31910  0.14220  Biso   1.000  O
  O129     1.0000 0.81565  0.25750  0.03017  Biso   1.000  O
  O130     1.0000 0.94712  0.24450  0.18633  Biso   1.000  O
  O131     1.0000 0.94636  0.18386  0.14990  Biso   1.000  O
  O132     1.0000 0.94741  0.25820  0.10697  Biso   1.000  O
  C232     1.0000 0.93170  0.29600  0.11980  Biso   1.000  C
  C233     1.0000 0.79550  0.29670  0.03981  Biso   1.000  C
  C234     1.0000 0.93080  0.20630  0.17317  Biso   1.000  C
  C235     1.0000 0.86690  0.19700  0.21580  Biso   1.000  C
  C236     1.0000 0.86640  0.29890  0.07815  Biso   1.000  C
  C237     1.0000 0.80290  0.37010  0.07680  Biso   1.000  C
  C238     1.0000 0.88780  0.32160  0.10320  Biso   1.000  C
  C239     1.0000 0.86840  0.37060  0.11620  Biso   1.000  C
  C240     1.0000 0.82300  0.32380  0.06565  Biso   1.000  C
  C241     1.0000 0.82570  0.39260  0.10270  Biso   1.000  C
  C242     1.0000 0.88650  0.17800  0.18924  Biso   1.000  C
  N22      1.0000 0.80510  0.43940  0.11770  Biso   1.000  N
  O133     1.0000 0.74440  0.18180  0.53064  Biso   1.000  O
  O134     1.0000 0.55236  0.18090  0.64220  Biso   1.000  O
  O135     1.0000 0.68435  0.24250  0.53017  Biso   1.000  O
  O136     1.0000 0.55288  0.25550  0.68633  Biso   1.000  O
  O137     1.0000 0.55364  0.31614  0.64990  Biso   1.000  O
  O138     1.0000 0.55259  0.24180  0.60697  Biso   1.000  O
  C243     1.0000 0.56830  0.20400  0.61980  Biso   1.000  C
  C244     1.0000 0.70450  0.20330  0.53981  Biso   1.000  C
  C245     1.0000 0.56920  0.29370  0.67317  Biso   1.000  C
  C246     1.0000 0.63310  0.30300  0.71580  Biso   1.000  C
  C247     1.0000 0.63360  0.20110  0.57815  Biso   1.000  C
  C248     1.0000 0.69710  0.12990  0.57680  Biso   1.000  C
  C249     1.0000 0.61220  0.17840  0.60320  Biso   1.000  C
  C250     1.0000 0.63160  0.12940  0.61620  Biso   1.000  C
  C251     1.0000 0.67700  0.17620  0.56565  Biso   1.000  C
  C252     1.0000 0.67430  0.10740  0.60270  Biso   1.000  C
  C253     1.0000 0.61350  0.32200  0.68924  Biso   1.000  C
  N23      1.0000 0.69490  0.06060  0.61770  Biso   1.000  N
  O139     1.0000 0.24440  0.68180  0.03064  Biso   1.000  O
  O140     1.0000 0.05236  0.68090  0.14220  Biso   1.000  O
  O141     1.0000 0.18435  0.74250  0.03017  Biso   1.000  O
  O142     1.0000 0.05288  0.75550  0.18633  Biso   1.000  O
  O143     1.0000 0.05364  0.81614  0.14990  Biso   1.000  O
  O144     1.0000 0.05259  0.74180  0.10697  Biso   1.000  O
  C254     1.0000 0.06830  0.70400  0.11980  Biso   1.000  C
  C255     1.0000 0.20450  0.70330  0.03981  Biso   1.000  C
  C256     1.0000 0.06920  0.79370  0.17317  Biso   1.000  C
  C257     1.0000 0.13310  0.80300  0.21580  Biso   1.000  C
  C258     1.0000 0.13360  0.70110  0.07815  Biso   1.000  C
  C259     1.0000 0.19710  0.62990  0.07680  Biso   1.000  C
  C260     1.0000 0.11220  0.67840  0.10320  Biso   1.000  C
  C261     1.0000 0.13160  0.62940  0.11620  Biso   1.000  C
  C262     1.0000 0.17700  0.67620  0.06565  Biso   1.000  C
  C263     1.0000 0.17430  0.60740  0.10270  Biso   1.000  C
  C264     1.0000 0.11350  0.82200  0.18924  Biso   1.000  C
  N24      1.0000 0.19490  0.56060  0.11770  Biso   1.000  N
  O145     1.0000 0.18180  0.74440  0.46936  Biso   1.000  O
  O146     1.0000 0.18090  0.55236  0.35780  Biso   1.000  O
  O147     1.0000 0.24250  0.68435  0.46983  Biso   1.000  O
  O148     1.0000 0.25550  0.55288  0.31367  Biso   1.000  O
  O149     1.0000 0.31614  0.55364  0.35010  Biso   1.000  O
  O150     1.0000 0.24180  0.55259  0.39303  Biso   1.000  O
  C265     1.0000 0.20400  0.56830  0.38020  Biso   1.000  C
  C266     1.0000 0.20330  0.70450  0.46019  Biso   1.000  C
  C267     1.0000 0.29370  0.56920  0.32683  Biso   1.000  C
  C268     1.0000 0.30300  0.63310  0.28420  Biso   1.000  C
  C269     1.0000 0.20110  0.63360  0.42185  Biso   1.000  C
  C270     1.0000 0.12990  0.69710  0.42320  Biso   1.000  C
  C271     1.0000 0.17840  0.61220  0.39680  Biso   1.000  C
  C272     1.0000 0.12940  0.63160  0.38380  Biso   1.000  C
  C273     1.0000 0.17620  0.67700  0.43435  Biso   1.000  C
  C274     1.0000 0.10740  0.67430  0.39730  Biso   1.000  C
  C275     1.0000 0.32200  0.61350  0.31076  Biso   1.000  C
  N25      1.0000 0.06060  0.69490  0.38230  Biso   1.000  N
  O151     1.0000 0.68180  0.24440  0.96936  Biso   1.000  O
  O152     1.0000 0.68090  0.05236  0.85780  Biso   1.000  O
  O153     1.0000 0.74250  0.18435  0.96983  Biso   1.000  O
  O154     1.0000 0.75550  0.05288  0.81367  Biso   1.000  O
  O155     1.0000 0.81614  0.05364  0.85010  Biso   1.000  O
  O156     1.0000 0.74180  0.05259  0.89303  Biso   1.000  O
  C276     1.0000 0.70400  0.06830  0.88020  Biso   1.000  C
  C277     1.0000 0.70330  0.20450  0.96019  Biso   1.000  C
  C278     1.0000 0.79370  0.06920  0.82683  Biso   1.000  C
  C279     1.0000 0.80300  0.13310  0.78420  Biso   1.000  C
  C280     1.0000 0.70110  0.13360  0.92185  Biso   1.000  C
  C281     1.0000 0.62990  0.19710  0.92320  Biso   1.000  C
  C282     1.0000 0.67840  0.11220  0.89680  Biso   1.000  C
  C283     1.0000 0.62940  0.13160  0.88380  Biso   1.000  C
  C284     1.0000 0.67620  0.17700  0.93435  Biso   1.000  C
  C285     1.0000 0.60740  0.17430  0.89730  Biso   1.000  C
  C286     1.0000 0.82200  0.11350  0.81076  Biso   1.000  C
  N26      1.0000 0.56060  0.19490  0.88230  Biso   1.000  N
  O157     1.0000 0.81820  0.25560  0.46936  Biso   1.000  O
  O158     1.0000 0.81910  0.44764  0.35780  Biso   1.000  O
  O159     1.0000 0.75750  0.31565  0.46983  Biso   1.000  O
  O160     1.0000 0.74450  0.44712  0.31367  Biso   1.000  O
  O161     1.0000 0.68386  0.44636  0.35010  Biso   1.000  O
  O162     1.0000 0.75820  0.44741  0.39303  Biso   1.000  O
  C287     1.0000 0.79600  0.43170  0.38020  Biso   1.000  C
  C288     1.0000 0.79670  0.29550  0.46019  Biso   1.000  C
  C289     1.0000 0.70630  0.43080  0.32683  Biso   1.000  C
  C290     1.0000 0.69700  0.36690  0.28420  Biso   1.000  C
  C291     1.0000 0.79890  0.36640  0.42185  Biso   1.000  C
  C292     1.0000 0.87010  0.30290  0.42320  Biso   1.000  C
  C293     1.0000 0.82160  0.38780  0.39680  Biso   1.000  C
  C294     1.0000 0.87060  0.36840  0.38380  Biso   1.000  C
  C295     1.0000 0.82380  0.32300  0.43435  Biso   1.000  C
  C296     1.0000 0.89260  0.32570  0.39730  Biso   1.000  C
  C297     1.0000 0.67800  0.38650  0.31076  Biso   1.000  C
  N27      1.0000 0.93940  0.30510  0.38230  Biso   1.000  N
  O163     1.0000 0.31820  0.75560  0.96936  Biso   1.000  O
  O164     1.0000 0.31910  0.94764  0.85780  Biso   1.000  O
  O165     1.0000 0.25750  0.81565  0.96983  Biso   1.000  O
  O166     1.0000 0.24450  0.94712  0.81367  Biso   1.000  O
  O167     1.0000 0.18386  0.94636  0.85010  Biso   1.000  O
  O168     1.0000 0.25820  0.94741  0.89303  Biso   1.000  O
  C298     1.0000 0.29600  0.93170  0.88020  Biso   1.000  C
  C299     1.0000 0.29670  0.79550  0.96019  Biso   1.000  C
  C300     1.0000 0.20630  0.93080  0.82683  Biso   1.000  C
  C301     1.0000 0.19700  0.86690  0.78420  Biso   1.000  C
  C302     1.0000 0.29890  0.86640  0.92185  Biso   1.000  C
  C303     1.0000 0.37010  0.80290  0.92320  Biso   1.000  C
  C304     1.0000 0.32160  0.88780  0.89680  Biso   1.000  C
  C305     1.0000 0.37060  0.86840  0.88380  Biso   1.000  C
  C306     1.0000 0.32380  0.82300  0.93435  Biso   1.000  C
  C307     1.0000 0.39260  0.82570  0.89730  Biso   1.000  C
  C308     1.0000 0.17800  0.88650  0.81076  Biso   1.000  C
  N28      1.0000 0.43940  0.80510  0.88230  Biso   1.000  N
  O169     1.0000 0.74440  0.81820  0.46936  Biso   1.000  O
  O170     1.0000 0.55236  0.81910  0.35780  Biso   1.000  O
  O171     1.0000 0.68435  0.75750  0.46983  Biso   1.000  O
  O172     1.0000 0.55288  0.74450  0.31367  Biso   1.000  O
  O173     1.0000 0.55364  0.68386  0.35010  Biso   1.000  O
  O174     1.0000 0.55259  0.75820  0.39303  Biso   1.000  O
  C309     1.0000 0.56830  0.79600  0.38020  Biso   1.000  C
  C310     1.0000 0.70450  0.79670  0.46019  Biso   1.000  C
  C311     1.0000 0.56920  0.70630  0.32683  Biso   1.000  C
  C312     1.0000 0.63310  0.69700  0.28420  Biso   1.000  C
  C313     1.0000 0.63360  0.79890  0.42185  Biso   1.000  C
  C314     1.0000 0.69710  0.87010  0.42320  Biso   1.000  C
  C315     1.0000 0.61220  0.82160  0.39680  Biso   1.000  C
  C316     1.0000 0.63160  0.87060  0.38380  Biso   1.000  C
  C317     1.0000 0.67700  0.82380  0.43435  Biso   1.000  C
  C318     1.0000 0.67430  0.89260  0.39730  Biso   1.000  C
  C319     1.0000 0.61350  0.67800  0.31076  Biso   1.000  C
  N29      1.0000 0.69490  0.93940  0.38230  Biso   1.000  N
  O175     1.0000 0.24440  0.31820  0.96936  Biso   1.000  O
  O176     1.0000 0.05236  0.31910  0.85780  Biso   1.000  O
  O177     1.0000 0.18435  0.25750  0.96983  Biso   1.000  O
  O178     1.0000 0.05288  0.24450  0.81367  Biso   1.000  O
  O179     1.0000 0.05364  0.18386  0.85010  Biso   1.000  O
  O180     1.0000 0.05259  0.25820  0.89303  Biso   1.000  O
  C320     1.0000 0.06830  0.29600  0.88020  Biso   1.000  C
  C321     1.0000 0.20450  0.29670  0.96019  Biso   1.000  C
  C322     1.0000 0.06920  0.20630  0.82683  Biso   1.000  C
  C323     1.0000 0.13310  0.19700  0.78420  Biso   1.000  C
  C324     1.0000 0.13360  0.29890  0.92185  Biso   1.000  C
  C325     1.0000 0.19710  0.37010  0.92320  Biso   1.000  C
  C326     1.0000 0.11220  0.32160  0.89680  Biso   1.000  C
  C327     1.0000 0.13160  0.37060  0.88380  Biso   1.000  C
  C328     1.0000 0.17700  0.32380  0.93435  Biso   1.000  C
  C329     1.0000 0.17430  0.39260  0.89730  Biso   1.000  C
  C330     1.0000 0.11350  0.17800  0.81076  Biso   1.000  C
  N30      1.0000 0.19490  0.43940  0.88230  Biso   1.000  N
  O181     1.0000 0.25560  0.18180  0.46936  Biso   1.000  O
  O182     1.0000 0.44764  0.18090  0.35780  Biso   1.000  O
  O183     1.0000 0.31565  0.24250  0.46983  Biso   1.000  O
  O184     1.0000 0.44712  0.25550  0.31367  Biso   1.000  O
  O185     1.0000 0.44636  0.31614  0.35010  Biso   1.000  O
  O186     1.0000 0.44741  0.24180  0.39303  Biso   1.000  O
  C331     1.0000 0.43170  0.20400  0.38020  Biso   1.000  C
  C332     1.0000 0.29550  0.20330  0.46019  Biso   1.000  C
  C333     1.0000 0.43080  0.29370  0.32683  Biso   1.000  C
  C334     1.0000 0.36690  0.30300  0.28420  Biso   1.000  C
  C335     1.0000 0.36640  0.20110  0.42185  Biso   1.000  C
  C336     1.0000 0.30290  0.12990  0.42320  Biso   1.000  C
  C337     1.0000 0.38780  0.17840  0.39680  Biso   1.000  C
  C338     1.0000 0.36840  0.12940  0.38380  Biso   1.000  C
  C339     1.0000 0.32300  0.17620  0.43435  Biso   1.000  C
  C340     1.0000 0.32570  0.10740  0.39730  Biso   1.000  C
  C341     1.0000 0.38650  0.32200  0.31076  Biso   1.000  C
  N31      1.0000 0.30510  0.06060  0.38230  Biso   1.000  N
  O187     1.0000 0.75560  0.68180  0.96936  Biso   1.000  O
  O188     1.0000 0.94764  0.68090  0.85780  Biso   1.000  O
  O189     1.0000 0.81565  0.74250  0.96983  Biso   1.000  O
  O190     1.0000 0.94712  0.75550  0.81367  Biso   1.000  O
  O191     1.0000 0.94636  0.81614  0.85010  Biso   1.000  O
  O192     1.0000 0.94741  0.74180  0.89303  Biso   1.000  O
  C342     1.0000 0.93170  0.70400  0.88020  Biso   1.000  C
  C343     1.0000 0.79550  0.70330  0.96019  Biso   1.000  C
  C344     1.0000 0.93080  0.79370  0.82683  Biso   1.000  C
  C345     1.0000 0.86690  0.80300  0.78420  Biso   1.000  C
  C346     1.0000 0.86640  0.70110  0.92185  Biso   1.000  C
  C347     1.0000 0.80290  0.62990  0.92320  Biso   1.000  C
  C348     1.0000 0.88780  0.67840  0.89680  Biso   1.000  C
  C349     1.0000 0.86840  0.62940  0.88380  Biso   1.000  C
  C350     1.0000 0.82300  0.67620  0.93435  Biso   1.000  C
  C351     1.0000 0.82570  0.60740  0.89730  Biso   1.000  C
  C352     1.0000 0.88650  0.82200  0.81076  Biso   1.000  C
  N32      1.0000 0.80510  0.56060  0.88230  Biso   1.000  N
  Cu1      1.0000 0.21324  0.21324  0.50000  Biso   1.000  Cu
  Cu2      1.0000 0.28471  0.28471  0.50000  Biso   1.000  Cu
  Cu3      1.0000 0.71324  0.71324  0.00000  Biso   1.000  Cu
  Cu4      1.0000 0.78471  0.78471  0.00000  Biso   1.000  Cu
  Cu5      1.0000 0.78676  0.78676  0.50000  Biso   1.000  Cu
  Cu6      1.0000 0.71529  0.71529  0.50000  Biso   1.000  Cu
  Cu7      1.0000 0.28676  0.28676  0.00000  Biso   1.000  Cu
  Cu8      1.0000 0.21529  0.21529  0.00000  Biso   1.000  Cu
  Cu9      1.0000 0.78676  0.21324  0.50000  Biso   1.000  Cu
  Cu10     1.0000 0.71529  0.28471  0.50000  Biso   1.000  Cu
  Cu11     1.0000 0.28676  0.71324  0.00000  Biso   1.000  Cu
  Cu12     1.0000 0.21529  0.78471  0.00000  Biso   1.000  Cu
  Cu13     1.0000 0.21324  0.78676  0.50000  Biso   1.000  Cu
  Cu14     1.0000 0.28471  0.71529  0.50000  Biso   1.000  Cu
  Cu15     1.0000 0.71324  0.28676  0.00000  Biso   1.000  Cu
  Cu16     1.0000 0.78471  0.21529  0.00000  Biso   1.000  Cu
  Cu17     1.0000 0.28455  0.50000  0.37413  Biso   1.000  Cu
  Cu18     1.0000 0.21313  0.50000  0.33255  Biso   1.000  Cu
  Cu19     1.0000 0.78455  0.00000  0.87413  Biso   1.000  Cu
  Cu20     1.0000 0.71313  0.00000  0.83255  Biso   1.000  Cu
  Cu21     1.0000 0.71545  0.50000  0.37413  Biso   1.000  Cu
  Cu22     1.0000 0.78687  0.50000  0.33255  Biso   1.000  Cu
  Cu23     1.0000 0.21545  0.00000  0.87413  Biso   1.000  Cu
  Cu24     1.0000 0.28687  0.00000  0.83255  Biso   1.000  Cu
  Cu25     1.0000 0.50000  0.28455  0.37413  Biso   1.000  Cu
  Cu26     1.0000 0.50000  0.21313  0.33255  Biso   1.000  Cu
  Cu27     1.0000 0.00000  0.78455  0.87413  Biso   1.000  Cu
  Cu28     1.0000 0.00000  0.71313  0.83255  Biso   1.000  Cu
  Cu29     1.0000 0.50000  0.71545  0.37413  Biso   1.000  Cu
  Cu30     1.0000 0.50000  0.78687  0.33255  Biso   1.000  Cu
  Cu31     1.0000 0.00000  0.21545  0.87413  Biso   1.000  Cu
  Cu32     1.0000 0.00000  0.28687  0.83255  Biso   1.000  Cu
  Cu33     1.0000 0.71545  0.50000  0.62587  Biso   1.000  Cu
  Cu34     1.0000 0.78687  0.50000  0.66745  Biso   1.000  Cu
  Cu35     1.0000 0.21545  0.00000  0.12587  Biso   1.000  Cu
  Cu36     1.0000 0.28687  0.00000  0.16745  Biso   1.000  Cu
  Cu37     1.0000 0.28455  0.50000  0.62587  Biso   1.000  Cu
  Cu38     1.0000 0.21313  0.50000  0.66745  Biso   1.000  Cu
  Cu39     1.0000 0.78455  0.00000  0.12587  Biso   1.000  Cu
  Cu40     1.0000 0.71313  0.00000  0.16745  Biso   1.000  Cu
  Cu41     1.0000 0.50000  0.28455  0.62587  Biso   1.000  Cu
  Cu42     1.0000 0.50000  0.21313  0.66745  Biso   1.000  Cu
  Cu43     1.0000 0.00000  0.78455  0.12587  Biso   1.000  Cu
  Cu44     1.0000 0.00000  0.71313  0.16745  Biso   1.000  Cu
  Cu45     1.0000 0.50000  0.71545  0.62587  Biso   1.000  Cu
  Cu46     1.0000 0.50000  0.78687  0.66745  Biso   1.000  Cu
  Cu47     1.0000 0.00000  0.21545  0.12587  Biso   1.000  Cu
  Cu48     1.0000 0.00000  0.28687  0.16745  Biso   1.000  Cu
  N33      1.0000 0.30330  0.30330  0.24360  Biso   1.000  N
  C353     1.0000 0.36430  0.36430  0.32500  Biso   1.000  C
  C354     1.0000 0.32650  0.32650  0.27010  Biso   1.000  C
  N34      1.0000 0.80330  0.80330  0.74360  Biso   1.000  N
  C355     1.0000 0.86430  0.86430  0.82500  Biso   1.000  C
  C356     1.0000 0.82650  0.82650  0.77010  Biso   1.000  C
  N35      1.0000 0.69670  0.69670  0.24360  Biso   1.000  N
  C357     1.0000 0.63570  0.63570  0.32500  Biso   1.000  C
  C358     1.0000 0.67350  0.67350  0.27010  Biso   1.000  C
  N36      1.0000 0.19670  0.19670  0.74360  Biso   1.000  N
  C359     1.0000 0.13570  0.13570  0.82500  Biso   1.000  C
  C360     1.0000 0.17350  0.17350  0.77010  Biso   1.000  C
  N37      1.0000 0.69670  0.30330  0.24360  Biso   1.000  N
  C361     1.0000 0.63570  0.36430  0.32500  Biso   1.000  C
  C362     1.0000 0.67350  0.32650  0.27010  Biso   1.000  C
  N38      1.0000 0.19670  0.80330  0.74360  Biso   1.000  N
  C363     1.0000 0.13570  0.86430  0.82500  Biso   1.000  C
  C364     1.0000 0.17350  0.82650  0.77010  Biso   1.000  C
  N39      1.0000 0.30330  0.69670  0.24360  Biso   1.000  N
  C365     1.0000 0.36430  0.63570  0.32500  Biso   1.000  C
  C366     1.0000 0.32650  0.67350  0.27010  Biso   1.000  C
  N40      1.0000 0.80330  0.19670  0.74360  Biso   1.000  N
  C367     1.0000 0.86430  0.13570  0.82500  Biso   1.000  C
  C368     1.0000 0.82650  0.17350  0.77010  Biso   1.000  C
  N41      1.0000 0.69670  0.30330  0.75640  Biso   1.000  N
  C369     1.0000 0.63570  0.36430  0.67500  Biso   1.000  C
  C370     1.0000 0.67350  0.32650  0.72990  Biso   1.000  C
  N42      1.0000 0.19670  0.80330  0.25640  Biso   1.000  N
  C371     1.0000 0.13570  0.86430  0.17500  Biso   1.000  C
  C372     1.0000 0.17350  0.82650  0.22990  Biso   1.000  C
  N43      1.0000 0.30330  0.69670  0.75640  Biso   1.000  N
  C373     1.0000 0.36430  0.63570  0.67500  Biso   1.000  C
  C374     1.0000 0.32650  0.67350  0.72990  Biso   1.000  C
  N44      1.0000 0.80330  0.19670  0.25640  Biso   1.000  N
  C375     1.0000 0.86430  0.13570  0.17500  Biso   1.000  C
  C376     1.0000 0.82650  0.17350  0.22990  Biso   1.000  C
  N45      1.0000 0.30330  0.30330  0.75640  Biso   1.000  N
  C377     1.0000 0.36430  0.36430  0.67500  Biso   1.000  C
  C378     1.0000 0.32650  0.32650  0.72990  Biso   1.000  C
  N46      1.0000 0.80330  0.80330  0.25640  Biso   1.000  N
  C379     1.0000 0.86430  0.86430  0.17500  Biso   1.000  C
  C380     1.0000 0.82650  0.82650  0.22990  Biso   1.000  C
  N47      1.0000 0.69670  0.69670  0.75640  Biso   1.000  N
  C381     1.0000 0.63570  0.63570  0.67500  Biso   1.000  C
  C382     1.0000 0.67350  0.67350  0.72990  Biso   1.000  C
  N48      1.0000 0.19670  0.19670  0.25640  Biso   1.000  N
  C383     1.0000 0.13570  0.13570  0.17500  Biso   1.000  C
  C384     1.0000 0.17350  0.17350  0.22990  Biso   1.000  C
  Cu49     1.0000 0.25000  0.25000  0.25000  Biso   1.000  Cu
  Cu50     1.0000 0.75000  0.75000  0.25000  Biso   1.000  Cu
  Cu51     1.0000 0.75000  0.25000  0.25000  Biso   1.000  Cu
  Cu52     1.0000 0.25000  0.75000  0.25000  Biso   1.000  Cu
  Cu53     1.0000 0.75000  0.25000  0.75000  Biso   1.000  Cu
  Cu54     1.0000 0.25000  0.75000  0.75000  Biso   1.000  Cu
  Cu55     1.0000 0.25000  0.25000  0.75000  Biso   1.000  Cu
  Cu56     1.0000 0.75000  0.75000  0.75000  Biso   1.000  Cu
