data_image0
_cell_length_a       8.274
_cell_length_b       20.563
_cell_length_c       54.367
_cell_angle_alpha    90
_cell_angle_beta     90
_cell_angle_gamma    90

_symmetry_space_group_name_H-M    "P 1"
_symmetry_int_tables_number       1

loop_
  _symmetry_equiv_pos_as_xyz
  'x, y, z'

loop_
  _atom_site_label
  _atom_site_occupancy
  _atom_site_fract_x
  _atom_site_fract_y
  _atom_site_fract_z
  _atom_site_thermal_displace_type
  _atom_site_B_iso_or_equiv
  _atom_site_type_symbol
  N1       1.0000 0.12070  0.19925  0.59671  Biso   1.000  N
  C1       1.0000 0.13550  0.29150  0.55883  Biso   1.000  C
  C2       1.0000 0.13830  0.33890  0.53829  Biso   1.000  C
  N2       1.0000 0.23300  0.25654  0.51078  Biso   1.000  N
  N3       1.0000 0.13040  0.42940  0.49970  Biso   1.000  N
  C3       1.0000 0.17330  0.36760  0.49589  Biso   1.000  C
  H1       1.0000 0.20040  0.35490  0.48000  Biso   1.000  H
  C4       1.0000 0.17930  0.32150  0.51453  Biso   1.000  C
  C5       1.0000 0.03360  0.23670  0.55733  Biso   1.000  C
  H2       1.0000 0.96870  0.23020  0.54360  Biso   1.000  H
  C6       1.0000 0.09760  0.44670  0.52202  Biso   1.000  C
  H3       1.0000 0.07140  0.49000  0.52490  Biso   1.000  H
  C7       1.0000 0.09940  0.40370  0.54215  Biso   1.000  C
  H4       1.0000 0.07470  0.41850  0.55790  Biso   1.000  H
  C8       1.0000 0.03180  0.19270  0.57655  Biso   1.000  C
  H5       1.0000 0.96450  0.15660  0.57530  Biso   1.000  H
  C9       1.0000 0.21910  0.29870  0.57975  Biso   1.000  C
  H6       1.0000 0.28360  0.33530  0.58190  Biso   1.000  H
  C10      1.0000 0.21150  0.25290  0.59825  Biso   1.000  C
  H7       1.0000 0.27230  0.25960  0.61240  Biso   1.000  H
  N4       1.0000 0.12070  0.69925  0.09671  Biso   1.000  N
  C11      1.0000 0.13550  0.79150  0.05883  Biso   1.000  C
  C12      1.0000 0.13830  0.83890  0.03829  Biso   1.000  C
  N5       1.0000 0.23300  0.75654  0.01078  Biso   1.000  N
  N6       1.0000 0.13040  0.92940  0.99970  Biso   1.000  N
  C13      1.0000 0.17330  0.86760  0.99589  Biso   1.000  C
  H8       1.0000 0.20040  0.85490  0.98000  Biso   1.000  H
  C14      1.0000 0.17930  0.82150  0.01453  Biso   1.000  C
  C15      1.0000 0.03360  0.73670  0.05733  Biso   1.000  C
  H9       1.0000 0.96870  0.73020  0.04360  Biso   1.000  H
  C16      1.0000 0.09760  0.94670  0.02202  Biso   1.000  C
  H10      1.0000 0.07140  0.99000  0.02490  Biso   1.000  H
  C17      1.0000 0.09940  0.90370  0.04215  Biso   1.000  C
  H11      1.0000 0.07470  0.91850  0.05790  Biso   1.000  H
  C18      1.0000 0.03180  0.69270  0.07655  Biso   1.000  C
  H12      1.0000 0.96450  0.65660  0.07530  Biso   1.000  H
  C19      1.0000 0.21910  0.79870  0.07975  Biso   1.000  C
  H13      1.0000 0.28360  0.83530  0.08190  Biso   1.000  H
  C20      1.0000 0.21150  0.75290  0.09825  Biso   1.000  C
  H14      1.0000 0.27230  0.75960  0.11240  Biso   1.000  H
  N7       1.0000 0.62070  0.19925  0.09671  Biso   1.000  N
  C21      1.0000 0.63550  0.29150  0.05883  Biso   1.000  C
  C22      1.0000 0.63830  0.33890  0.03829  Biso   1.000  C
  N8       1.0000 0.73300  0.25654  0.01078  Biso   1.000  N
  N9       1.0000 0.63040  0.42940  0.99970  Biso   1.000  N
  C23      1.0000 0.67330  0.36760  0.99589  Biso   1.000  C
  H15      1.0000 0.70040  0.35490  0.98000  Biso   1.000  H
  C24      1.0000 0.67930  0.32150  0.01453  Biso   1.000  C
  C25      1.0000 0.53360  0.23670  0.05733  Biso   1.000  C
  H16      1.0000 0.46870  0.23020  0.04360  Biso   1.000  H
  C26      1.0000 0.59760  0.44670  0.02202  Biso   1.000  C
  H17      1.0000 0.57140  0.49000  0.02490  Biso   1.000  H
  C27      1.0000 0.59940  0.40370  0.04215  Biso   1.000  C
  H18      1.0000 0.57470  0.41850  0.05790  Biso   1.000  H
  C28      1.0000 0.53180  0.19270  0.07655  Biso   1.000  C
  H19      1.0000 0.46450  0.15660  0.07530  Biso   1.000  H
  C29      1.0000 0.71910  0.29870  0.07975  Biso   1.000  C
  H20      1.0000 0.78360  0.33530  0.08190  Biso   1.000  H
  C30      1.0000 0.71150  0.25290  0.09825  Biso   1.000  C
  H21      1.0000 0.77230  0.25960  0.11240  Biso   1.000  H
  N10      1.0000 0.62070  0.69925  0.59671  Biso   1.000  N
  C31      1.0000 0.63550  0.79150  0.55883  Biso   1.000  C
  C32      1.0000 0.63830  0.83890  0.53829  Biso   1.000  C
  N11      1.0000 0.73300  0.75654  0.51078  Biso   1.000  N
  N12      1.0000 0.63040  0.92940  0.49970  Biso   1.000  N
  C33      1.0000 0.67330  0.86760  0.49589  Biso   1.000  C
  H22      1.0000 0.70040  0.85490  0.48000  Biso   1.000  H
  C34      1.0000 0.67930  0.82150  0.51453  Biso   1.000  C
  C35      1.0000 0.53360  0.73670  0.55733  Biso   1.000  C
  H23      1.0000 0.46870  0.73020  0.54360  Biso   1.000  H
  C36      1.0000 0.59760  0.94670  0.52202  Biso   1.000  C
  H24      1.0000 0.57140  0.99000  0.52490  Biso   1.000  H
  C37      1.0000 0.59940  0.90370  0.54215  Biso   1.000  C
  H25      1.0000 0.57470  0.91850  0.55790  Biso   1.000  H
  C38      1.0000 0.53180  0.69270  0.57655  Biso   1.000  C
  H26      1.0000 0.46450  0.65660  0.57530  Biso   1.000  H
  C39      1.0000 0.71910  0.79870  0.57975  Biso   1.000  C
  H27      1.0000 0.78360  0.83530  0.58190  Biso   1.000  H
  C40      1.0000 0.71150  0.75290  0.59825  Biso   1.000  C
  H28      1.0000 0.77230  0.75960  0.61240  Biso   1.000  H
  N13      1.0000 0.62930  0.55075  0.59671  Biso   1.000  N
  C41      1.0000 0.61450  0.45850  0.55883  Biso   1.000  C
  C42      1.0000 0.61170  0.41110  0.53829  Biso   1.000  C
  N14      1.0000 0.51700  0.49346  0.51078  Biso   1.000  N
  N15      1.0000 0.61960  0.32060  0.49970  Biso   1.000  N
  C43      1.0000 0.57670  0.38240  0.49589  Biso   1.000  C
  H29      1.0000 0.54960  0.39510  0.48000  Biso   1.000  H
  C44      1.0000 0.57070  0.42850  0.51453  Biso   1.000  C
  C45      1.0000 0.71640  0.51330  0.55733  Biso   1.000  C
  H30      1.0000 0.78130  0.51980  0.54360  Biso   1.000  H
  C46      1.0000 0.65240  0.30330  0.52202  Biso   1.000  C
  H31      1.0000 0.67860  0.26000  0.52490  Biso   1.000  H
  C47      1.0000 0.65060  0.34630  0.54215  Biso   1.000  C
  H32      1.0000 0.67530  0.33150  0.55790  Biso   1.000  H
  C48      1.0000 0.71820  0.55730  0.57655  Biso   1.000  C
  H33      1.0000 0.78550  0.59340  0.57530  Biso   1.000  H
  C49      1.0000 0.53090  0.45130  0.57975  Biso   1.000  C
  H34      1.0000 0.46640  0.41470  0.58190  Biso   1.000  H
  C50      1.0000 0.53850  0.49710  0.59825  Biso   1.000  C
  H35      1.0000 0.47770  0.49040  0.61240  Biso   1.000  H
  N16      1.0000 0.62930  0.05075  0.09671  Biso   1.000  N
  C51      1.0000 0.61450  0.95850  0.05883  Biso   1.000  C
  C52      1.0000 0.61170  0.91110  0.03829  Biso   1.000  C
  N17      1.0000 0.51700  0.99346  0.01078  Biso   1.000  N
  N18      1.0000 0.61960  0.82060  0.99970  Biso   1.000  N
  C53      1.0000 0.57670  0.88240  0.99589  Biso   1.000  C
  H36      1.0000 0.54960  0.89510  0.98000  Biso   1.000  H
  C54      1.0000 0.57070  0.92850  0.01453  Biso   1.000  C
  C55      1.0000 0.71640  0.01330  0.05733  Biso   1.000  C
  H37      1.0000 0.78130  0.01980  0.04360  Biso   1.000  H
  C56      1.0000 0.65240  0.80330  0.02202  Biso   1.000  C
  H38      1.0000 0.67860  0.76000  0.02490  Biso   1.000  H
  C57      1.0000 0.65060  0.84630  0.04215  Biso   1.000  C
  H39      1.0000 0.67530  0.83150  0.05790  Biso   1.000  H
  C58      1.0000 0.71820  0.05730  0.07655  Biso   1.000  C
  H40      1.0000 0.78550  0.09340  0.07530  Biso   1.000  H
  C59      1.0000 0.53090  0.95130  0.07975  Biso   1.000  C
  H41      1.0000 0.46640  0.91470  0.08190  Biso   1.000  H
  C60      1.0000 0.53850  0.99710  0.09825  Biso   1.000  C
  H42      1.0000 0.47770  0.99040  0.11240  Biso   1.000  H
  N19      1.0000 0.12930  0.55075  0.09671  Biso   1.000  N
  C61      1.0000 0.11450  0.45850  0.05883  Biso   1.000  C
  C62      1.0000 0.11170  0.41110  0.03829  Biso   1.000  C
  N20      1.0000 0.01700  0.49346  0.01078  Biso   1.000  N
  N21      1.0000 0.11960  0.32060  0.99970  Biso   1.000  N
  C63      1.0000 0.07670  0.38240  0.99589  Biso   1.000  C
  H43      1.0000 0.04960  0.39510  0.98000  Biso   1.000  H
  C64      1.0000 0.07070  0.42850  0.01453  Biso   1.000  C
  C65      1.0000 0.21640  0.51330  0.05733  Biso   1.000  C
  H44      1.0000 0.28130  0.51980  0.04360  Biso   1.000  H
  C66      1.0000 0.15240  0.30330  0.02202  Biso   1.000  C
  H45      1.0000 0.17860  0.26000  0.02490  Biso   1.000  H
  C67      1.0000 0.15060  0.34630  0.04215  Biso   1.000  C
  H46      1.0000 0.17530  0.33150  0.05790  Biso   1.000  H
  C68      1.0000 0.21820  0.55730  0.07655  Biso   1.000  C
  H47      1.0000 0.28550  0.59340  0.07530  Biso   1.000  H
  C69      1.0000 0.03090  0.45130  0.07975  Biso   1.000  C
  H48      1.0000 0.96640  0.41470  0.08190  Biso   1.000  H
  C70      1.0000 0.03850  0.49710  0.09825  Biso   1.000  C
  H49      1.0000 0.97770  0.49040  0.11240  Biso   1.000  H
  N22      1.0000 0.12930  0.05075  0.59671  Biso   1.000  N
  C71      1.0000 0.11450  0.95850  0.55883  Biso   1.000  C
  C72      1.0000 0.11170  0.91110  0.53829  Biso   1.000  C
  N23      1.0000 0.01700  0.99346  0.51078  Biso   1.000  N
  N24      1.0000 0.11960  0.82060  0.49970  Biso   1.000  N
  C73      1.0000 0.07670  0.88240  0.49589  Biso   1.000  C
  H50      1.0000 0.04960  0.89510  0.48000  Biso   1.000  H
  C74      1.0000 0.07070  0.92850  0.51453  Biso   1.000  C
  C75      1.0000 0.21640  0.01330  0.55733  Biso   1.000  C
  H51      1.0000 0.28130  0.01980  0.54360  Biso   1.000  H
  C76      1.0000 0.15240  0.80330  0.52202  Biso   1.000  C
  H52      1.0000 0.17860  0.76000  0.52490  Biso   1.000  H
  C77      1.0000 0.15060  0.84630  0.54215  Biso   1.000  C
  H53      1.0000 0.17530  0.83150  0.55790  Biso   1.000  H
  C78      1.0000 0.21820  0.05730  0.57655  Biso   1.000  C
  H54      1.0000 0.28550  0.09340  0.57530  Biso   1.000  H
  C79      1.0000 0.03090  0.95130  0.57975  Biso   1.000  C
  H55      1.0000 0.96640  0.91470  0.58190  Biso   1.000  H
  C80      1.0000 0.03850  0.99710  0.59825  Biso   1.000  C
  H56      1.0000 0.97770  0.99040  0.61240  Biso   1.000  H
  N25      1.0000 0.62930  0.19925  0.15329  Biso   1.000  N
  C81      1.0000 0.61450  0.29150  0.19117  Biso   1.000  C
  C82      1.0000 0.61170  0.33890  0.21171  Biso   1.000  C
  N26      1.0000 0.51700  0.25654  0.23922  Biso   1.000  N
  N27      1.0000 0.61960  0.42940  0.25030  Biso   1.000  N
  C83      1.0000 0.57670  0.36760  0.25411  Biso   1.000  C
  H57      1.0000 0.54960  0.35490  0.27000  Biso   1.000  H
  C84      1.0000 0.57070  0.32150  0.23547  Biso   1.000  C
  C85      1.0000 0.71640  0.23670  0.19267  Biso   1.000  C
  H58      1.0000 0.78130  0.23020  0.20640  Biso   1.000  H
  C86      1.0000 0.65240  0.44670  0.22798  Biso   1.000  C
  H59      1.0000 0.67860  0.49000  0.22510  Biso   1.000  H
  C87      1.0000 0.65060  0.40370  0.20785  Biso   1.000  C
  H60      1.0000 0.67530  0.41850  0.19210  Biso   1.000  H
  C88      1.0000 0.71820  0.19270  0.17345  Biso   1.000  C
  H61      1.0000 0.78550  0.15660  0.17470  Biso   1.000  H
  C89      1.0000 0.53090  0.29870  0.17025  Biso   1.000  C
  H62      1.0000 0.46640  0.33530  0.16810  Biso   1.000  H
  C90      1.0000 0.53850  0.25290  0.15175  Biso   1.000  C
  H63      1.0000 0.47770  0.25960  0.13760  Biso   1.000  H
  N28      1.0000 0.62930  0.69925  0.65329  Biso   1.000  N
  C91      1.0000 0.61450  0.79150  0.69117  Biso   1.000  C
  C92      1.0000 0.61170  0.83890  0.71171  Biso   1.000  C
  N29      1.0000 0.51700  0.75654  0.73922  Biso   1.000  N
  N30      1.0000 0.61960  0.92940  0.75030  Biso   1.000  N
  C93      1.0000 0.57670  0.86760  0.75411  Biso   1.000  C
  H64      1.0000 0.54960  0.85490  0.77000  Biso   1.000  H
  C94      1.0000 0.57070  0.82150  0.73547  Biso   1.000  C
  C95      1.0000 0.71640  0.73670  0.69267  Biso   1.000  C
  H65      1.0000 0.78130  0.73020  0.70640  Biso   1.000  H
  C96      1.0000 0.65240  0.94670  0.72798  Biso   1.000  C
  H66      1.0000 0.67860  0.99000  0.72510  Biso   1.000  H
  C97      1.0000 0.65060  0.90370  0.70785  Biso   1.000  C
  H67      1.0000 0.67530  0.91850  0.69210  Biso   1.000  H
  C98      1.0000 0.71820  0.69270  0.67345  Biso   1.000  C
  H68      1.0000 0.78550  0.65660  0.67470  Biso   1.000  H
  C99      1.0000 0.53090  0.79870  0.67025  Biso   1.000  C
  H69      1.0000 0.46640  0.83530  0.66810  Biso   1.000  H
  C100     1.0000 0.53850  0.75290  0.65175  Biso   1.000  C
  H70      1.0000 0.47770  0.75960  0.63760  Biso   1.000  H
  N31      1.0000 0.12930  0.19925  0.65329  Biso   1.000  N
  C101     1.0000 0.11450  0.29150  0.69117  Biso   1.000  C
  C102     1.0000 0.11170  0.33890  0.71171  Biso   1.000  C
  N32      1.0000 0.01700  0.25654  0.73922  Biso   1.000  N
  N33      1.0000 0.11960  0.42940  0.75030  Biso   1.000  N
  C103     1.0000 0.07670  0.36760  0.75411  Biso   1.000  C
  H71      1.0000 0.04960  0.35490  0.77000  Biso   1.000  H
  C104     1.0000 0.07070  0.32150  0.73547  Biso   1.000  C
  C105     1.0000 0.21640  0.23670  0.69267  Biso   1.000  C
  H72      1.0000 0.28130  0.23020  0.70640  Biso   1.000  H
  C106     1.0000 0.15240  0.44670  0.72798  Biso   1.000  C
  H73      1.0000 0.17860  0.49000  0.72510  Biso   1.000  H
  C107     1.0000 0.15060  0.40370  0.70785  Biso   1.000  C
  H74      1.0000 0.17530  0.41850  0.69210  Biso   1.000  H
  C108     1.0000 0.21820  0.19270  0.67345  Biso   1.000  C
  H75      1.0000 0.28550  0.15660  0.67470  Biso   1.000  H
  C109     1.0000 0.03090  0.29870  0.67025  Biso   1.000  C
  H76      1.0000 0.96640  0.33530  0.66810  Biso   1.000  H
  C110     1.0000 0.03850  0.25290  0.65175  Biso   1.000  C
  H77      1.0000 0.97770  0.25960  0.63760  Biso   1.000  H
  N34      1.0000 0.12930  0.69925  0.15329  Biso   1.000  N
  C111     1.0000 0.11450  0.79150  0.19117  Biso   1.000  C
  C112     1.0000 0.11170  0.83890  0.21171  Biso   1.000  C
  N35      1.0000 0.01700  0.75654  0.23922  Biso   1.000  N
  N36      1.0000 0.11960  0.92940  0.25030  Biso   1.000  N
  C113     1.0000 0.07670  0.86760  0.25411  Biso   1.000  C
  H78      1.0000 0.04960  0.85490  0.27000  Biso   1.000  H
  C114     1.0000 0.07070  0.82150  0.23547  Biso   1.000  C
  C115     1.0000 0.21640  0.73670  0.19267  Biso   1.000  C
  H79      1.0000 0.28130  0.73020  0.20640  Biso   1.000  H
  C116     1.0000 0.15240  0.94670  0.22798  Biso   1.000  C
  H80      1.0000 0.17860  0.99000  0.22510  Biso   1.000  H
  C117     1.0000 0.15060  0.90370  0.20785  Biso   1.000  C
  H81      1.0000 0.17530  0.91850  0.19210  Biso   1.000  H
  C118     1.0000 0.21820  0.69270  0.17345  Biso   1.000  C
  H82      1.0000 0.28550  0.65660  0.17470  Biso   1.000  H
  C119     1.0000 0.03090  0.79870  0.17025  Biso   1.000  C
  H83      1.0000 0.96640  0.83530  0.16810  Biso   1.000  H
  C120     1.0000 0.03850  0.75290  0.15175  Biso   1.000  C
  H84      1.0000 0.97770  0.75960  0.13760  Biso   1.000  H
  N37      1.0000 0.12070  0.55075  0.15329  Biso   1.000  N
  C121     1.0000 0.13550  0.45850  0.19117  Biso   1.000  C
  C122     1.0000 0.13830  0.41110  0.21171  Biso   1.000  C
  N38      1.0000 0.23300  0.49346  0.23922  Biso   1.000  N
  N39      1.0000 0.13040  0.32060  0.25030  Biso   1.000  N
  C123     1.0000 0.17330  0.38240  0.25411  Biso   1.000  C
  H85      1.0000 0.20040  0.39510  0.27000  Biso   1.000  H
  C124     1.0000 0.17930  0.42850  0.23547  Biso   1.000  C
  C125     1.0000 0.03360  0.51330  0.19267  Biso   1.000  C
  H86      1.0000 0.96870  0.51980  0.20640  Biso   1.000  H
  C126     1.0000 0.09760  0.30330  0.22798  Biso   1.000  C
  H87      1.0000 0.07140  0.26000  0.22510  Biso   1.000  H
  C127     1.0000 0.09940  0.34630  0.20785  Biso   1.000  C
  H88      1.0000 0.07470  0.33150  0.19210  Biso   1.000  H
  C128     1.0000 0.03180  0.55730  0.17345  Biso   1.000  C
  H89      1.0000 0.96450  0.59340  0.17470  Biso   1.000  H
  C129     1.0000 0.21910  0.45130  0.17025  Biso   1.000  C
  H90      1.0000 0.28360  0.41470  0.16810  Biso   1.000  H
  C130     1.0000 0.21150  0.49710  0.15175  Biso   1.000  C
  H91      1.0000 0.27230  0.49040  0.13760  Biso   1.000  H
  N40      1.0000 0.12070  0.05075  0.65329  Biso   1.000  N
  C131     1.0000 0.13550  0.95850  0.69117  Biso   1.000  C
  C132     1.0000 0.13830  0.91110  0.71171  Biso   1.000  C
  N41      1.0000 0.23300  0.99346  0.73922  Biso   1.000  N
  N42      1.0000 0.13040  0.82060  0.75030  Biso   1.000  N
  C133     1.0000 0.17330  0.88240  0.75411  Biso   1.000  C
  H92      1.0000 0.20040  0.89510  0.77000  Biso   1.000  H
  C134     1.0000 0.17930  0.92850  0.73547  Biso   1.000  C
  C135     1.0000 0.03360  0.01330  0.69267  Biso   1.000  C
  H93      1.0000 0.96870  0.01980  0.70640  Biso   1.000  H
  C136     1.0000 0.09760  0.80330  0.72798  Biso   1.000  C
  H94      1.0000 0.07140  0.76000  0.72510  Biso   1.000  H
  C137     1.0000 0.09940  0.84630  0.70785  Biso   1.000  C
  H95      1.0000 0.07470  0.83150  0.69210  Biso   1.000  H
  C138     1.0000 0.03180  0.05730  0.67345  Biso   1.000  C
  H96      1.0000 0.96450  0.09340  0.67470  Biso   1.000  H
  C139     1.0000 0.21910  0.95130  0.67025  Biso   1.000  C
  H97      1.0000 0.28360  0.91470  0.66810  Biso   1.000  H
  C140     1.0000 0.21150  0.99710  0.65175  Biso   1.000  C
  H98      1.0000 0.27230  0.99040  0.63760  Biso   1.000  H
  N43      1.0000 0.62070  0.55075  0.65329  Biso   1.000  N
  C141     1.0000 0.63550  0.45850  0.69117  Biso   1.000  C
  C142     1.0000 0.63830  0.41110  0.71171  Biso   1.000  C
  N44      1.0000 0.73300  0.49346  0.73922  Biso   1.000  N
  N45      1.0000 0.63040  0.32060  0.75030  Biso   1.000  N
  C143     1.0000 0.67330  0.38240  0.75411  Biso   1.000  C
  H99      1.0000 0.70040  0.39510  0.77000  Biso   1.000  H
  C144     1.0000 0.67930  0.42850  0.73547  Biso   1.000  C
  C145     1.0000 0.53360  0.51330  0.69267  Biso   1.000  C
  H100     1.0000 0.46870  0.51980  0.70640  Biso   1.000  H
  C146     1.0000 0.59760  0.30330  0.72798  Biso   1.000  C
  H101     1.0000 0.57140  0.26000  0.72510  Biso   1.000  H
  C147     1.0000 0.59940  0.34630  0.70785  Biso   1.000  C
  H102     1.0000 0.57470  0.33150  0.69210  Biso   1.000  H
  C148     1.0000 0.53180  0.55730  0.67345  Biso   1.000  C
  H103     1.0000 0.46450  0.59340  0.67470  Biso   1.000  H
  C149     1.0000 0.71910  0.45130  0.67025  Biso   1.000  C
  H104     1.0000 0.78360  0.41470  0.66810  Biso   1.000  H
  C150     1.0000 0.71150  0.49710  0.65175  Biso   1.000  C
  H105     1.0000 0.77230  0.49040  0.63760  Biso   1.000  H
  N46      1.0000 0.62070  0.05075  0.15329  Biso   1.000  N
  C151     1.0000 0.63550  0.95850  0.19117  Biso   1.000  C
  C152     1.0000 0.63830  0.91110  0.21171  Biso   1.000  C
  N47      1.0000 0.73300  0.99346  0.23922  Biso   1.000  N
  N48      1.0000 0.63040  0.82060  0.25030  Biso   1.000  N
  C153     1.0000 0.67330  0.88240  0.25411  Biso   1.000  C
  H106     1.0000 0.70040  0.89510  0.27000  Biso   1.000  H
  C154     1.0000 0.67930  0.92850  0.23547  Biso   1.000  C
  C155     1.0000 0.53360  0.01330  0.19267  Biso   1.000  C
  H107     1.0000 0.46870  0.01980  0.20640  Biso   1.000  H
  C156     1.0000 0.59760  0.80330  0.22798  Biso   1.000  C
  H108     1.0000 0.57140  0.76000  0.22510  Biso   1.000  H
  C157     1.0000 0.59940  0.84630  0.20785  Biso   1.000  C
  H109     1.0000 0.57470  0.83150  0.19210  Biso   1.000  H
  C158     1.0000 0.53180  0.05730  0.17345  Biso   1.000  C
  H110     1.0000 0.46450  0.09340  0.17470  Biso   1.000  H
  C159     1.0000 0.71910  0.95130  0.17025  Biso   1.000  C
  H111     1.0000 0.78360  0.91470  0.16810  Biso   1.000  H
  C160     1.0000 0.71150  0.99710  0.15175  Biso   1.000  C
  H112     1.0000 0.77230  0.99040  0.13760  Biso   1.000  H
  N49      1.0000 0.87930  0.80075  0.40329  Biso   1.000  N
  C161     1.0000 0.86450  0.70850  0.44117  Biso   1.000  C
  C162     1.0000 0.86170  0.66110  0.46171  Biso   1.000  C
  N50      1.0000 0.76700  0.74346  0.48922  Biso   1.000  N
  N51      1.0000 0.86960  0.57060  0.50030  Biso   1.000  N
  C163     1.0000 0.82670  0.63240  0.50411  Biso   1.000  C
  H113     1.0000 0.79960  0.64510  0.52000  Biso   1.000  H
  C164     1.0000 0.82070  0.67850  0.48547  Biso   1.000  C
  C165     1.0000 0.96640  0.76330  0.44267  Biso   1.000  C
  H114     1.0000 0.03130  0.76980  0.45640  Biso   1.000  H
  C166     1.0000 0.90240  0.55330  0.47798  Biso   1.000  C
  H115     1.0000 0.92860  0.51000  0.47510  Biso   1.000  H
  C167     1.0000 0.90060  0.59630  0.45785  Biso   1.000  C
  H116     1.0000 0.92530  0.58150  0.44210  Biso   1.000  H
  C168     1.0000 0.96820  0.80730  0.42345  Biso   1.000  C
  H117     1.0000 0.03550  0.84340  0.42470  Biso   1.000  H
  C169     1.0000 0.78090  0.70130  0.42025  Biso   1.000  C
  H118     1.0000 0.71640  0.66470  0.41810  Biso   1.000  H
  C170     1.0000 0.78850  0.74710  0.40175  Biso   1.000  C
  H119     1.0000 0.72770  0.74040  0.38760  Biso   1.000  H
  N52      1.0000 0.87930  0.30075  0.90329  Biso   1.000  N
  C171     1.0000 0.86450  0.20850  0.94117  Biso   1.000  C
  C172     1.0000 0.86170  0.16110  0.96171  Biso   1.000  C
  N53      1.0000 0.76700  0.24346  0.98922  Biso   1.000  N
  N54      1.0000 0.86960  0.07060  0.00030  Biso   1.000  N
  C173     1.0000 0.82670  0.13240  0.00411  Biso   1.000  C
  H120     1.0000 0.79960  0.14510  0.02000  Biso   1.000  H
  C174     1.0000 0.82070  0.17850  0.98547  Biso   1.000  C
  C175     1.0000 0.96640  0.26330  0.94267  Biso   1.000  C
  H121     1.0000 0.03130  0.26980  0.95640  Biso   1.000  H
  C176     1.0000 0.90240  0.05330  0.97798  Biso   1.000  C
  H122     1.0000 0.92860  0.01000  0.97510  Biso   1.000  H
  C177     1.0000 0.90060  0.09630  0.95785  Biso   1.000  C
  H123     1.0000 0.92530  0.08150  0.94210  Biso   1.000  H
  C178     1.0000 0.96820  0.30730  0.92345  Biso   1.000  C
  H124     1.0000 0.03550  0.34340  0.92470  Biso   1.000  H
  C179     1.0000 0.78090  0.20130  0.92025  Biso   1.000  C
  H125     1.0000 0.71640  0.16470  0.91810  Biso   1.000  H
  C180     1.0000 0.78850  0.24710  0.90175  Biso   1.000  C
  H126     1.0000 0.72770  0.24040  0.88760  Biso   1.000  H
  N55      1.0000 0.37930  0.80075  0.90329  Biso   1.000  N
  C181     1.0000 0.36450  0.70850  0.94117  Biso   1.000  C
  C182     1.0000 0.36170  0.66110  0.96171  Biso   1.000  C
  N56      1.0000 0.26700  0.74346  0.98922  Biso   1.000  N
  N57      1.0000 0.36960  0.57060  0.00030  Biso   1.000  N
  C183     1.0000 0.32670  0.63240  0.00411  Biso   1.000  C
  H127     1.0000 0.29960  0.64510  0.02000  Biso   1.000  H
  C184     1.0000 0.32070  0.67850  0.98547  Biso   1.000  C
  C185     1.0000 0.46640  0.76330  0.94267  Biso   1.000  C
  H128     1.0000 0.53130  0.76980  0.95640  Biso   1.000  H
  C186     1.0000 0.40240  0.55330  0.97798  Biso   1.000  C
  H129     1.0000 0.42860  0.51000  0.97510  Biso   1.000  H
  C187     1.0000 0.40060  0.59630  0.95785  Biso   1.000  C
  H130     1.0000 0.42530  0.58150  0.94210  Biso   1.000  H
  C188     1.0000 0.46820  0.80730  0.92345  Biso   1.000  C
  H131     1.0000 0.53550  0.84340  0.92470  Biso   1.000  H
  C189     1.0000 0.28090  0.70130  0.92025  Biso   1.000  C
  H132     1.0000 0.21640  0.66470  0.91810  Biso   1.000  H
  C190     1.0000 0.28850  0.74710  0.90175  Biso   1.000  C
  H133     1.0000 0.22770  0.74040  0.88760  Biso   1.000  H
  N58      1.0000 0.37930  0.30075  0.40329  Biso   1.000  N
  C191     1.0000 0.36450  0.20850  0.44117  Biso   1.000  C
  C192     1.0000 0.36170  0.16110  0.46171  Biso   1.000  C
  N59      1.0000 0.26700  0.24346  0.48922  Biso   1.000  N
  N60      1.0000 0.36960  0.07060  0.50030  Biso   1.000  N
  C193     1.0000 0.32670  0.13240  0.50411  Biso   1.000  C
  H134     1.0000 0.29960  0.14510  0.52000  Biso   1.000  H
  C194     1.0000 0.32070  0.17850  0.48547  Biso   1.000  C
  C195     1.0000 0.46640  0.26330  0.44267  Biso   1.000  C
  H135     1.0000 0.53130  0.26980  0.45640  Biso   1.000  H
  C196     1.0000 0.40240  0.05330  0.47798  Biso   1.000  C
  H136     1.0000 0.42860  0.01000  0.47510  Biso   1.000  H
  C197     1.0000 0.40060  0.09630  0.45785  Biso   1.000  C
  H137     1.0000 0.42530  0.08150  0.44210  Biso   1.000  H
  C198     1.0000 0.46820  0.30730  0.42345  Biso   1.000  C
  H138     1.0000 0.53550  0.34340  0.42470  Biso   1.000  H
  C199     1.0000 0.28090  0.20130  0.42025  Biso   1.000  C
  H139     1.0000 0.21640  0.16470  0.41810  Biso   1.000  H
  C200     1.0000 0.28850  0.24710  0.40175  Biso   1.000  C
  H140     1.0000 0.22770  0.24040  0.38760  Biso   1.000  H
  N61      1.0000 0.37070  0.44925  0.40329  Biso   1.000  N
  C201     1.0000 0.38550  0.54150  0.44117  Biso   1.000  C
  C202     1.0000 0.38830  0.58890  0.46171  Biso   1.000  C
  N62      1.0000 0.48300  0.50654  0.48922  Biso   1.000  N
  N63      1.0000 0.38040  0.67940  0.50030  Biso   1.000  N
  C203     1.0000 0.42330  0.61760  0.50411  Biso   1.000  C
  H141     1.0000 0.45040  0.60490  0.52000  Biso   1.000  H
  C204     1.0000 0.42930  0.57150  0.48547  Biso   1.000  C
  C205     1.0000 0.28360  0.48670  0.44267  Biso   1.000  C
  H142     1.0000 0.21870  0.48020  0.45640  Biso   1.000  H
  C206     1.0000 0.34760  0.69670  0.47798  Biso   1.000  C
  H143     1.0000 0.32140  0.74000  0.47510  Biso   1.000  H
  C207     1.0000 0.34940  0.65370  0.45785  Biso   1.000  C
  H144     1.0000 0.32470  0.66850  0.44210  Biso   1.000  H
  C208     1.0000 0.28180  0.44270  0.42345  Biso   1.000  C
  H145     1.0000 0.21450  0.40660  0.42470  Biso   1.000  H
  C209     1.0000 0.46910  0.54870  0.42025  Biso   1.000  C
  H146     1.0000 0.53360  0.58530  0.41810  Biso   1.000  H
  C210     1.0000 0.46150  0.50290  0.40175  Biso   1.000  C
  H147     1.0000 0.52230  0.50960  0.38760  Biso   1.000  H
  N64      1.0000 0.37070  0.94925  0.90329  Biso   1.000  N
  C211     1.0000 0.38550  0.04150  0.94117  Biso   1.000  C
  C212     1.0000 0.38830  0.08890  0.96171  Biso   1.000  C
  N65      1.0000 0.48300  0.00654  0.98922  Biso   1.000  N
  N66      1.0000 0.38040  0.17940  0.00030  Biso   1.000  N
  C213     1.0000 0.42330  0.11760  0.00411  Biso   1.000  C
  H148     1.0000 0.45040  0.10490  0.02000  Biso   1.000  H
  C214     1.0000 0.42930  0.07150  0.98547  Biso   1.000  C
  C215     1.0000 0.28360  0.98670  0.94267  Biso   1.000  C
  H149     1.0000 0.21870  0.98020  0.95640  Biso   1.000  H
  C216     1.0000 0.34760  0.19670  0.97798  Biso   1.000  C
  H150     1.0000 0.32140  0.24000  0.97510  Biso   1.000  H
  C217     1.0000 0.34940  0.15370  0.95785  Biso   1.000  C
  H151     1.0000 0.32470  0.16850  0.94210  Biso   1.000  H
  C218     1.0000 0.28180  0.94270  0.92345  Biso   1.000  C
  H152     1.0000 0.21450  0.90660  0.92470  Biso   1.000  H
  C219     1.0000 0.46910  0.04870  0.92025  Biso   1.000  C
  H153     1.0000 0.53360  0.08530  0.91810  Biso   1.000  H
  C220     1.0000 0.46150  0.00290  0.90175  Biso   1.000  C
  H154     1.0000 0.52230  0.00960  0.88760  Biso   1.000  H
  N67      1.0000 0.87070  0.44925  0.90329  Biso   1.000  N
  C221     1.0000 0.88550  0.54150  0.94117  Biso   1.000  C
  C222     1.0000 0.88830  0.58890  0.96171  Biso   1.000  C
  N68      1.0000 0.98300  0.50654  0.98922  Biso   1.000  N
  N69      1.0000 0.88040  0.67940  0.00030  Biso   1.000  N
  C223     1.0000 0.92330  0.61760  0.00411  Biso   1.000  C
  H155     1.0000 0.95040  0.60490  0.02000  Biso   1.000  H
  C224     1.0000 0.92930  0.57150  0.98547  Biso   1.000  C
  C225     1.0000 0.78360  0.48670  0.94267  Biso   1.000  C
  H156     1.0000 0.71870  0.48020  0.95640  Biso   1.000  H
  C226     1.0000 0.84760  0.69670  0.97798  Biso   1.000  C
  H157     1.0000 0.82140  0.74000  0.97510  Biso   1.000  H
  C227     1.0000 0.84940  0.65370  0.95785  Biso   1.000  C
  H158     1.0000 0.82470  0.66850  0.94210  Biso   1.000  H
  C228     1.0000 0.78180  0.44270  0.92345  Biso   1.000  C
  H159     1.0000 0.71450  0.40660  0.92470  Biso   1.000  H
  C229     1.0000 0.96910  0.54870  0.92025  Biso   1.000  C
  H160     1.0000 0.03360  0.58530  0.91810  Biso   1.000  H
  C230     1.0000 0.96150  0.50290  0.90175  Biso   1.000  C
  H161     1.0000 0.02230  0.50960  0.88760  Biso   1.000  H
  N70      1.0000 0.87070  0.94925  0.40329  Biso   1.000  N
  C231     1.0000 0.88550  0.04150  0.44117  Biso   1.000  C
  C232     1.0000 0.88830  0.08890  0.46171  Biso   1.000  C
  N71      1.0000 0.98300  0.00654  0.48922  Biso   1.000  N
  N72      1.0000 0.88040  0.17940  0.50030  Biso   1.000  N
  C233     1.0000 0.92330  0.11760  0.50411  Biso   1.000  C
  H162     1.0000 0.95040  0.10490  0.52000  Biso   1.000  H
  C234     1.0000 0.92930  0.07150  0.48547  Biso   1.000  C
  C235     1.0000 0.78360  0.98670  0.44267  Biso   1.000  C
  H163     1.0000 0.71870  0.98020  0.45640  Biso   1.000  H
  C236     1.0000 0.84760  0.19670  0.47798  Biso   1.000  C
  H164     1.0000 0.82140  0.24000  0.47510  Biso   1.000  H
  C237     1.0000 0.84940  0.15370  0.45785  Biso   1.000  C
  H165     1.0000 0.82470  0.16850  0.44210  Biso   1.000  H
  C238     1.0000 0.78180  0.94270  0.42345  Biso   1.000  C
  H166     1.0000 0.71450  0.90660  0.42470  Biso   1.000  H
  C239     1.0000 0.96910  0.04870  0.42025  Biso   1.000  C
  H167     1.0000 0.03360  0.08530  0.41810  Biso   1.000  H
  C240     1.0000 0.96150  0.00290  0.40175  Biso   1.000  C
  H168     1.0000 0.02230  0.00960  0.38760  Biso   1.000  H
  N73      1.0000 0.37070  0.80075  0.84671  Biso   1.000  N
  C241     1.0000 0.38550  0.70850  0.80883  Biso   1.000  C
  C242     1.0000 0.38830  0.66110  0.78829  Biso   1.000  C
  N74      1.0000 0.48300  0.74346  0.76078  Biso   1.000  N
  N75      1.0000 0.38040  0.57060  0.74970  Biso   1.000  N
  C243     1.0000 0.42330  0.63240  0.74589  Biso   1.000  C
  H169     1.0000 0.45040  0.64510  0.73000  Biso   1.000  H
  C244     1.0000 0.42930  0.67850  0.76453  Biso   1.000  C
  C245     1.0000 0.28360  0.76330  0.80733  Biso   1.000  C
  H170     1.0000 0.21870  0.76980  0.79360  Biso   1.000  H
  C246     1.0000 0.34760  0.55330  0.77202  Biso   1.000  C
  H171     1.0000 0.32140  0.51000  0.77490  Biso   1.000  H
  C247     1.0000 0.34940  0.59630  0.79215  Biso   1.000  C
  H172     1.0000 0.32470  0.58150  0.80790  Biso   1.000  H
  C248     1.0000 0.28180  0.80730  0.82655  Biso   1.000  C
  H173     1.0000 0.21450  0.84340  0.82530  Biso   1.000  H
  C249     1.0000 0.46910  0.70130  0.82975  Biso   1.000  C
  H174     1.0000 0.53360  0.66470  0.83190  Biso   1.000  H
  C250     1.0000 0.46150  0.74710  0.84825  Biso   1.000  C
  H175     1.0000 0.52230  0.74040  0.86240  Biso   1.000  H
  N76      1.0000 0.37070  0.30075  0.34671  Biso   1.000  N
  C251     1.0000 0.38550  0.20850  0.30883  Biso   1.000  C
  C252     1.0000 0.38830  0.16110  0.28829  Biso   1.000  C
  N77      1.0000 0.48300  0.24346  0.26078  Biso   1.000  N
  N78      1.0000 0.38040  0.07060  0.24970  Biso   1.000  N
  C253     1.0000 0.42330  0.13240  0.24589  Biso   1.000  C
  H176     1.0000 0.45040  0.14510  0.23000  Biso   1.000  H
  C254     1.0000 0.42930  0.17850  0.26453  Biso   1.000  C
  C255     1.0000 0.28360  0.26330  0.30733  Biso   1.000  C
  H177     1.0000 0.21870  0.26980  0.29360  Biso   1.000  H
  C256     1.0000 0.34760  0.05330  0.27202  Biso   1.000  C
  H178     1.0000 0.32140  0.01000  0.27490  Biso   1.000  H
  C257     1.0000 0.34940  0.09630  0.29215  Biso   1.000  C
  H179     1.0000 0.32470  0.08150  0.30790  Biso   1.000  H
  C258     1.0000 0.28180  0.30730  0.32655  Biso   1.000  C
  H180     1.0000 0.21450  0.34340  0.32530  Biso   1.000  H
  C259     1.0000 0.46910  0.20130  0.32975  Biso   1.000  C
  H181     1.0000 0.53360  0.16470  0.33190  Biso   1.000  H
  C260     1.0000 0.46150  0.24710  0.34825  Biso   1.000  C
  H182     1.0000 0.52230  0.24040  0.36240  Biso   1.000  H
  N79      1.0000 0.87070  0.80075  0.34671  Biso   1.000  N
  C261     1.0000 0.88550  0.70850  0.30883  Biso   1.000  C
  C262     1.0000 0.88830  0.66110  0.28829  Biso   1.000  C
  N80      1.0000 0.98300  0.74346  0.26078  Biso   1.000  N
  N81      1.0000 0.88040  0.57060  0.24970  Biso   1.000  N
  C263     1.0000 0.92330  0.63240  0.24589  Biso   1.000  C
  H183     1.0000 0.95040  0.64510  0.23000  Biso   1.000  H
  C264     1.0000 0.92930  0.67850  0.26453  Biso   1.000  C
  C265     1.0000 0.78360  0.76330  0.30733  Biso   1.000  C
  H184     1.0000 0.71870  0.76980  0.29360  Biso   1.000  H
  C266     1.0000 0.84760  0.55330  0.27202  Biso   1.000  C
  H185     1.0000 0.82140  0.51000  0.27490  Biso   1.000  H
  C267     1.0000 0.84940  0.59630  0.29215  Biso   1.000  C
  H186     1.0000 0.82470  0.58150  0.30790  Biso   1.000  H
  C268     1.0000 0.78180  0.80730  0.32655  Biso   1.000  C
  H187     1.0000 0.71450  0.84340  0.32530  Biso   1.000  H
  C269     1.0000 0.96910  0.70130  0.32975  Biso   1.000  C
  H188     1.0000 0.03360  0.66470  0.33190  Biso   1.000  H
  C270     1.0000 0.96150  0.74710  0.34825  Biso   1.000  C
  H189     1.0000 0.02230  0.74040  0.36240  Biso   1.000  H
  N82      1.0000 0.87070  0.30075  0.84671  Biso   1.000  N
  C271     1.0000 0.88550  0.20850  0.80883  Biso   1.000  C
  C272     1.0000 0.88830  0.16110  0.78829  Biso   1.000  C
  N83      1.0000 0.98300  0.24346  0.76078  Biso   1.000  N
  N84      1.0000 0.88040  0.07060  0.74970  Biso   1.000  N
  C273     1.0000 0.92330  0.13240  0.74589  Biso   1.000  C
  H190     1.0000 0.95040  0.14510  0.73000  Biso   1.000  H
  C274     1.0000 0.92930  0.17850  0.76453  Biso   1.000  C
  C275     1.0000 0.78360  0.26330  0.80733  Biso   1.000  C
  H191     1.0000 0.71870  0.26980  0.79360  Biso   1.000  H
  C276     1.0000 0.84760  0.05330  0.77202  Biso   1.000  C
  H192     1.0000 0.82140  0.01000  0.77490  Biso   1.000  H
  C277     1.0000 0.84940  0.09630  0.79215  Biso   1.000  C
  H193     1.0000 0.82470  0.08150  0.80790  Biso   1.000  H
  C278     1.0000 0.78180  0.30730  0.82655  Biso   1.000  C
  H194     1.0000 0.71450  0.34340  0.82530  Biso   1.000  H
  C279     1.0000 0.96910  0.20130  0.82975  Biso   1.000  C
  H195     1.0000 0.03360  0.16470  0.83190  Biso   1.000  H
  C280     1.0000 0.96150  0.24710  0.84825  Biso   1.000  C
  H196     1.0000 0.02230  0.24040  0.86240  Biso   1.000  H
  N85      1.0000 0.87930  0.44925  0.84671  Biso   1.000  N
  C281     1.0000 0.86450  0.54150  0.80883  Biso   1.000  C
  C282     1.0000 0.86170  0.58890  0.78829  Biso   1.000  C
  N86      1.0000 0.76700  0.50654  0.76078  Biso   1.000  N
  N87      1.0000 0.86960  0.67940  0.74970  Biso   1.000  N
  C283     1.0000 0.82670  0.61760  0.74589  Biso   1.000  C
  H197     1.0000 0.79960  0.60490  0.73000  Biso   1.000  H
  C284     1.0000 0.82070  0.57150  0.76453  Biso   1.000  C
  C285     1.0000 0.96640  0.48670  0.80733  Biso   1.000  C
  H198     1.0000 0.03130  0.48020  0.79360  Biso   1.000  H
  C286     1.0000 0.90240  0.69670  0.77202  Biso   1.000  C
  H199     1.0000 0.92860  0.74000  0.77490  Biso   1.000  H
  C287     1.0000 0.90060  0.65370  0.79215  Biso   1.000  C
  H200     1.0000 0.92530  0.66850  0.80790  Biso   1.000  H
  C288     1.0000 0.96820  0.44270  0.82655  Biso   1.000  C
  H201     1.0000 0.03550  0.40660  0.82530  Biso   1.000  H
  C289     1.0000 0.78090  0.54870  0.82975  Biso   1.000  C
  H202     1.0000 0.71640  0.58530  0.83190  Biso   1.000  H
  C290     1.0000 0.78850  0.50290  0.84825  Biso   1.000  C
  H203     1.0000 0.72770  0.50960  0.86240  Biso   1.000  H
  N88      1.0000 0.87930  0.94925  0.34671  Biso   1.000  N
  C291     1.0000 0.86450  0.04150  0.30883  Biso   1.000  C
  C292     1.0000 0.86170  0.08890  0.28829  Biso   1.000  C
  N89      1.0000 0.76700  0.00654  0.26078  Biso   1.000  N
  N90      1.0000 0.86960  0.17940  0.24970  Biso   1.000  N
  C293     1.0000 0.82670  0.11760  0.24589  Biso   1.000  C
  H204     1.0000 0.79960  0.10490  0.23000  Biso   1.000  H
  C294     1.0000 0.82070  0.07150  0.26453  Biso   1.000  C
  C295     1.0000 0.96640  0.98670  0.30733  Biso   1.000  C
  H205     1.0000 0.03130  0.98020  0.29360  Biso   1.000  H
  C296     1.0000 0.90240  0.19670  0.27202  Biso   1.000  C
  H206     1.0000 0.92860  0.24000  0.27490  Biso   1.000  H
  C297     1.0000 0.90060  0.15370  0.29215  Biso   1.000  C
  H207     1.0000 0.92530  0.16850  0.30790  Biso   1.000  H
  C298     1.0000 0.96820  0.94270  0.32655  Biso   1.000  C
  H208     1.0000 0.03550  0.90660  0.32530  Biso   1.000  H
  C299     1.0000 0.78090  0.04870  0.32975  Biso   1.000  C
  H209     1.0000 0.71640  0.08530  0.33190  Biso   1.000  H
  C300     1.0000 0.78850  0.00290  0.34825  Biso   1.000  C
  H210     1.0000 0.72770  0.00960  0.36240  Biso   1.000  H
  N91      1.0000 0.37930  0.44925  0.34671  Biso   1.000  N
  C301     1.0000 0.36450  0.54150  0.30883  Biso   1.000  C
  C302     1.0000 0.36170  0.58890  0.28829  Biso   1.000  C
  N92      1.0000 0.26700  0.50654  0.26078  Biso   1.000  N
  N93      1.0000 0.36960  0.67940  0.24970  Biso   1.000  N
  C303     1.0000 0.32670  0.61760  0.24589  Biso   1.000  C
  H211     1.0000 0.29960  0.60490  0.23000  Biso   1.000  H
  C304     1.0000 0.32070  0.57150  0.26453  Biso   1.000  C
  C305     1.0000 0.46640  0.48670  0.30733  Biso   1.000  C
  H212     1.0000 0.53130  0.48020  0.29360  Biso   1.000  H
  C306     1.0000 0.40240  0.69670  0.27202  Biso   1.000  C
  H213     1.0000 0.42860  0.74000  0.27490  Biso   1.000  H
  C307     1.0000 0.40060  0.65370  0.29215  Biso   1.000  C
  H214     1.0000 0.42530  0.66850  0.30790  Biso   1.000  H
  C308     1.0000 0.46820  0.44270  0.32655  Biso   1.000  C
  H215     1.0000 0.53550  0.40660  0.32530  Biso   1.000  H
  C309     1.0000 0.28090  0.54870  0.32975  Biso   1.000  C
  H216     1.0000 0.21640  0.58530  0.33190  Biso   1.000  H
  C310     1.0000 0.28850  0.50290  0.34825  Biso   1.000  C
  H217     1.0000 0.22770  0.50960  0.36240  Biso   1.000  H
  N94      1.0000 0.37930  0.94925  0.84671  Biso   1.000  N
  C311     1.0000 0.36450  0.04150  0.80883  Biso   1.000  C
  C312     1.0000 0.36170  0.08890  0.78829  Biso   1.000  C
  N95      1.0000 0.26700  0.00654  0.76078  Biso   1.000  N
  N96      1.0000 0.36960  0.17940  0.74970  Biso   1.000  N
  C313     1.0000 0.32670  0.11760  0.74589  Biso   1.000  C
  H218     1.0000 0.29960  0.10490  0.73000  Biso   1.000  H
  C314     1.0000 0.32070  0.07150  0.76453  Biso   1.000  C
  C315     1.0000 0.46640  0.98670  0.80733  Biso   1.000  C
  H219     1.0000 0.53130  0.98020  0.79360  Biso   1.000  H
  C316     1.0000 0.40240  0.19670  0.77202  Biso   1.000  C
  H220     1.0000 0.42860  0.24000  0.77490  Biso   1.000  H
  C317     1.0000 0.40060  0.15370  0.79215  Biso   1.000  C
  H221     1.0000 0.42530  0.16850  0.80790  Biso   1.000  H
  C318     1.0000 0.46820  0.94270  0.82655  Biso   1.000  C
  H222     1.0000 0.53550  0.90660  0.82530  Biso   1.000  H
  C319     1.0000 0.28090  0.04870  0.82975  Biso   1.000  C
  H223     1.0000 0.21640  0.08530  0.83190  Biso   1.000  H
  C320     1.0000 0.28850  0.00290  0.84825  Biso   1.000  C
  H224     1.0000 0.22770  0.00960  0.86240  Biso   1.000  H
  Co1      1.0000 0.12500  0.12500  0.62500  Biso   1.000  Co
  Co2      1.0000 0.62500  0.62500  0.62500  Biso   1.000  Co
  Co3      1.0000 0.62500  0.12500  0.12500  Biso   1.000  Co
  Co4      1.0000 0.12500  0.62500  0.12500  Biso   1.000  Co
  Co5      1.0000 0.87500  0.87500  0.37500  Biso   1.000  Co
  Co6      1.0000 0.37500  0.37500  0.37500  Biso   1.000  Co
  Co7      1.0000 0.37500  0.87500  0.87500  Biso   1.000  Co
  Co8      1.0000 0.87500  0.37500  0.87500  Biso   1.000  Co
