data_IXEFAS_charged
_audit_creation_date              2014-07-02
_audit_creation_method            'Materials Studio'
_symmetry_space_group_name_H-M    'P1'
_symmetry_Int_Tables_number       1
_symmetry_cell_setting            triclinic
loop_
_symmetry_equiv_pos_as_xyz
  x,y,z
_cell_length_a                    24.1412
_cell_length_b                    24.3031
_cell_length_c                    24.4706
_cell_angle_alpha                 84.4340
_cell_angle_beta                  61.7420
_cell_angle_gamma                 61.4940
loop_
_atom_site_label
_atom_site_type_symbol
_atom_site_fract_x
_atom_site_fract_y
_atom_site_fract_z
_atom_site_U_iso_or_equiv
_atom_site_adp_type
_atom_site_occupancy
Eu1    Eu    0.85688   0.84933   0.70415   0.01267  Uiso   1.00
Eu2    Eu    0.75273   0.71832   0.26645   0.01267  Uiso   1.00
Eu3    Eu    0.34114   0.72143   0.86352   0.01267  Uiso   1.00
Eu4    Eu    0.14312   0.15067   0.29585   0.01267  Uiso   1.00
Eu5    Eu    0.24727   0.28168   0.73355   0.01267  Uiso   1.00
Eu6    Eu    0.65886   0.27857   0.13648   0.01267  Uiso   1.00
H1     H     0.76960   0.00550   0.63470   0.01267  Uiso   1.00
H2     H     0.43930   0.10030   0.66330   0.01267  Uiso   1.00
H3     H     0.55940   0.82750   0.42260   0.01267  Uiso   1.00
H4     H     0.24400   0.40250   0.60760   0.01267  Uiso   1.00
H5     H     0.55520   0.05370   0.65070   0.01267  Uiso   1.00
H6     H     0.86030   0.66000   0.36380   0.01267  Uiso   1.00
H7     H     0.10930   0.46860   0.79020   0.01267  Uiso   1.00
H8     H     0.47180   0.16790   0.81020   0.01267  Uiso   1.00
H9     H     0.63240   0.64420   0.38120   0.01267  Uiso   1.00
H10    H     0.35870   0.21250   0.81930   0.01267  Uiso   1.00
H11    H     0.75120   0.82720   0.13950   0.01267  Uiso   1.00
H12    H     0.85980   0.80820   0.17870   0.01267  Uiso   1.00
H13    H     0.75590   0.91530   0.61040   0.01267  Uiso   1.00
H14    H     0.93830   0.79500   0.81690   0.01267  Uiso   1.00
H15    H     0.63540   0.91350   0.80930   0.01267  Uiso   1.00
H16    H     0.66050   0.06190   0.63450   0.01267  Uiso   1.00
H17    H     0.89950   0.70440   0.79550   0.01267  Uiso   1.00
H18    H     0.02970   0.69510   0.57300   0.01267  Uiso   1.00
H19    H     0.11020   0.59830   0.58330   0.01267  Uiso   1.00
H20    H     0.04110   0.83700   0.55430   0.01267  Uiso   1.00
H21    H     0.66810   0.00960   0.81870   0.01267  Uiso   1.00
H22    H     0.70610   0.83950   0.98090   0.01267  Uiso   1.00
H23    H     0.70590   0.85610   0.88660   0.01267  Uiso   1.00
H24    H     0.55680   0.06720   0.82310   0.01267  Uiso   1.00
H25    H     0.64750   0.25460   0.98560   0.01267  Uiso   1.00
H26    H     0.53620   0.63760   0.69180   0.01267  Uiso   1.00
H27    H     0.01340   0.73820   0.16810   0.01267  Uiso   1.00
H28    H     0.63870   0.67970   0.75360   0.01267  Uiso   1.00
H29    H     0.91920   0.72580   0.25060   0.01267  Uiso   1.00
H30    H     0.11760   0.79550   0.97770   0.01267  Uiso   1.00
H31    H     0.73770   0.33800   0.20860   0.01267  Uiso   1.00
H32    H     0.58450   0.63600   0.48610   0.01267  Uiso   1.00
H33    H     0.80750   0.57510   0.14300   0.01267  Uiso   1.00
H34    H     0.69910   0.72690   0.70540   0.01267  Uiso   1.00
H35    H     0.75850   0.42410   0.20330   0.01267  Uiso   1.00
H36    H     0.58190   0.63530   0.58370   0.01267  Uiso   1.00
H37    H     0.01520   0.80780   0.83900   0.01267  Uiso   1.00
H38    H     0.53320   0.45680   0.25050   0.01267  Uiso   1.00
H39    H     0.15870   0.76240   0.65360   0.01267  Uiso   1.00
H40    H     0.83110   0.99210   0.11420   0.01267  Uiso   1.00
H41    H     0.60410   0.69540   0.26600   0.01267  Uiso   1.00
H42    H     0.31530   0.74640   0.71220   0.01267  Uiso   1.00
H43    H     0.16380   0.48530   0.58310   0.01267  Uiso   1.00
H44    H     0.14730   0.85510   0.87480   0.01267  Uiso   1.00
H45    H     0.49530   0.83310   0.88890   0.01267  Uiso   1.00
H46    H     0.06780   0.85010   0.84850   0.01267  Uiso   1.00
H47    H     0.69120   0.05640   0.94000   0.01267  Uiso   1.00
H48    H     0.80400   0.08370   0.07170   0.01267  Uiso   1.00
H49    H     0.72640   0.88080   0.54900   0.01267  Uiso   1.00
H50    H     0.67530   0.16730   0.92450   0.01267  Uiso   1.00
H51    H     0.05660   0.59460   0.05760   0.01267  Uiso   1.00
H52    H     0.88700   0.99810   0.67610   0.01267  Uiso   1.00
H53    H     0.23820   0.74100   0.68280   0.01267  Uiso   1.00
H54    H     0.55890   0.64100   0.79550   0.01267  Uiso   1.00
H55    H     0.02380   0.55060   0.76750   0.01267  Uiso   1.00
H56    H     0.89290   0.02450   0.81590   0.01267  Uiso   1.00
H57    H     0.93520   0.74710   0.44770   0.01267  Uiso   1.00
H58    H     0.56200   0.86840   0.85660   0.01267  Uiso   1.00
H59    H     0.84100   0.89940   0.13500   0.01267  Uiso   1.00
H60    H     0.65240   0.99710   0.29690   0.01267  Uiso   1.00
H61    H     0.84190   0.15900   0.97310   0.01267  Uiso   1.00
H62    H     0.70800   0.86240   0.48180   0.01267  Uiso   1.00
H63    H     0.67320   0.82010   0.43120   0.01267  Uiso   1.00
H64    H     0.59420   0.15230   0.18860   0.01267  Uiso   1.00
H65    H     0.89860   0.69800   0.41400   0.01267  Uiso   1.00
H66    H     0.41560   0.79410   0.93010   0.01267  Uiso   1.00
H67    H     0.91220   0.05560   0.59480   0.01267  Uiso   1.00
H68    H     0.67630   0.90300   0.33830   0.01267  Uiso   1.00
H69    H     0.94110   0.58590   0.72460   0.01267  Uiso   1.00
H70    H     0.74080   0.84170   0.04890   0.01267  Uiso   1.00
H71    H     0.86270   0.68120   0.71070   0.01267  Uiso   1.00
H72    H     0.72050   0.96090   0.89440   0.01267  Uiso   1.00
H73    H     0.90170   0.68410   0.88980   0.01267  Uiso   1.00
H74    H     0.96240   0.78510   0.50790   0.01267  Uiso   1.00
H75    H     0.91810   0.93160   0.76860   0.01267  Uiso   1.00
H76    H     0.07760   0.75300   0.63390   0.01267  Uiso   1.00
H77    H     0.76960   0.77550   0.66220   0.01267  Uiso   1.00
H78    H     0.86990   0.07210   0.91300   0.01267  Uiso   1.00
H79    H     0.50750   0.82330   0.52860   0.01267  Uiso   1.00
H80    H     0.61780   0.06350   0.23700   0.01267  Uiso   1.00
H81    H     0.37930   0.81530   0.72350   0.01267  Uiso   1.00
H82    H     0.42170   0.81470   0.61670   0.01267  Uiso   1.00
H83    H     0.32280   0.62610   0.00310   0.01267  Uiso   1.00
H84    H     0.56550   0.48370   0.89420   0.01267  Uiso   1.00
H85    H     0.78090   0.49450   0.14900   0.01267  Uiso   1.00
H86    H     0.88660   0.64330   0.07330   0.01267  Uiso   1.00
H87    H     0.55250   0.54310   0.24370   0.01267  Uiso   1.00
H88    H     0.57370   0.61420   0.27710   0.01267  Uiso   1.00
H89    H     0.96310   0.58520   0.14210   0.01267  Uiso   1.00
H90    H     0.25470   0.60900   0.92350   0.01267  Uiso   1.00
H91    H     0.17560   0.58910   0.01130   0.01267  Uiso   1.00
H92    H     0.50350   0.53830   0.84180   0.01267  Uiso   1.00
H93    H     0.38340   0.57110   0.05800   0.01267  Uiso   1.00
H94    H     0.87170   0.65360   0.98390   0.01267  Uiso   1.00
H95    H     0.06630   0.89480   0.47340   0.01267  Uiso   1.00
H96    H     0.03900   0.77760   0.06880   0.01267  Uiso   1.00
H97    H     0.23040   0.99450   0.36530   0.01267  Uiso   1.00
H98    H     0.56070   0.89970   0.33670   0.01267  Uiso   1.00
H99    H     0.44060   0.17250   0.57740   0.01267  Uiso   1.00
H100   H     0.75600   0.59750   0.39240   0.01267  Uiso   1.00
H101   H     0.44480   0.94630   0.34930   0.01267  Uiso   1.00
H102   H     0.13970   0.34000   0.63620   0.01267  Uiso   1.00
H103   H     0.89070   0.53140   0.20980   0.01267  Uiso   1.00
H104   H     0.52820   0.83210   0.18980   0.01267  Uiso   1.00
H105   H     0.36760   0.35580   0.61880   0.01267  Uiso   1.00
H106   H     0.64130   0.78750   0.18070   0.01267  Uiso   1.00
H107   H     0.24880   0.17280   0.86050   0.01267  Uiso   1.00
H108   H     0.14020   0.19180   0.82130   0.01267  Uiso   1.00
H109   H     0.24410   0.08470   0.38960   0.01267  Uiso   1.00
H110   H     0.06170   0.20500   0.18310   0.01267  Uiso   1.00
H111   H     0.36460   0.08650   0.19070   0.01267  Uiso   1.00
H112   H     0.33950   0.93810   0.36550   0.01267  Uiso   1.00
H113   H     0.10050   0.29560   0.20450   0.01267  Uiso   1.00
H114   H     0.97030   0.30490   0.42700   0.01267  Uiso   1.00
H115   H     0.88980   0.40170   0.41670   0.01267  Uiso   1.00
H116   H     0.95890   0.16300   0.44570   0.01267  Uiso   1.00
H117   H     0.33190   0.99040   0.18130   0.01267  Uiso   1.00
H118   H     0.29390   0.16050   0.01910   0.01267  Uiso   1.00
H119   H     0.29410   0.14390   0.11340   0.01267  Uiso   1.00
H120   H     0.44320   0.93280   0.17690   0.01267  Uiso   1.00
H121   H     0.35250   0.74540   0.01440   0.01267  Uiso   1.00
H122   H     0.46380   0.36240   0.30820   0.01267  Uiso   1.00
H123   H     0.98660   0.26180   0.83190   0.01267  Uiso   1.00
H124   H     0.36130   0.32030   0.24640   0.01267  Uiso   1.00
H125   H     0.08080   0.27420   0.74940   0.01267  Uiso   1.00
H126   H     0.88240   0.20450   0.02230   0.01267  Uiso   1.00
H127   H     0.26230   0.66200   0.79140   0.01267  Uiso   1.00
H128   H     0.41550   0.36400   0.51390   0.01267  Uiso   1.00
H129   H     0.19250   0.42490   0.85700   0.01267  Uiso   1.00
H130   H     0.30090   0.27310   0.29460   0.01267  Uiso   1.00
H131   H     0.24150   0.57590   0.79670   0.01267  Uiso   1.00
H132   H     0.41810   0.36470   0.41630   0.01267  Uiso   1.00
H133   H     0.98480   0.19220   0.16100   0.01267  Uiso   1.00
H134   H     0.46680   0.54320   0.74950   0.01267  Uiso   1.00
H135   H     0.84130   0.23760   0.34640   0.01267  Uiso   1.00
H136   H     0.16890   0.00790   0.88580   0.01267  Uiso   1.00
H137   H     0.39590   0.30460   0.73400   0.01267  Uiso   1.00
H138   H     0.68470   0.25360   0.28780   0.01267  Uiso   1.00
H139   H     0.83620   0.51470   0.41690   0.01267  Uiso   1.00
H140   H     0.85270   0.14490   0.12520   0.01267  Uiso   1.00
H141   H     0.50470   0.16690   0.11110   0.01267  Uiso   1.00
H142   H     0.93220   0.14990   0.15150   0.01267  Uiso   1.00
H143   H     0.30880   0.94360   0.06000   0.01267  Uiso   1.00
H144   H     0.19600   0.91630   0.92830   0.01267  Uiso   1.00
H145   H     0.27360   0.11920   0.45100   0.01267  Uiso   1.00
H146   H     0.32470   0.83270   0.07550   0.01267  Uiso   1.00
H147   H     0.94340   0.40540   0.94240   0.01267  Uiso   1.00
H148   H     0.11300   0.00190   0.32390   0.01267  Uiso   1.00
H149   H     0.76180   0.25900   0.31720   0.01267  Uiso   1.00
H150   H     0.44110   0.35900   0.20450   0.01267  Uiso   1.00
H151   H     0.97620   0.44940   0.23250   0.01267  Uiso   1.00
H152   H     0.10710   0.97550   0.18410   0.01267  Uiso   1.00
H153   H     0.06480   0.25290   0.55230   0.01267  Uiso   1.00
H154   H     0.43800   0.13160   0.14340   0.01267  Uiso   1.00
H155   H     0.15900   0.10060   0.86500   0.01267  Uiso   1.00
H156   H     0.34760   0.00290   0.70310   0.01267  Uiso   1.00
H157   H     0.15810   0.84100   0.02690   0.01267  Uiso   1.00
H158   H     0.29200   0.13760   0.51820   0.01267  Uiso   1.00
H159   H     0.32680   0.17990   0.56880   0.01267  Uiso   1.00
H160   H     0.40580   0.84770   0.81140   0.01267  Uiso   1.00
H161   H     0.10140   0.30200   0.58600   0.01267  Uiso   1.00
H162   H     0.58440   0.20590   0.06990   0.01267  Uiso   1.00
H163   H     0.08780   0.94440   0.40520   0.01267  Uiso   1.00
H164   H     0.32370   0.09700   0.66170   0.01267  Uiso   1.00
H165   H     0.05890   0.41410   0.27540   0.01267  Uiso   1.00
H166   H     0.25920   0.15830   0.95110   0.01267  Uiso   1.00
H167   H     0.13730   0.31880   0.28930   0.01267  Uiso   1.00
H168   H     0.27950   0.03910   0.10560   0.01267  Uiso   1.00
H169   H     0.09830   0.31590   0.11020   0.01267  Uiso   1.00
H170   H     0.03760   0.21490   0.49210   0.01267  Uiso   1.00
H171   H     0.08190   0.06840   0.23140   0.01267  Uiso   1.00
H172   H     0.92240   0.24700   0.36610   0.01267  Uiso   1.00
H173   H     0.23040   0.22450   0.33780   0.01267  Uiso   1.00
H174   H     0.13010   0.92790   0.08700   0.01267  Uiso   1.00
H175   H     0.49250   0.17670   0.47140   0.01267  Uiso   1.00
H176   H     0.38220   0.93650   0.76300   0.01267  Uiso   1.00
H177   H     0.62070   0.18470   0.27650   0.01267  Uiso   1.00
H178   H     0.57830   0.18530   0.38330   0.01267  Uiso   1.00
H179   H     0.67720   0.37390   0.99690   0.01267  Uiso   1.00
H180   H     0.43450   0.51630   0.10580   0.01267  Uiso   1.00
H181   H     0.21910   0.50550   0.85100   0.01267  Uiso   1.00
H182   H     0.11340   0.35670   0.92670   0.01267  Uiso   1.00
H183   H     0.44750   0.45690   0.75630   0.01267  Uiso   1.00
H184   H     0.42630   0.38580   0.72290   0.01267  Uiso   1.00
H185   H     0.03690   0.41480   0.85790   0.01267  Uiso   1.00
H186   H     0.74530   0.39100   0.07650   0.01267  Uiso   1.00
H187   H     0.82440   0.41090   0.98870   0.01267  Uiso   1.00
H188   H     0.49650   0.46170   0.15820   0.01267  Uiso   1.00
H189   H     0.61660   0.42890   0.94200   0.01267  Uiso   1.00
H190   H     0.12830   0.34640   0.01610   0.01267  Uiso   1.00
H191   H     0.93370   0.10520   0.52660   0.01267  Uiso   1.00
H192   H     0.96100   0.22240   0.93120   0.01267  Uiso   1.00
C1     C     0.72580   0.01740   0.67290   0.01267  Uiso   1.00
C2     C     0.44650   0.11340   0.69370   0.01267  Uiso   1.00
C3     C     0.56410   0.78830   0.43610   0.01267  Uiso   1.00
C4     C     0.19930   0.43390   0.64030   0.01267  Uiso   1.00
C5     C     0.52570   0.10300   0.73110   0.01267  Uiso   1.00
C6     C     0.51530   0.08510   0.68630   0.01267  Uiso   1.00
C7     C     0.82890   0.70100   0.38900   0.01267  Uiso   1.00
C8     C     0.12010   0.47210   0.74770   0.01267  Uiso   1.00
C9     C     0.46580   0.15260   0.78020   0.01267  Uiso   1.00
C10    C     0.60720   0.68070   0.41190   0.01267  Uiso   1.00
C11    C     0.39900   0.17930   0.78540   0.01267  Uiso   1.00
C12    C     0.77710   0.79230   0.10680   0.01267  Uiso   1.00
C13    C     0.81730   0.84720   0.20230   0.01267  Uiso   1.00
C14    C     0.79250   0.88080   0.57660   0.01267  Uiso   1.00
C15    C     0.80380   0.76100   0.94560   0.01267  Uiso   1.00
C16    C     0.98360   0.78870   0.78360   0.01267  Uiso   1.00
C17    C     0.64800   0.87510   0.78850   0.01267  Uiso   1.00
C18    C     0.66120   0.05120   0.67270   0.01267  Uiso   1.00
C19    C     0.86010   0.73210   0.83380   0.01267  Uiso   1.00
C20    C     0.01210   0.67270   0.60470   0.01267  Uiso   1.00
C21    C     0.05980   0.61590   0.61120   0.01267  Uiso   1.00
C22    C     0.01440   0.88210   0.56280   0.01267  Uiso   1.00
C23    C     0.66590   0.02010   0.78110   0.01267  Uiso   1.00
C24    C     0.74650   0.81130   0.94330   0.01267  Uiso   1.00
C25    C     0.03420   0.58330   0.65920   0.01267  Uiso   1.00
C26    C     0.74660   0.82130   0.88740   0.01267  Uiso   1.00
C27    C     0.59980   0.05420   0.78390   0.01267  Uiso   1.00
C28    C     0.69300   0.21700   0.97110   0.01267  Uiso   1.00
C29    C     0.51430   0.67430   0.67600   0.01267  Uiso   1.00
C30    C     0.00300   0.70720   0.16110   0.01267  Uiso   1.00
C31    C     0.59260   0.70410   0.78920   0.01267  Uiso   1.00
C32    C     0.04210   0.67120   0.10430   0.01267  Uiso   1.00
C33    C     0.94680   0.69980   0.21060   0.01267  Uiso   1.00
C34    C     0.12960   0.75320   0.98520   0.01267  Uiso   1.00
C35    C     0.70030   0.38010   0.21480   0.01267  Uiso   1.00
C36    C     0.65830   0.49240   0.22070   0.01267  Uiso   1.00
C37    C     0.57840   0.67600   0.47400   0.01267  Uiso   1.00
C38    C     0.75960   0.58280   0.16980   0.01267  Uiso   1.00
C39    C     0.68480   0.76530   0.72770   0.01267  Uiso   1.00
C40    C     0.71270   0.43140   0.21160   0.01267  Uiso   1.00
C41    C     0.54110   0.67300   0.61170   0.01267  Uiso   1.00
C42    C     0.02920   0.79620   0.79670   0.01267  Uiso   1.00
C43    C     0.57970   0.45000   0.23930   0.01267  Uiso   1.00
C44    C     0.11330   0.76990   0.68760   0.01267  Uiso   1.00
C45    C     0.78220   0.02470   0.13060   0.01267  Uiso   1.00
C46    C     0.64000   0.65400   0.24250   0.01267  Uiso   1.00
C47    C     0.26470   0.76700   0.74000   0.01267  Uiso   1.00
C48    C     0.15140   0.48240   0.62590   0.01267  Uiso   1.00
C49    C     0.16540   0.83100   0.83610   0.01267  Uiso   1.00
C50    C     0.50860   0.79410   0.86850   0.01267  Uiso   1.00
C51    C     0.11830   0.82820   0.82020   0.01267  Uiso   1.00
C52    C     0.73820   0.03090   0.90580   0.01267  Uiso   1.00
C53    C     0.72730   0.01680   0.18070   0.01267  Uiso   1.00
C54    C     0.76590   0.07890   0.10520   0.01267  Uiso   1.00
C55    C     0.77500   0.86000   0.54070   0.01267  Uiso   1.00
C56    C     0.70940   0.16430   0.93550   0.01267  Uiso   1.00
C57    C     0.02830   0.62270   0.09650   0.01267  Uiso   1.00
C58    C     0.92370   0.97660   0.63450   0.01267  Uiso   1.00
C59    C     0.21890   0.76380   0.72260   0.01267  Uiso   1.00
C60    C     0.54590   0.68070   0.81440   0.01267  Uiso   1.00
C61    C     0.06950   0.52120   0.73410   0.01267  Uiso   1.00
C62    C     0.85680   0.01220   0.83220   0.01267  Uiso   1.00
C63    C     0.89760   0.78180   0.48110   0.01267  Uiso   1.00
C64    C     0.60400   0.84850   0.81670   0.01267  Uiso   1.00
C65    C     0.09540   0.78690   0.74840   0.01267  Uiso   1.00
C66    C     0.80590   0.90110   0.17620   0.01267  Uiso   1.00
C67    C     0.69490   0.95850   0.27190   0.01267  Uiso   1.00
C68    C     0.80710   0.16070   0.96380   0.01267  Uiso   1.00
C69    C     0.73950   0.82050   0.45870   0.01267  Uiso   1.00
C70    C     0.71930   0.79490   0.42840   0.01267  Uiso   1.00
C71    C     0.64260   0.11950   0.17440   0.01267  Uiso   1.00
C72    C     0.85170   0.72370   0.41850   0.01267  Uiso   1.00
C73    C     0.46140   0.77070   0.89370   0.01267  Uiso   1.00
C74    C     0.78930   0.05150   0.88420   0.01267  Uiso   1.00
C75    C     0.93920   0.01050   0.58600   0.01267  Uiso   1.00
C76    C     0.70900   0.90270   0.29650   0.01267  Uiso   1.00
C77    C     0.96000   0.60850   0.69420   0.01267  Uiso   1.00
C78    C     0.77090   0.80040   0.05310   0.01267  Uiso   1.00
C79    C     0.91340   0.66490   0.68630   0.01267  Uiso   1.00
C80    C     0.75520   0.97480   0.87830   0.01267  Uiso   1.00
C81    C     0.86150   0.72010   0.88960   0.01267  Uiso   1.00
C82    C     0.77290   0.10900   0.91630   0.01267  Uiso   1.00
C83    C     0.91370   0.80410   0.51660   0.01267  Uiso   1.00
C84    C     0.59640   0.06970   0.72930   0.01267  Uiso   1.00
C85    C     0.87230   0.95680   0.80420   0.01267  Uiso   1.00
C86    C     0.57430   0.76320   0.81470   0.01267  Uiso   1.00
C87    C     0.14460   0.79420   0.76390   0.01267  Uiso   1.00
C88    C     0.06550   0.76350   0.67590   0.01267  Uiso   1.00
C89    C     0.72690   0.79410   0.70190   0.01267  Uiso   1.00
C90    C     0.50970   0.72560   0.58780   0.01267  Uiso   1.00
C91    C     0.82340   0.10870   0.92880   0.01267  Uiso   1.00
C92    C     0.53350   0.78580   0.49890   0.01267  Uiso   1.00
C93    C     0.65660   0.06650   0.20240   0.01267  Uiso   1.00
C94    C     0.42180   0.77900   0.69440   0.01267  Uiso   1.00
C95    C     0.62180   0.79140   0.78600   0.01267  Uiso   1.00
C96    C     0.80710   0.78390   0.45510   0.01267  Uiso   1.00
C97    C     0.44700   0.77860   0.63130   0.01267  Uiso   1.00
C98    C     0.74370   0.95830   0.20940   0.01267  Uiso   1.00
C99    C     0.53990   0.72900   0.52000   0.01267  Uiso   1.00
C100   C     0.99200   0.98110   0.52580   0.01267  Uiso   1.00
C101   C     0.82740   0.80840   0.49210   0.01267  Uiso   1.00
C102   C     0.37290   0.59590   0.98090   0.01267  Uiso   1.00
C103   C     0.51490   0.51190   0.91770   0.01267  Uiso   1.00
C104   C     0.74380   0.53510   0.17390   0.01267  Uiso   1.00
C105   C     0.85590   0.68390   0.06830   0.01267  Uiso   1.00
C106   C     0.59120   0.50130   0.23570   0.01267  Uiso   1.00
C107   C     0.62170   0.60560   0.24900   0.01267  Uiso   1.00
C108   C     0.97270   0.61760   0.14670   0.01267  Uiso   1.00
C109   C     0.21000   0.64340   0.95310   0.01267  Uiso   1.00
C110   C     0.16320   0.63180   0.00530   0.01267  Uiso   1.00
C111   C     0.47850   0.54470   0.88650   0.01267  Uiso   1.00
C112   C     0.40890   0.56280   0.01330   0.01267  Uiso   1.00
C113   C     0.84870   0.68990   0.01410   0.01267  Uiso   1.00
C114   C     0.02930   0.91660   0.51480   0.01267  Uiso   1.00
C115   C     0.08240   0.74250   0.03910   0.01267  Uiso   1.00
C116   C     0.08530   0.52730   0.67260   0.01267  Uiso   1.00
C117   C     0.80660   0.75090   0.00550   0.01267  Uiso   1.00
C118   C     0.48080   0.51810   0.98260   0.01267  Uiso   1.00
C119   C     0.09730   0.68120   0.05060   0.01267  Uiso   1.00
C120   C     0.67510   0.54460   0.21360   0.01267  Uiso   1.00
C121   C     0.27420   0.98260   0.32710   0.01267  Uiso   1.00
C122   C     0.55350   0.88660   0.30630   0.01267  Uiso   1.00
C123   C     0.43590   0.21170   0.56390   0.01267  Uiso   1.00
C124   C     0.80070   0.56610   0.35970   0.01267  Uiso   1.00
C125   C     0.47430   0.89700   0.26890   0.01267  Uiso   1.00
C126   C     0.48470   0.91490   0.31370   0.01267  Uiso   1.00
C127   C     0.17110   0.29900   0.61100   0.01267  Uiso   1.00
C128   C     0.87990   0.52790   0.25230   0.01267  Uiso   1.00
C129   C     0.53420   0.84740   0.21980   0.01267  Uiso   1.00
C130   C     0.39280   0.31930   0.58810   0.01267  Uiso   1.00
C131   C     0.60100   0.82070   0.21460   0.01267  Uiso   1.00
C132   C     0.22290   0.20770   0.89320   0.01267  Uiso   1.00
C133   C     0.18270   0.15280   0.79770   0.01267  Uiso   1.00
C134   C     0.20750   0.11920   0.42340   0.01267  Uiso   1.00
C135   C     0.19620   0.23900   0.05440   0.01267  Uiso   1.00
C136   C     0.01640   0.21130   0.21640   0.01267  Uiso   1.00
C137   C     0.35200   0.12490   0.21150   0.01267  Uiso   1.00
C138   C     0.33880   0.94880   0.32730   0.01267  Uiso   1.00
C139   C     0.13990   0.26790   0.16620   0.01267  Uiso   1.00
C140   C     0.98790   0.32730   0.39530   0.01267  Uiso   1.00
C141   C     0.94020   0.38410   0.38880   0.01267  Uiso   1.00
C142   C     0.98560   0.11790   0.43720   0.01267  Uiso   1.00
C143   C     0.33410   0.97990   0.21890   0.01267  Uiso   1.00
C144   C     0.25350   0.18870   0.05670   0.01267  Uiso   1.00
C145   C     0.96580   0.41670   0.34080   0.01267  Uiso   1.00
C146   C     0.25340   0.17870   0.11260   0.01267  Uiso   1.00
C147   C     0.40020   0.94580   0.21610   0.01267  Uiso   1.00
C148   C     0.30700   0.78300   0.02890   0.01267  Uiso   1.00
C149   C     0.48570   0.32570   0.32400   0.01267  Uiso   1.00
C150   C     0.99700   0.29280   0.83890   0.01267  Uiso   1.00
C151   C     0.40740   0.29590   0.21080   0.01267  Uiso   1.00
C152   C     0.95790   0.32880   0.89570   0.01267  Uiso   1.00
C153   C     0.05320   0.30020   0.78940   0.01267  Uiso   1.00
C154   C     0.87040   0.24680   0.01480   0.01267  Uiso   1.00
C155   C     0.29970   0.61990   0.78520   0.01267  Uiso   1.00
C156   C     0.34170   0.50760   0.77930   0.01267  Uiso   1.00
C157   C     0.42160   0.32400   0.52600   0.01267  Uiso   1.00
C158   C     0.24040   0.41720   0.83020   0.01267  Uiso   1.00
C159   C     0.31520   0.23470   0.27230   0.01267  Uiso   1.00
C160   C     0.28730   0.56860   0.78840   0.01267  Uiso   1.00
C161   C     0.45890   0.32700   0.38830   0.01267  Uiso   1.00
C162   C     0.97080   0.20380   0.20330   0.01267  Uiso   1.00
C163   C     0.42030   0.55000   0.76070   0.01267  Uiso   1.00
C164   C     0.88670   0.23010   0.31240   0.01267  Uiso   1.00
C165   C     0.21780   0.97530   0.86940   0.01267  Uiso   1.00
C166   C     0.36000   0.34600   0.75750   0.01267  Uiso   1.00
C167   C     0.73530   0.23300   0.26000   0.01267  Uiso   1.00
C168   C     0.84860   0.51760   0.37410   0.01267  Uiso   1.00
C169   C     0.83460   0.16900   0.16390   0.01267  Uiso   1.00
C170   C     0.49140   0.20590   0.13150   0.01267  Uiso   1.00
C171   C     0.88170   0.17180   0.17980   0.01267  Uiso   1.00
C172   C     0.26180   0.96910   0.09420   0.01267  Uiso   1.00
C173   C     0.27270   0.98320   0.81930   0.01267  Uiso   1.00
C174   C     0.23410   0.92110   0.89480   0.01267  Uiso   1.00
C175   C     0.22500   0.14000   0.45930   0.01267  Uiso   1.00
C176   C     0.29060   0.83570   0.06450   0.01267  Uiso   1.00
C177   C     0.97170   0.37730   0.90350   0.01267  Uiso   1.00
C178   C     0.07630   0.02340   0.36550   0.01267  Uiso   1.00
C179   C     0.78110   0.23620   0.27740   0.01267  Uiso   1.00
C180   C     0.45410   0.31930   0.18560   0.01267  Uiso   1.00
C181   C     0.93050   0.47880   0.26590   0.01267  Uiso   1.00
C182   C     0.14320   0.98780   0.16780   0.01267  Uiso   1.00
C183   C     0.10240   0.21820   0.51890   0.01267  Uiso   1.00
C184   C     0.39600   0.15150   0.18330   0.01267  Uiso   1.00
C185   C     0.90460   0.21310   0.25160   0.01267  Uiso   1.00
C186   C     0.19410   0.09890   0.82380   0.01267  Uiso   1.00
C187   C     0.30510   0.04150   0.72810   0.01267  Uiso   1.00
C188   C     0.19290   0.83930   0.03620   0.01267  Uiso   1.00
C189   C     0.26050   0.17950   0.54130   0.01267  Uiso   1.00
C190   C     0.28070   0.20510   0.57160   0.01267  Uiso   1.00
C191   C     0.35740   0.88050   0.82560   0.01267  Uiso   1.00
C192   C     0.14830   0.27630   0.58150   0.01267  Uiso   1.00
C193   C     0.53860   0.22930   0.10630   0.01267  Uiso   1.00
C194   C     0.21070   0.94850   0.11580   0.01267  Uiso   1.00
C195   C     0.06080   0.98950   0.41400   0.01267  Uiso   1.00
C196   C     0.29100   0.09730   0.70350   0.01267  Uiso   1.00
C197   C     0.04000   0.39150   0.30580   0.01267  Uiso   1.00
C198   C     0.22910   0.19960   0.94690   0.01267  Uiso   1.00
C199   C     0.08660   0.33510   0.31370   0.01267  Uiso   1.00
C200   C     0.24480   0.02520   0.12170   0.01267  Uiso   1.00
C201   C     0.13850   0.27990   0.11040   0.01267  Uiso   1.00
C202   C     0.22710   0.89100   0.08370   0.01267  Uiso   1.00
C203   C     0.08630   0.19590   0.48340   0.01267  Uiso   1.00
C204   C     0.40360   0.93030   0.27070   0.01267  Uiso   1.00
C205   C     0.12770   0.04320   0.19580   0.01267  Uiso   1.00
C206   C     0.42570   0.23680   0.18530   0.01267  Uiso   1.00
C207   C     0.85540   0.20580   0.23610   0.01267  Uiso   1.00
C208   C     0.93450   0.23650   0.32410   0.01267  Uiso   1.00
C209   C     0.27310   0.20590   0.29810   0.01267  Uiso   1.00
C210   C     0.49030   0.27440   0.41220   0.01267  Uiso   1.00
C211   C     0.17660   0.89130   0.07120   0.01267  Uiso   1.00
C212   C     0.46650   0.21420   0.50110   0.01267  Uiso   1.00
C213   C     0.34340   0.93350   0.79760   0.01267  Uiso   1.00
C214   C     0.57820   0.22100   0.30560   0.01267  Uiso   1.00
C215   C     0.37820   0.20860   0.21400   0.01267  Uiso   1.00
C216   C     0.19290   0.21610   0.54490   0.01267  Uiso   1.00
C217   C     0.55300   0.22140   0.36870   0.01267  Uiso   1.00
C218   C     0.25630   0.04170   0.79060   0.01267  Uiso   1.00
C219   C     0.46010   0.27100   0.48000   0.01267  Uiso   1.00
C220   C     0.00800   0.01890   0.47420   0.01267  Uiso   1.00
C221   C     0.17260   0.19160   0.50790   0.01267  Uiso   1.00
C222   C     0.62710   0.40410   0.01910   0.01267  Uiso   1.00
C223   C     0.48510   0.48810   0.08230   0.01267  Uiso   1.00
C224   C     0.25620   0.46490   0.82610   0.01267  Uiso   1.00
C225   C     0.14410   0.31610   0.93170   0.01267  Uiso   1.00
C226   C     0.40880   0.49870   0.76430   0.01267  Uiso   1.00
C227   C     0.37830   0.39440   0.75100   0.01267  Uiso   1.00
C228   C     0.02730   0.38240   0.85330   0.01267  Uiso   1.00
C229   C     0.79000   0.35660   0.04690   0.01267  Uiso   1.00
C230   C     0.83680   0.36820   0.99470   0.01267  Uiso   1.00
C231   C     0.52150   0.45530   0.11350   0.01267  Uiso   1.00
C232   C     0.59110   0.43720   0.98670   0.01267  Uiso   1.00
C233   C     0.15130   0.31010   0.98590   0.01267  Uiso   1.00
C234   C     0.97070   0.08340   0.48520   0.01267  Uiso   1.00
C235   C     0.91760   0.25750   0.96090   0.01267  Uiso   1.00
C236   C     0.91470   0.47270   0.32740   0.01267  Uiso   1.00
C237   C     0.19340   0.24910   0.99450   0.01267  Uiso   1.00
C238   C     0.51920   0.48190   0.01740   0.01267  Uiso   1.00
C239   C     0.90270   0.31880   0.94940   0.01267  Uiso   1.00
C240   C     0.32490   0.45540   0.78640   0.01267  Uiso   1.00
N1     N     0.70740   0.84850   0.73290   0.01267  Uiso   1.00
N2     N     0.82180   0.93840   0.82780   0.01267  Uiso   1.00
N3     N     0.00270   0.77230   0.72360   0.01267  Uiso   1.00
N4     N     0.94060   0.69720   0.64280   0.01267  Uiso   1.00
N5     N     0.96150   0.91260   0.62180   0.01267  Uiso   1.00
N6     N     0.72800   0.00100   0.72600   0.01267  Uiso   1.00
N7     N     0.80350   0.78270   0.83350   0.01267  Uiso   1.00
N8     N     0.86150   0.85300   0.56450   0.01267  Uiso   1.00
N9     N     0.70570   0.64200   0.20460   0.01267  Uiso   1.00
N10    N     0.63480   0.39060   0.22680   0.01267  Uiso   1.00
N11    N     0.19250   0.70460   0.94310   0.01267  Uiso   1.00
N12    N     0.39000   0.15860   0.74270   0.01267  Uiso   1.00
N13    N     0.93220   0.65630   0.20120   0.01267  Uiso   1.00
N14    N     0.82130   0.73280   0.11210   0.01267  Uiso   1.00
N15    N     0.45700   0.72770   0.71570   0.01267  Uiso   1.00
N16    N     0.69830   0.12530   0.12600   0.01267  Uiso   1.00
N17    N     0.60060   0.73650   0.39340   0.01267  Uiso   1.00
N18    N     0.74260   0.21380   0.98480   0.01267  Uiso   1.00
N19    N     0.76890   0.84830   0.26130   0.01267  Uiso   1.00
N20    N     0.48070   0.71430   0.86640   0.01267  Uiso   1.00
N21    N     0.18360   0.43010   0.70090   0.01267  Uiso   1.00
N22    N     0.76160   0.73650   0.39530   0.01267  Uiso   1.00
N23    N     0.23710   0.79920   0.79580   0.01267  Uiso   1.00
N24    N     0.40900   0.58530   0.91760   0.01267  Uiso   1.00
N25    N     0.29260   0.15150   0.26710   0.01267  Uiso   1.00
N26    N     0.17820   0.06160   0.17220   0.01267  Uiso   1.00
N27    N     0.99730   0.22770   0.27640   0.01267  Uiso   1.00
N28    N     0.05940   0.30280   0.35720   0.01267  Uiso   1.00
N29    N     0.03850   0.08740   0.37820   0.01267  Uiso   1.00
N30    N     0.27200   0.99900   0.27400   0.01267  Uiso   1.00
N31    N     0.19650   0.21730   0.16650   0.01267  Uiso   1.00
N32    N     0.13850   0.14700   0.43550   0.01267  Uiso   1.00
N33    N     0.29430   0.35800   0.79540   0.01267  Uiso   1.00
N34    N     0.36520   0.60940   0.77320   0.01267  Uiso   1.00
N35    N     0.80750   0.29540   0.05690   0.01267  Uiso   1.00
N36    N     0.61000   0.84140   0.25730   0.01267  Uiso   1.00
N37    N     0.06780   0.34370   0.79880   0.01267  Uiso   1.00
N38    N     0.17870   0.26720   0.88790   0.01267  Uiso   1.00
N39    N     0.54300   0.27230   0.28430   0.01267  Uiso   1.00
N40    N     0.30170   0.87470   0.87400   0.01267  Uiso   1.00
N41    N     0.39940   0.26350   0.60660   0.01267  Uiso   1.00
N42    N     0.25740   0.78620   0.01520   0.01267  Uiso   1.00
N43    N     0.23110   0.15170   0.73870   0.01267  Uiso   1.00
N44    N     0.51930   0.28570   0.13360   0.01267  Uiso   1.00
N45    N     0.81640   0.56990   0.29910   0.01267  Uiso   1.00
N46    N     0.23840   0.26350   0.60470   0.01267  Uiso   1.00
N47    N     0.76290   0.20080   0.20420   0.01267  Uiso   1.00
N48    N     0.59100   0.41470   0.08240   0.01267  Uiso   1.00
O1     O     0.87660   0.87430   0.60090   0.01267  Uiso   1.00
O2     O     0.74720   0.87700   0.70790   0.01267  Uiso   1.00
O3     O     0.68360   0.17710   0.09950   0.01267  Uiso   1.00
O4     O     0.73850   0.71390   0.36900   0.01267  Uiso   1.00
O5     O     0.80270   0.79430   0.77940   0.01267  Uiso   1.00
O6     O     0.78000   0.79560   0.28550   0.01267  Uiso   1.00
O7     O     0.43540   0.73090   0.77730   0.01267  Uiso   1.00
O8     O     0.95770   0.76580   0.71180   0.01267  Uiso   1.00
O9     O     0.23220   0.38480   0.71480   0.01267  Uiso   1.00
O10    O     0.43520   0.69140   0.88990   0.01267  Uiso   1.00
O11    O     0.63040   0.74070   0.33280   0.01267  Uiso   1.00
O12    O     0.28140   0.80050   0.81310   0.01267  Uiso   1.00
O13    O     0.79090   0.96390   0.72440   0.01267  Uiso   1.00
O14    O     0.32450   0.18160   0.75000   0.01267  Uiso   1.00
O15    O     0.89510   0.75520   0.63950   0.01267  Uiso   1.00
O16    O     0.94750   0.87910   0.66720   0.01267  Uiso   1.00
O17    O     0.37300   0.61680   0.88630   0.01267  Uiso   1.00
O18    O     0.83770   0.88290   0.80310   0.01267  Uiso   1.00
O19    O     0.62480   0.34150   0.22800   0.01267  Uiso   1.00
O20    O     0.87570   0.65280   0.24740   0.01267  Uiso   1.00
O21    O     0.23670   0.71580   0.89030   0.01267  Uiso   1.00
O22    O     0.72580   0.26170   0.02180   0.01267  Uiso   1.00
O23    O     0.83070   0.72440   0.16250   0.01267  Uiso   1.00
O24    O     0.72270   0.68790   0.19880   0.01267  Uiso   1.00
O25    O     0.12340   0.12570   0.39910   0.01267  Uiso   1.00
O26    O     0.25280   0.12300   0.29210   0.01267  Uiso   1.00
O27    O     0.31640   0.82290   0.90050   0.01267  Uiso   1.00
O28    O     0.26150   0.28610   0.63100   0.01267  Uiso   1.00
O29    O     0.19730   0.20570   0.22060   0.01267  Uiso   1.00
O30    O     0.22000   0.20440   0.71450   0.01267  Uiso   1.00
O31    O     0.56460   0.26910   0.22270   0.01267  Uiso   1.00
O32    O     0.04230   0.23420   0.28820   0.01267  Uiso   1.00
O33    O     0.76780   0.61520   0.28520   0.01267  Uiso   1.00
O34    O     0.56480   0.30860   0.11010   0.01267  Uiso   1.00
O35    O     0.36960   0.25930   0.66720   0.01267  Uiso   1.00
O36    O     0.71860   0.19950   0.18690   0.01267  Uiso   1.00
O37    O     0.20910   0.03610   0.27560   0.01267  Uiso   1.00
O38    O     0.67550   0.81840   0.25000   0.01267  Uiso   1.00
O39    O     0.10490   0.24480   0.36050   0.01267  Uiso   1.00
O40    O     0.05250   0.12090   0.33280   0.01267  Uiso   1.00
O41    O     0.62700   0.38320   0.11370   0.01267  Uiso   1.00
O42    O     0.16230   0.11710   0.19690   0.01267  Uiso   1.00
O43    O     0.37520   0.65850   0.77200   0.01267  Uiso   1.00
O44    O     0.12430   0.34720   0.75260   0.01267  Uiso   1.00
O45    O     0.76330   0.28420   0.10970   0.01267  Uiso   1.00
O46    O     0.27420   0.73830   0.97820   0.01267  Uiso   1.00
O47    O     0.16930   0.27560   0.83750   0.01267  Uiso   1.00
O48    O     0.27730   0.31210   0.80120   0.01267  Uiso   1.00
C241   C     0.87770   0.89220   0.97310   0.01267  Uiso   1.00
S1     S     0.94080   0.84410   0.99790   0.01267  Uiso   1.00
O49    O     0.00580   0.81300   0.93950   0.01267  Uiso   1.00
O50    O     0.91690   0.80170   0.03470   0.01267  Uiso   1.00
O51    O     0.94100   0.88970   0.03130   0.01267  Uiso   1.00
F1     F     0.89110   0.93310   0.94200   0.01267  Uiso   1.00
F2     F     0.86730   0.86350   0.94150   0.01267  Uiso   1.00
F3     F     0.81200   0.92710   0.02250   0.01267  Uiso   1.00
C242   C     0.59750   0.97960   0.13260   0.01267  Uiso   1.00
S2     S     0.61830   0.00840   0.06090   0.01267  Uiso   1.00
O52    O     0.63390   0.05460   0.07150   0.01267  Uiso   1.00
O53    O     0.55350   0.03780   0.05470   0.01267  Uiso   1.00
O54    O     0.67990   0.95290   0.01600   0.01267  Uiso   1.00
F4     F     0.54640   0.02020   0.18100   0.01267  Uiso   1.00
F5     F     0.65130   0.94940   0.14150   0.01267  Uiso   1.00
F6     F     0.57800   0.93610   0.13330   0.01267  Uiso   1.00
C243   C     0.56580   0.87760   0.65030   0.01267  Uiso   1.00
S3     S     0.51400   0.91600   0.61270   0.01267  Uiso   1.00
O55    O     0.46550   0.89130   0.63600   0.01267  Uiso   1.00
O56    O     0.56460   0.89330   0.54590   0.01267  Uiso   1.00
O57    O     0.47810   0.98230   0.63660   0.01267  Uiso   1.00
F7     F     0.53110   0.88540   0.70960   0.01267  Uiso   1.00
F8     F     0.61020   0.81920   0.62830   0.01267  Uiso   1.00
F9     F     0.61060   0.89990   0.64000   0.01267  Uiso   1.00
C244   C     0.30460   0.52010   0.25800   0.01267  Uiso   1.00
S4     S     0.34380   0.48230   0.30530   0.01267  Uiso   1.00
O58    O     0.30610   0.53140   0.35700   0.01267  Uiso   1.00
O59    O     0.32770   0.43050   0.32370   0.01267  Uiso   1.00
O60    O     0.41880   0.46370   0.26600   0.01267  Uiso   1.00
F10    F     0.31530   0.56550   0.23640   0.01267  Uiso   1.00
F11    F     0.23800   0.53850   0.28280   0.01267  Uiso   1.00
F12    F     0.33430   0.47970   0.20610   0.01267  Uiso   1.00
C245   C     0.42720   0.60570   0.57430   0.01267  Uiso   1.00
S5     S     0.37790   0.67630   0.55340   0.01267  Uiso   1.00
O61    O     0.37230   0.72310   0.58940   0.01267  Uiso   1.00
O62    O     0.42100   0.67170   0.48600   0.01267  Uiso   1.00
O63    O     0.30990   0.67870   0.57480   0.01267  Uiso   1.00
F13    F     0.44160   0.55550   0.54650   0.01267  Uiso   1.00
F14    F     0.39950   0.60450   0.63270   0.01267  Uiso   1.00
F15    F     0.49280   0.59640   0.55830   0.01267  Uiso   1.00
C246   C     0.45270   0.16410   0.98590   0.01267  Uiso   1.00
S6     S     0.52870   0.17190   0.93490   0.01267  Uiso   1.00
O64    O     0.50710   0.20750   0.89210   0.01267  Uiso   1.00
O65    O     0.53800   0.20610   0.97220   0.01267  Uiso   1.00
O66    O     0.58500   0.10730   0.90620   0.01267  Uiso   1.00
F16    F     0.43070   0.14480   0.95820   0.01267  Uiso   1.00
F17    F     0.45810   0.13090   0.02800   0.01267  Uiso   1.00
F18    F     0.39580   0.22070   0.01920   0.01267  Uiso   1.00
C247   C     0.67180   0.07700   0.48200   0.01267  Uiso   1.00
S7     S     0.63930   0.02440   0.48870   0.01267  Uiso   1.00
O67    O     0.56350   0.06660   0.51800   0.01267  Uiso   1.00
O68    O     0.67000   0.99400   0.42530   0.01267  Uiso   1.00
O69    O     0.66000   0.98430   0.53000   0.01267  Uiso   1.00
F19    F     0.65500   0.12020   0.45000   0.01267  Uiso   1.00
F20    F     0.65600   0.10220   0.53400   0.01267  Uiso   1.00
F21    F     0.74420   0.04620   0.45100   0.01267  Uiso   1.00
C248   C     0.12230   0.10780   0.02690   0.01267  Uiso   1.00
S8     S     0.05920   0.15590   0.00210   0.01267  Uiso   1.00
O70    O     0.99420   0.18700   0.06050   0.01267  Uiso   1.00
O71    O     0.08310   0.19830   0.96530   0.01267  Uiso   1.00
O72    O     0.05900   0.11030   0.96870   0.01267  Uiso   1.00
F22    F     0.10890   0.06690   0.05800   0.01267  Uiso   1.00
F23    F     0.13270   0.13650   0.05850   0.01267  Uiso   1.00
F24    F     0.18800   0.07290   0.97750   0.01267  Uiso   1.00
C249   C     0.40250   0.02040   0.86740   0.01267  Uiso   1.00
S9     S     0.38170   0.99160   0.93910   0.01267  Uiso   1.00
O73    O     0.36610   0.94540   0.92850   0.01267  Uiso   1.00
O74    O     0.44650   0.96220   0.94530   0.01267  Uiso   1.00
O75    O     0.32010   0.04710   0.98400   0.01267  Uiso   1.00
F25    F     0.45360   0.97980   0.81900   0.01267  Uiso   1.00
F26    F     0.34870   0.05060   0.85850   0.01267  Uiso   1.00
F27    F     0.42200   0.06390   0.86670   0.01267  Uiso   1.00
C250   C     0.43420   0.12240   0.34970   0.01267  Uiso   1.00
S10    S     0.48600   0.08400   0.38730   0.01267  Uiso   1.00
O76    O     0.53450   0.10870   0.36400   0.01267  Uiso   1.00
O77    O     0.43540   0.10670   0.45410   0.01267  Uiso   1.00
O78    O     0.52190   0.01770   0.36340   0.01267  Uiso   1.00
F28    F     0.46890   0.11460   0.29040   0.01267  Uiso   1.00
F29    F     0.38980   0.18080   0.37170   0.01267  Uiso   1.00
F30    F     0.38940   0.10010   0.36000   0.01267  Uiso   1.00
C251   C     0.69540   0.47990   0.74200   0.01267  Uiso   1.00
S11    S     0.65620   0.51770   0.69470   0.01267  Uiso   1.00
O79    O     0.69390   0.46860   0.64300   0.01267  Uiso   1.00
O80    O     0.67230   0.56950   0.67630   0.01267  Uiso   1.00
O81    O     0.58120   0.53630   0.73400   0.01267  Uiso   1.00
F31    F     0.68470   0.43450   0.76360   0.01267  Uiso   1.00
F32    F     0.76200   0.46150   0.71720   0.01267  Uiso   1.00
F33    F     0.66570   0.52030   0.79390   0.01267  Uiso   1.00
C252   C     0.57280   0.39430   0.42570   0.01267  Uiso   1.00
S12    S     0.62210   0.32370   0.44660   0.01267  Uiso   1.00
O82    O     0.62770   0.27690   0.41060   0.01267  Uiso   1.00
O83    O     0.57900   0.32830   0.51400   0.01267  Uiso   1.00
O84    O     0.69010   0.32130   0.42520   0.01267  Uiso   1.00
F34    F     0.55840   0.44450   0.45350   0.01267  Uiso   1.00
F35    F     0.60050   0.39550   0.36730   0.01267  Uiso   1.00
F36    F     0.50720   0.40360   0.44170   0.01267  Uiso   1.00
C253   C     0.54730   0.83590   0.01410   0.01267  Uiso   1.00
S13    S     0.47130   0.82810   0.06510   0.01267  Uiso   1.00
O85    O     0.49290   0.79250   0.10790   0.01267  Uiso   1.00
O86    O     0.46200   0.79390   0.02780   0.01267  Uiso   1.00
O87    O     0.41500   0.89270   0.09380   0.01267  Uiso   1.00
F37    F     0.56930   0.85520   0.04180   0.01267  Uiso   1.00
F38    F     0.54190   0.86910   0.97200   0.01267  Uiso   1.00
F39    F     0.60420   0.77930   0.98080   0.01267  Uiso   1.00
C254   C     0.32820   0.92300   0.51800   0.01267  Uiso   1.00
S14    S     0.36070   0.97560   0.51130   0.01267  Uiso   1.00
O88    O     0.43650   0.93340   0.48200   0.01267  Uiso   1.00
O89    O     0.33000   0.00600   0.57470   0.01267  Uiso   1.00
O90    O     0.34000   0.01570   0.47000   0.01267  Uiso   1.00
F40    F     0.34500   0.87980   0.55000   0.01267  Uiso   1.00
F41    F     0.34400   0.89780   0.46600   0.01267  Uiso   1.00
F42    F     0.25580   0.95380   0.54900   0.01267  Uiso   1.00
Cl1    Cl    0.20210   0.58840   0.67680   0.01267  Uiso   1.00
Cl2    Cl    0.29370   0.52090   0.54420   0.01267  Uiso   1.00
Cl3    Cl    0.34340   0.48270   0.62780   0.01267  Uiso   1.00
Cl4    Cl    0.94970   0.35400   0.69470   0.01267  Uiso   1.00
Cl5    Cl    0.99190   0.43330   0.71270   0.01267  Uiso   1.00
Cl6    Cl    0.42920   0.07930   0.56930   0.01267  Uiso   1.00
Cl7    Cl    0.60770   0.96420   0.91680   0.01267  Uiso   1.00
Cl8    Cl    0.06410   0.62180   0.84250   0.01267  Uiso   1.00
Cl9    Cl    0.06700   0.47740   0.89880   0.01267  Uiso   1.00
Cl10   Cl    0.12770   0.72550   0.52220   0.01267  Uiso   1.00
Cl11   Cl    0.79790   0.41160   0.32320   0.01267  Uiso   1.00
Cl12   Cl    0.70630   0.47910   0.45580   0.01267  Uiso   1.00
Cl13   Cl    0.65660   0.51730   0.37220   0.01267  Uiso   1.00
Cl14   Cl    0.05030   0.64600   0.30530   0.01267  Uiso   1.00
Cl15   Cl    0.00810   0.56670   0.28730   0.01267  Uiso   1.00
Cl16   Cl    0.57080   0.92070   0.43070   0.01267  Uiso   1.00
Cl17   Cl    0.39230   0.03580   0.08320   0.01267  Uiso   1.00
Cl18   Cl    0.93590   0.37820   0.15750   0.01267  Uiso   1.00
Cl19   Cl    0.93300   0.52260   0.10120   0.01267  Uiso   1.00
Cl20   Cl    0.87230   0.27450   0.47780   0.01267  Uiso   1.00
