data_image0
_cell_length_a       14.3986
_cell_length_b       31.365
_cell_length_c       32.0647
_cell_angle_alpha    90
_cell_angle_beta     90
_cell_angle_gamma    90

_symmetry_space_group_name_H-M    "P 1"
_symmetry_int_tables_number       1

loop_
  _symmetry_equiv_pos_as_xyz
  'x, y, z'

loop_
  _atom_site_label
  _atom_site_occupancy
  _atom_site_fract_x
  _atom_site_fract_y
  _atom_site_fract_z
  _atom_site_thermal_displace_type
  _atom_site_B_iso_or_equiv
  _atom_site_type_symbol
  C1       1.0000 0.07610  0.23350  0.69889  Biso   1.000  C
  C2       1.0000 0.11990  0.20368  0.66727  Biso   1.000  C
  C3       1.0000 0.20970  0.19301  0.66831  Biso   1.000  C
  H1       1.0000 0.24850  0.20390  0.68980  Biso   1.000  H
  C4       1.0000 0.19160  0.14732  0.60830  Biso   1.000  C
  C5       1.0000 0.24700  0.16602  0.63803  Biso   1.000  C
  H2       1.0000 0.31190  0.16050  0.63800  Biso   1.000  H
  C6       1.0000 0.05880  0.18530  0.63822  Biso   1.000  C
  H3       1.0000 0.99460  0.19230  0.63820  Biso   1.000  H
  C7       1.0000 0.09570  0.15580  0.60880  Biso   1.000  C
  H4       1.0000 0.05570  0.14180  0.58970  Biso   1.000  H
  C8       1.0000 0.22520  0.11736  0.57586  Biso   1.000  C
  C9       1.0000 0.22480  0.13031  0.53453  Biso   1.000  C
  C10      1.0000 0.28990  0.02300  0.62979  Biso   1.000  C
  H5       1.0000 0.29810  0.00450  0.65300  Biso   1.000  H
  C11      1.0000 0.31460  0.01430  0.58699  Biso   1.000  C
  C12      1.0000 0.19980  0.17259  0.52139  Biso   1.000  C
  H6       1.0000 0.18600  0.19610  0.53900  Biso   1.000  H
  C13      1.0000 0.25330  0.06189  0.63019  Biso   1.000  C
  H7       1.0000 0.23100  0.07690  0.65390  Biso   1.000  H
  C14      1.0000 0.38310  0.94250  0.60700  Biso   1.000  C
  C15      1.0000 0.47730  0.93690  0.61850  Biso   1.000  C
  H8       1.0000 0.52440  0.95450  0.60680  Biso   1.000  H
  C16      1.0000 0.36010  0.97561  0.57470  Biso   1.000  C
  C17      1.0000 0.31430  0.91730  0.62400  Biso   1.000  C
  H9       1.0000 0.25140  0.92140  0.61600  Biso   1.000  H
  C18      1.0000 0.25400  0.07683  0.58792  Biso   1.000  C
  C19      1.0000 0.38580  0.96870  0.53450  Biso   1.000  C
  C20      1.0000 0.43560  0.92970  0.52190  Biso   1.000  C
  H10      1.0000 0.46230  0.90880  0.53970  Biso   1.000  H
  C21      1.0000 0.42980  0.87951  0.66402  Biso   1.000  C
  C22      1.0000 0.33700  0.88610  0.65260  Biso   1.000  C
  H11      1.0000 0.28940  0.86910  0.66460  Biso   1.000  H
  C23      1.0000 0.50030  0.90480  0.64760  Biso   1.000  C
  H12      1.0000 0.56290  0.90060  0.65580  Biso   1.000  H
  C24      1.0000 0.45650  0.84545  0.69470  Biso   1.000  C
  N1       1.0000 0.29180  0.04603  0.56197  Biso   1.000  N
  O1       1.0000 0.12820  0.25203  0.72468  Biso   1.000  O
  O2       1.0000 0.99030  0.24080  0.69755  Biso   1.000  O
  O3       1.0000 0.39080  0.82335  0.71115  Biso   1.000  O
  O4       1.0000 0.54060  0.83968  0.70374  Biso   1.000  O
  C25      1.0000 0.57610  0.73350  0.69889  Biso   1.000  C
  C26      1.0000 0.61990  0.70368  0.66727  Biso   1.000  C
  C27      1.0000 0.70970  0.69301  0.66831  Biso   1.000  C
  H13      1.0000 0.74850  0.70390  0.68980  Biso   1.000  H
  C28      1.0000 0.69160  0.64732  0.60830  Biso   1.000  C
  C29      1.0000 0.74700  0.66602  0.63803  Biso   1.000  C
  H14      1.0000 0.81190  0.66050  0.63800  Biso   1.000  H
  C30      1.0000 0.55880  0.68530  0.63822  Biso   1.000  C
  H15      1.0000 0.49460  0.69230  0.63820  Biso   1.000  H
  C31      1.0000 0.59570  0.65580  0.60880  Biso   1.000  C
  H16      1.0000 0.55570  0.64180  0.58970  Biso   1.000  H
  C32      1.0000 0.72520  0.61736  0.57586  Biso   1.000  C
  C33      1.0000 0.72480  0.63031  0.53453  Biso   1.000  C
  C34      1.0000 0.78990  0.52300  0.62979  Biso   1.000  C
  H17      1.0000 0.79810  0.50450  0.65300  Biso   1.000  H
  C35      1.0000 0.81460  0.51430  0.58699  Biso   1.000  C
  C36      1.0000 0.69980  0.67259  0.52139  Biso   1.000  C
  H18      1.0000 0.68600  0.69610  0.53900  Biso   1.000  H
  C37      1.0000 0.75330  0.56189  0.63019  Biso   1.000  C
  H19      1.0000 0.73100  0.57690  0.65390  Biso   1.000  H
  C38      1.0000 0.88310  0.44250  0.60700  Biso   1.000  C
  C39      1.0000 0.97730  0.43690  0.61850  Biso   1.000  C
  H20      1.0000 0.02440  0.45450  0.60680  Biso   1.000  H
  C40      1.0000 0.86010  0.47561  0.57470  Biso   1.000  C
  C41      1.0000 0.81430  0.41730  0.62400  Biso   1.000  C
  H21      1.0000 0.75140  0.42140  0.61600  Biso   1.000  H
  C42      1.0000 0.75400  0.57683  0.58792  Biso   1.000  C
  C43      1.0000 0.88580  0.46870  0.53450  Biso   1.000  C
  C44      1.0000 0.93560  0.42970  0.52190  Biso   1.000  C
  H22      1.0000 0.96230  0.40880  0.53970  Biso   1.000  H
  C45      1.0000 0.92980  0.37951  0.66402  Biso   1.000  C
  C46      1.0000 0.83700  0.38610  0.65260  Biso   1.000  C
  H23      1.0000 0.78940  0.36910  0.66460  Biso   1.000  H
  C47      1.0000 0.00030  0.40480  0.64760  Biso   1.000  C
  H24      1.0000 0.06290  0.40060  0.65580  Biso   1.000  H
  C48      1.0000 0.95650  0.34545  0.69470  Biso   1.000  C
  N2       1.0000 0.79180  0.54603  0.56197  Biso   1.000  N
  O5       1.0000 0.62820  0.75203  0.72468  Biso   1.000  O
  O6       1.0000 0.49030  0.74080  0.69755  Biso   1.000  O
  O7       1.0000 0.89080  0.32335  0.71115  Biso   1.000  O
  O8       1.0000 0.04060  0.33968  0.70374  Biso   1.000  O
  C49      1.0000 0.92390  0.23350  0.80111  Biso   1.000  C
  C50      1.0000 0.88010  0.20368  0.83273  Biso   1.000  C
  C51      1.0000 0.79030  0.19301  0.83169  Biso   1.000  C
  H25      1.0000 0.75150  0.20390  0.81020  Biso   1.000  H
  C52      1.0000 0.80840  0.14732  0.89170  Biso   1.000  C
  C53      1.0000 0.75300  0.16602  0.86197  Biso   1.000  C
  H26      1.0000 0.68810  0.16050  0.86200  Biso   1.000  H
  C54      1.0000 0.94120  0.18530  0.86178  Biso   1.000  C
  H27      1.0000 0.00540  0.19230  0.86180  Biso   1.000  H
  C55      1.0000 0.90430  0.15580  0.89120  Biso   1.000  C
  H28      1.0000 0.94430  0.14180  0.91030  Biso   1.000  H
  C56      1.0000 0.77480  0.11736  0.92414  Biso   1.000  C
  C57      1.0000 0.77520  0.13031  0.96547  Biso   1.000  C
  C58      1.0000 0.71010  0.02300  0.87021  Biso   1.000  C
  H29      1.0000 0.70190  0.00450  0.84700  Biso   1.000  H
  C59      1.0000 0.68540  0.01430  0.91301  Biso   1.000  C
  C60      1.0000 0.80020  0.17259  0.97861  Biso   1.000  C
  H30      1.0000 0.81400  0.19610  0.96100  Biso   1.000  H
  C61      1.0000 0.74670  0.06189  0.86981  Biso   1.000  C
  H31      1.0000 0.76900  0.07690  0.84610  Biso   1.000  H
  C62      1.0000 0.61690  0.94250  0.89300  Biso   1.000  C
  C63      1.0000 0.52270  0.93690  0.88150  Biso   1.000  C
  H32      1.0000 0.47560  0.95450  0.89320  Biso   1.000  H
  C64      1.0000 0.63990  0.97561  0.92530  Biso   1.000  C
  C65      1.0000 0.68570  0.91730  0.87600  Biso   1.000  C
  H33      1.0000 0.74860  0.92140  0.88400  Biso   1.000  H
  C66      1.0000 0.74600  0.07683  0.91208  Biso   1.000  C
  C67      1.0000 0.61420  0.96870  0.96550  Biso   1.000  C
  C68      1.0000 0.56440  0.92970  0.97810  Biso   1.000  C
  H34      1.0000 0.53770  0.90880  0.96030  Biso   1.000  H
  C69      1.0000 0.57020  0.87951  0.83598  Biso   1.000  C
  C70      1.0000 0.66300  0.88610  0.84740  Biso   1.000  C
  H35      1.0000 0.71060  0.86910  0.83540  Biso   1.000  H
  C71      1.0000 0.49970  0.90480  0.85240  Biso   1.000  C
  H36      1.0000 0.43710  0.90060  0.84420  Biso   1.000  H
  C72      1.0000 0.54350  0.84545  0.80530  Biso   1.000  C
  N3       1.0000 0.70820  0.04603  0.93803  Biso   1.000  N
  O9       1.0000 0.87180  0.25203  0.77532  Biso   1.000  O
  O10      1.0000 0.00970  0.24080  0.80245  Biso   1.000  O
  O11      1.0000 0.60920  0.82335  0.78885  Biso   1.000  O
  O12      1.0000 0.45940  0.83968  0.79626  Biso   1.000  O
  C73      1.0000 0.42390  0.73350  0.80111  Biso   1.000  C
  C74      1.0000 0.38010  0.70368  0.83273  Biso   1.000  C
  C75      1.0000 0.29030  0.69301  0.83169  Biso   1.000  C
  H37      1.0000 0.25150  0.70390  0.81020  Biso   1.000  H
  C76      1.0000 0.30840  0.64732  0.89170  Biso   1.000  C
  C77      1.0000 0.25300  0.66602  0.86197  Biso   1.000  C
  H38      1.0000 0.18810  0.66050  0.86200  Biso   1.000  H
  C78      1.0000 0.44120  0.68530  0.86178  Biso   1.000  C
  H39      1.0000 0.50540  0.69230  0.86180  Biso   1.000  H
  C79      1.0000 0.40430  0.65580  0.89120  Biso   1.000  C
  H40      1.0000 0.44430  0.64180  0.91030  Biso   1.000  H
  C80      1.0000 0.27480  0.61736  0.92414  Biso   1.000  C
  C81      1.0000 0.27520  0.63031  0.96547  Biso   1.000  C
  C82      1.0000 0.21010  0.52300  0.87021  Biso   1.000  C
  H41      1.0000 0.20190  0.50450  0.84700  Biso   1.000  H
  C83      1.0000 0.18540  0.51430  0.91301  Biso   1.000  C
  C84      1.0000 0.30020  0.67259  0.97861  Biso   1.000  C
  H42      1.0000 0.31400  0.69610  0.96100  Biso   1.000  H
  C85      1.0000 0.24670  0.56189  0.86981  Biso   1.000  C
  H43      1.0000 0.26900  0.57690  0.84610  Biso   1.000  H
  C86      1.0000 0.11690  0.44250  0.89300  Biso   1.000  C
  C87      1.0000 0.02270  0.43690  0.88150  Biso   1.000  C
  H44      1.0000 0.97560  0.45450  0.89320  Biso   1.000  H
  C88      1.0000 0.13990  0.47561  0.92530  Biso   1.000  C
  C89      1.0000 0.18570  0.41730  0.87600  Biso   1.000  C
  H45      1.0000 0.24860  0.42140  0.88400  Biso   1.000  H
  C90      1.0000 0.24600  0.57683  0.91208  Biso   1.000  C
  C91      1.0000 0.11420  0.46870  0.96550  Biso   1.000  C
  C92      1.0000 0.06440  0.42970  0.97810  Biso   1.000  C
  H46      1.0000 0.03770  0.40880  0.96030  Biso   1.000  H
  C93      1.0000 0.07020  0.37951  0.83598  Biso   1.000  C
  C94      1.0000 0.16300  0.38610  0.84740  Biso   1.000  C
  H47      1.0000 0.21060  0.36910  0.83540  Biso   1.000  H
  C95      1.0000 0.99970  0.40480  0.85240  Biso   1.000  C
  H48      1.0000 0.93710  0.40060  0.84420  Biso   1.000  H
  C96      1.0000 0.04350  0.34545  0.80530  Biso   1.000  C
  N4       1.0000 0.20820  0.54603  0.93803  Biso   1.000  N
  O13      1.0000 0.37180  0.75203  0.77532  Biso   1.000  O
  O14      1.0000 0.50970  0.74080  0.80245  Biso   1.000  O
  O15      1.0000 0.10920  0.32335  0.78885  Biso   1.000  O
  O16      1.0000 0.95940  0.33968  0.79626  Biso   1.000  O
  C97      1.0000 0.07610  0.23350  0.30111  Biso   1.000  C
  C98      1.0000 0.11990  0.20368  0.33273  Biso   1.000  C
  C99      1.0000 0.20970  0.19301  0.33169  Biso   1.000  C
  H49      1.0000 0.24850  0.20390  0.31020  Biso   1.000  H
  C100     1.0000 0.19160  0.14732  0.39170  Biso   1.000  C
  C101     1.0000 0.24700  0.16602  0.36197  Biso   1.000  C
  H50      1.0000 0.31190  0.16050  0.36200  Biso   1.000  H
  C102     1.0000 0.05880  0.18530  0.36178  Biso   1.000  C
  H51      1.0000 0.99460  0.19230  0.36180  Biso   1.000  H
  C103     1.0000 0.09570  0.15580  0.39120  Biso   1.000  C
  H52      1.0000 0.05570  0.14180  0.41030  Biso   1.000  H
  C104     1.0000 0.22520  0.11736  0.42414  Biso   1.000  C
  C105     1.0000 0.22480  0.13031  0.46547  Biso   1.000  C
  C106     1.0000 0.28990  0.02300  0.37021  Biso   1.000  C
  H53      1.0000 0.29810  0.00450  0.34700  Biso   1.000  H
  C107     1.0000 0.31460  0.01430  0.41301  Biso   1.000  C
  C108     1.0000 0.19980  0.17259  0.47861  Biso   1.000  C
  H54      1.0000 0.18600  0.19610  0.46100  Biso   1.000  H
  C109     1.0000 0.25330  0.06189  0.36981  Biso   1.000  C
  H55      1.0000 0.23100  0.07690  0.34610  Biso   1.000  H
  C110     1.0000 0.38310  0.94250  0.39300  Biso   1.000  C
  C111     1.0000 0.47730  0.93690  0.38150  Biso   1.000  C
  H56      1.0000 0.52440  0.95450  0.39320  Biso   1.000  H
  C112     1.0000 0.36010  0.97561  0.42530  Biso   1.000  C
  C113     1.0000 0.31430  0.91730  0.37600  Biso   1.000  C
  H57      1.0000 0.25140  0.92140  0.38400  Biso   1.000  H
  C114     1.0000 0.25400  0.07683  0.41208  Biso   1.000  C
  C115     1.0000 0.38580  0.96870  0.46550  Biso   1.000  C
  C116     1.0000 0.43560  0.92970  0.47810  Biso   1.000  C
  H58      1.0000 0.46230  0.90880  0.46030  Biso   1.000  H
  C117     1.0000 0.42980  0.87951  0.33598  Biso   1.000  C
  C118     1.0000 0.33700  0.88610  0.34740  Biso   1.000  C
  H59      1.0000 0.28940  0.86910  0.33540  Biso   1.000  H
  C119     1.0000 0.50030  0.90480  0.35240  Biso   1.000  C
  H60      1.0000 0.56290  0.90060  0.34420  Biso   1.000  H
  C120     1.0000 0.45650  0.84545  0.30530  Biso   1.000  C
  N5       1.0000 0.29180  0.04603  0.43803  Biso   1.000  N
  O17      1.0000 0.12820  0.25203  0.27532  Biso   1.000  O
  O18      1.0000 0.99030  0.24080  0.30245  Biso   1.000  O
  O19      1.0000 0.39080  0.82335  0.28885  Biso   1.000  O
  O20      1.0000 0.54060  0.83968  0.29626  Biso   1.000  O
  C121     1.0000 0.57610  0.73350  0.30111  Biso   1.000  C
  C122     1.0000 0.61990  0.70368  0.33273  Biso   1.000  C
  C123     1.0000 0.70970  0.69301  0.33169  Biso   1.000  C
  H61      1.0000 0.74850  0.70390  0.31020  Biso   1.000  H
  C124     1.0000 0.69160  0.64732  0.39170  Biso   1.000  C
  C125     1.0000 0.74700  0.66602  0.36197  Biso   1.000  C
  H62      1.0000 0.81190  0.66050  0.36200  Biso   1.000  H
  C126     1.0000 0.55880  0.68530  0.36178  Biso   1.000  C
  H63      1.0000 0.49460  0.69230  0.36180  Biso   1.000  H
  C127     1.0000 0.59570  0.65580  0.39120  Biso   1.000  C
  H64      1.0000 0.55570  0.64180  0.41030  Biso   1.000  H
  C128     1.0000 0.72520  0.61736  0.42414  Biso   1.000  C
  C129     1.0000 0.72480  0.63031  0.46547  Biso   1.000  C
  C130     1.0000 0.78990  0.52300  0.37021  Biso   1.000  C
  H65      1.0000 0.79810  0.50450  0.34700  Biso   1.000  H
  C131     1.0000 0.81460  0.51430  0.41301  Biso   1.000  C
  C132     1.0000 0.69980  0.67259  0.47861  Biso   1.000  C
  H66      1.0000 0.68600  0.69610  0.46100  Biso   1.000  H
  C133     1.0000 0.75330  0.56189  0.36981  Biso   1.000  C
  H67      1.0000 0.73100  0.57690  0.34610  Biso   1.000  H
  C134     1.0000 0.88310  0.44250  0.39300  Biso   1.000  C
  C135     1.0000 0.97730  0.43690  0.38150  Biso   1.000  C
  H68      1.0000 0.02440  0.45450  0.39320  Biso   1.000  H
  C136     1.0000 0.86010  0.47561  0.42530  Biso   1.000  C
  C137     1.0000 0.81430  0.41730  0.37600  Biso   1.000  C
  H69      1.0000 0.75140  0.42140  0.38400  Biso   1.000  H
  C138     1.0000 0.75400  0.57683  0.41208  Biso   1.000  C
  C139     1.0000 0.88580  0.46870  0.46550  Biso   1.000  C
  C140     1.0000 0.93560  0.42970  0.47810  Biso   1.000  C
  H70      1.0000 0.96230  0.40880  0.46030  Biso   1.000  H
  C141     1.0000 0.92980  0.37951  0.33598  Biso   1.000  C
  C142     1.0000 0.83700  0.38610  0.34740  Biso   1.000  C
  H71      1.0000 0.78940  0.36910  0.33540  Biso   1.000  H
  C143     1.0000 0.00030  0.40480  0.35240  Biso   1.000  C
  H72      1.0000 0.06290  0.40060  0.34420  Biso   1.000  H
  C144     1.0000 0.95650  0.34545  0.30530  Biso   1.000  C
  N6       1.0000 0.79180  0.54603  0.43803  Biso   1.000  N
  O21      1.0000 0.62820  0.75203  0.27532  Biso   1.000  O
  O22      1.0000 0.49030  0.74080  0.30245  Biso   1.000  O
  O23      1.0000 0.89080  0.32335  0.28885  Biso   1.000  O
  O24      1.0000 0.04060  0.33968  0.29626  Biso   1.000  O
  C145     1.0000 0.92390  0.23350  0.19889  Biso   1.000  C
  C146     1.0000 0.88010  0.20368  0.16727  Biso   1.000  C
  C147     1.0000 0.79030  0.19301  0.16831  Biso   1.000  C
  H73      1.0000 0.75150  0.20390  0.18980  Biso   1.000  H
  C148     1.0000 0.80840  0.14732  0.10830  Biso   1.000  C
  C149     1.0000 0.75300  0.16602  0.13803  Biso   1.000  C
  H74      1.0000 0.68810  0.16050  0.13800  Biso   1.000  H
  C150     1.0000 0.94120  0.18530  0.13822  Biso   1.000  C
  H75      1.0000 0.00540  0.19230  0.13820  Biso   1.000  H
  C151     1.0000 0.90430  0.15580  0.10880  Biso   1.000  C
  H76      1.0000 0.94430  0.14180  0.08970  Biso   1.000  H
  C152     1.0000 0.77480  0.11736  0.07586  Biso   1.000  C
  C153     1.0000 0.77520  0.13031  0.03453  Biso   1.000  C
  C154     1.0000 0.71010  0.02300  0.12979  Biso   1.000  C
  H77      1.0000 0.70190  0.00450  0.15300  Biso   1.000  H
  C155     1.0000 0.68540  0.01430  0.08699  Biso   1.000  C
  C156     1.0000 0.80020  0.17259  0.02139  Biso   1.000  C
  H78      1.0000 0.81400  0.19610  0.03900  Biso   1.000  H
  C157     1.0000 0.74670  0.06189  0.13019  Biso   1.000  C
  H79      1.0000 0.76900  0.07690  0.15390  Biso   1.000  H
  C158     1.0000 0.61690  0.94250  0.10700  Biso   1.000  C
  C159     1.0000 0.52270  0.93690  0.11850  Biso   1.000  C
  H80      1.0000 0.47560  0.95450  0.10680  Biso   1.000  H
  C160     1.0000 0.63990  0.97561  0.07470  Biso   1.000  C
  C161     1.0000 0.68570  0.91730  0.12400  Biso   1.000  C
  H81      1.0000 0.74860  0.92140  0.11600  Biso   1.000  H
  C162     1.0000 0.74600  0.07683  0.08792  Biso   1.000  C
  C163     1.0000 0.61420  0.96870  0.03450  Biso   1.000  C
  C164     1.0000 0.56440  0.92970  0.02190  Biso   1.000  C
  H82      1.0000 0.53770  0.90880  0.03970  Biso   1.000  H
  C165     1.0000 0.57020  0.87951  0.16402  Biso   1.000  C
  C166     1.0000 0.66300  0.88610  0.15260  Biso   1.000  C
  H83      1.0000 0.71060  0.86910  0.16460  Biso   1.000  H
  C167     1.0000 0.49970  0.90480  0.14760  Biso   1.000  C
  H84      1.0000 0.43710  0.90060  0.15580  Biso   1.000  H
  C168     1.0000 0.54350  0.84545  0.19470  Biso   1.000  C
  N7       1.0000 0.70820  0.04603  0.06197  Biso   1.000  N
  O25      1.0000 0.87180  0.25203  0.22468  Biso   1.000  O
  O26      1.0000 0.00970  0.24080  0.19755  Biso   1.000  O
  O27      1.0000 0.60920  0.82335  0.21115  Biso   1.000  O
  O28      1.0000 0.45940  0.83968  0.20374  Biso   1.000  O
  C169     1.0000 0.42390  0.73350  0.19889  Biso   1.000  C
  C170     1.0000 0.38010  0.70368  0.16727  Biso   1.000  C
  C171     1.0000 0.29030  0.69301  0.16831  Biso   1.000  C
  H85      1.0000 0.25150  0.70390  0.18980  Biso   1.000  H
  C172     1.0000 0.30840  0.64732  0.10830  Biso   1.000  C
  C173     1.0000 0.25300  0.66602  0.13803  Biso   1.000  C
  H86      1.0000 0.18810  0.66050  0.13800  Biso   1.000  H
  C174     1.0000 0.44120  0.68530  0.13822  Biso   1.000  C
  H87      1.0000 0.50540  0.69230  0.13820  Biso   1.000  H
  C175     1.0000 0.40430  0.65580  0.10880  Biso   1.000  C
  H88      1.0000 0.44430  0.64180  0.08970  Biso   1.000  H
  C176     1.0000 0.27480  0.61736  0.07586  Biso   1.000  C
  C177     1.0000 0.27520  0.63031  0.03453  Biso   1.000  C
  C178     1.0000 0.21010  0.52300  0.12979  Biso   1.000  C
  H89      1.0000 0.20190  0.50450  0.15300  Biso   1.000  H
  C179     1.0000 0.18540  0.51430  0.08699  Biso   1.000  C
  C180     1.0000 0.30020  0.67259  0.02139  Biso   1.000  C
  H90      1.0000 0.31400  0.69610  0.03900  Biso   1.000  H
  C181     1.0000 0.24670  0.56189  0.13019  Biso   1.000  C
  H91      1.0000 0.26900  0.57690  0.15390  Biso   1.000  H
  C182     1.0000 0.11690  0.44250  0.10700  Biso   1.000  C
  C183     1.0000 0.02270  0.43690  0.11850  Biso   1.000  C
  H92      1.0000 0.97560  0.45450  0.10680  Biso   1.000  H
  C184     1.0000 0.13990  0.47561  0.07470  Biso   1.000  C
  C185     1.0000 0.18570  0.41730  0.12400  Biso   1.000  C
  H93      1.0000 0.24860  0.42140  0.11600  Biso   1.000  H
  C186     1.0000 0.24600  0.57683  0.08792  Biso   1.000  C
  C187     1.0000 0.11420  0.46870  0.03450  Biso   1.000  C
  C188     1.0000 0.06440  0.42970  0.02190  Biso   1.000  C
  H94      1.0000 0.03770  0.40880  0.03970  Biso   1.000  H
  C189     1.0000 0.07020  0.37951  0.16402  Biso   1.000  C
  C190     1.0000 0.16300  0.38610  0.15260  Biso   1.000  C
  H95      1.0000 0.21060  0.36910  0.16460  Biso   1.000  H
  C191     1.0000 0.99970  0.40480  0.14760  Biso   1.000  C
  H96      1.0000 0.93710  0.40060  0.15580  Biso   1.000  H
  C192     1.0000 0.04350  0.34545  0.19470  Biso   1.000  C
  N8       1.0000 0.20820  0.54603  0.06197  Biso   1.000  N
  O29      1.0000 0.37180  0.75203  0.22468  Biso   1.000  O
  O30      1.0000 0.50970  0.74080  0.19755  Biso   1.000  O
  O31      1.0000 0.10920  0.32335  0.21115  Biso   1.000  O
  O32      1.0000 0.95940  0.33968  0.20374  Biso   1.000  O
  In1      1.0000 0.00000  0.28826  0.25000  Biso   1.000  In
  In2      1.0000 0.50000  0.78826  0.25000  Biso   1.000  In
  In3      1.0000 0.00000  0.28826  0.75000  Biso   1.000  In
  In4      1.0000 0.50000  0.78826  0.75000  Biso   1.000  In
  Co1      1.0000 0.28887  0.04604  0.50000  Biso   1.000  Co
  N9       1.0000 0.24220  0.10400  0.50000  Biso   1.000  N
  N10      1.0000 0.35900  0.99160  0.50000  Biso   1.000  N
  Co2      1.0000 0.78887  0.54604  0.50000  Biso   1.000  Co
  N11      1.0000 0.74220  0.60400  0.50000  Biso   1.000  N
  N12      1.0000 0.85900  0.49160  0.50000  Biso   1.000  N
  Co3      1.0000 0.71113  0.04604  0.00000  Biso   1.000  Co
  N13      1.0000 0.75780  0.10400  0.00000  Biso   1.000  N
  N14      1.0000 0.64100  0.99160  0.00000  Biso   1.000  N
  Co4      1.0000 0.21113  0.54604  0.00000  Biso   1.000  Co
  N15      1.0000 0.25780  0.60400  0.00000  Biso   1.000  N
  N16      1.0000 0.14100  0.49160  0.00000  Biso   1.000  N
  C193     1.0000 0.92390  0.76650  0.69889  Biso   1.000  C
  C194     1.0000 0.88010  0.79632  0.66727  Biso   1.000  C
  C195     1.0000 0.79030  0.80699  0.66831  Biso   1.000  C
  H97      1.0000 0.75150  0.79610  0.68980  Biso   1.000  H
  C196     1.0000 0.80840  0.85268  0.60830  Biso   1.000  C
  C197     1.0000 0.75300  0.83398  0.63803  Biso   1.000  C
  H98      1.0000 0.68810  0.83950  0.63800  Biso   1.000  H
  C198     1.0000 0.94120  0.81470  0.63822  Biso   1.000  C
  H99      1.0000 0.00540  0.80770  0.63820  Biso   1.000  H
  C199     1.0000 0.90430  0.84420  0.60880  Biso   1.000  C
  H100     1.0000 0.94430  0.85820  0.58970  Biso   1.000  H
  C200     1.0000 0.77480  0.88264  0.57586  Biso   1.000  C
  C201     1.0000 0.77520  0.86969  0.53453  Biso   1.000  C
  C202     1.0000 0.71010  0.97700  0.62979  Biso   1.000  C
  H101     1.0000 0.70190  0.99550  0.65300  Biso   1.000  H
  C203     1.0000 0.68540  0.98570  0.58699  Biso   1.000  C
  C204     1.0000 0.80020  0.82741  0.52139  Biso   1.000  C
  H102     1.0000 0.81400  0.80390  0.53900  Biso   1.000  H
  C205     1.0000 0.74670  0.93811  0.63019  Biso   1.000  C
  H103     1.0000 0.76900  0.92310  0.65390  Biso   1.000  H
  C206     1.0000 0.61690  0.05750  0.60700  Biso   1.000  C
  C207     1.0000 0.52270  0.06310  0.61850  Biso   1.000  C
  H104     1.0000 0.47560  0.04550  0.60680  Biso   1.000  H
  C208     1.0000 0.63990  0.02439  0.57470  Biso   1.000  C
  C209     1.0000 0.68570  0.08270  0.62400  Biso   1.000  C
  H105     1.0000 0.74860  0.07860  0.61600  Biso   1.000  H
  C210     1.0000 0.74600  0.92317  0.58792  Biso   1.000  C
  C211     1.0000 0.61420  0.03130  0.53450  Biso   1.000  C
  C212     1.0000 0.56440  0.07030  0.52190  Biso   1.000  C
  H106     1.0000 0.53770  0.09120  0.53970  Biso   1.000  H
  C213     1.0000 0.57020  0.12049  0.66402  Biso   1.000  C
  C214     1.0000 0.66300  0.11390  0.65260  Biso   1.000  C
  H107     1.0000 0.71060  0.13090  0.66460  Biso   1.000  H
  C215     1.0000 0.49970  0.09520  0.64760  Biso   1.000  C
  H108     1.0000 0.43710  0.09940  0.65580  Biso   1.000  H
  C216     1.0000 0.54350  0.15455  0.69470  Biso   1.000  C
  N17      1.0000 0.70820  0.95397  0.56197  Biso   1.000  N
  O33      1.0000 0.87180  0.74797  0.72468  Biso   1.000  O
  O34      1.0000 0.00970  0.75920  0.69755  Biso   1.000  O
  O35      1.0000 0.60920  0.17665  0.71115  Biso   1.000  O
  O36      1.0000 0.45940  0.16032  0.70374  Biso   1.000  O
  C217     1.0000 0.42390  0.26650  0.69889  Biso   1.000  C
  C218     1.0000 0.38010  0.29632  0.66727  Biso   1.000  C
  C219     1.0000 0.29030  0.30699  0.66831  Biso   1.000  C
  H109     1.0000 0.25150  0.29610  0.68980  Biso   1.000  H
  C220     1.0000 0.30840  0.35268  0.60830  Biso   1.000  C
  C221     1.0000 0.25300  0.33398  0.63803  Biso   1.000  C
  H110     1.0000 0.18810  0.33950  0.63800  Biso   1.000  H
  C222     1.0000 0.44120  0.31470  0.63822  Biso   1.000  C
  H111     1.0000 0.50540  0.30770  0.63820  Biso   1.000  H
  C223     1.0000 0.40430  0.34420  0.60880  Biso   1.000  C
  H112     1.0000 0.44430  0.35820  0.58970  Biso   1.000  H
  C224     1.0000 0.27480  0.38264  0.57586  Biso   1.000  C
  C225     1.0000 0.27520  0.36969  0.53453  Biso   1.000  C
  C226     1.0000 0.21010  0.47700  0.62979  Biso   1.000  C
  H113     1.0000 0.20190  0.49550  0.65300  Biso   1.000  H
  C227     1.0000 0.18540  0.48570  0.58699  Biso   1.000  C
  C228     1.0000 0.30020  0.32741  0.52139  Biso   1.000  C
  H114     1.0000 0.31400  0.30390  0.53900  Biso   1.000  H
  C229     1.0000 0.24670  0.43811  0.63019  Biso   1.000  C
  H115     1.0000 0.26900  0.42310  0.65390  Biso   1.000  H
  C230     1.0000 0.11690  0.55750  0.60700  Biso   1.000  C
  C231     1.0000 0.02270  0.56310  0.61850  Biso   1.000  C
  H116     1.0000 0.97560  0.54550  0.60680  Biso   1.000  H
  C232     1.0000 0.13990  0.52439  0.57470  Biso   1.000  C
  C233     1.0000 0.18570  0.58270  0.62400  Biso   1.000  C
  H117     1.0000 0.24860  0.57860  0.61600  Biso   1.000  H
  C234     1.0000 0.24600  0.42317  0.58792  Biso   1.000  C
  C235     1.0000 0.11420  0.53130  0.53450  Biso   1.000  C
  C236     1.0000 0.06440  0.57030  0.52190  Biso   1.000  C
  H118     1.0000 0.03770  0.59120  0.53970  Biso   1.000  H
  C237     1.0000 0.07020  0.62049  0.66402  Biso   1.000  C
  C238     1.0000 0.16300  0.61390  0.65260  Biso   1.000  C
  H119     1.0000 0.21060  0.63090  0.66460  Biso   1.000  H
  C239     1.0000 0.99970  0.59520  0.64760  Biso   1.000  C
  H120     1.0000 0.93710  0.59940  0.65580  Biso   1.000  H
  C240     1.0000 0.04350  0.65455  0.69470  Biso   1.000  C
  N18      1.0000 0.20820  0.45397  0.56197  Biso   1.000  N
  O37      1.0000 0.37180  0.24797  0.72468  Biso   1.000  O
  O38      1.0000 0.50970  0.25920  0.69755  Biso   1.000  O
  O39      1.0000 0.10920  0.67665  0.71115  Biso   1.000  O
  O40      1.0000 0.95940  0.66032  0.70374  Biso   1.000  O
  C241     1.0000 0.07610  0.76650  0.80111  Biso   1.000  C
  C242     1.0000 0.11990  0.79632  0.83273  Biso   1.000  C
  C243     1.0000 0.20970  0.80699  0.83169  Biso   1.000  C
  H121     1.0000 0.24850  0.79610  0.81020  Biso   1.000  H
  C244     1.0000 0.19160  0.85268  0.89170  Biso   1.000  C
  C245     1.0000 0.24700  0.83398  0.86197  Biso   1.000  C
  H122     1.0000 0.31190  0.83950  0.86200  Biso   1.000  H
  C246     1.0000 0.05880  0.81470  0.86178  Biso   1.000  C
  H123     1.0000 0.99460  0.80770  0.86180  Biso   1.000  H
  C247     1.0000 0.09570  0.84420  0.89120  Biso   1.000  C
  H124     1.0000 0.05570  0.85820  0.91030  Biso   1.000  H
  C248     1.0000 0.22520  0.88264  0.92414  Biso   1.000  C
  C249     1.0000 0.22480  0.86969  0.96547  Biso   1.000  C
  C250     1.0000 0.28990  0.97700  0.87021  Biso   1.000  C
  H125     1.0000 0.29810  0.99550  0.84700  Biso   1.000  H
  C251     1.0000 0.31460  0.98570  0.91301  Biso   1.000  C
  C252     1.0000 0.19980  0.82741  0.97861  Biso   1.000  C
  H126     1.0000 0.18600  0.80390  0.96100  Biso   1.000  H
  C253     1.0000 0.25330  0.93811  0.86981  Biso   1.000  C
  H127     1.0000 0.23100  0.92310  0.84610  Biso   1.000  H
  C254     1.0000 0.38310  0.05750  0.89300  Biso   1.000  C
  C255     1.0000 0.47730  0.06310  0.88150  Biso   1.000  C
  H128     1.0000 0.52440  0.04550  0.89320  Biso   1.000  H
  C256     1.0000 0.36010  0.02439  0.92530  Biso   1.000  C
  C257     1.0000 0.31430  0.08270  0.87600  Biso   1.000  C
  H129     1.0000 0.25140  0.07860  0.88400  Biso   1.000  H
  C258     1.0000 0.25400  0.92317  0.91208  Biso   1.000  C
  C259     1.0000 0.38580  0.03130  0.96550  Biso   1.000  C
  C260     1.0000 0.43560  0.07030  0.97810  Biso   1.000  C
  H130     1.0000 0.46230  0.09120  0.96030  Biso   1.000  H
  C261     1.0000 0.42980  0.12049  0.83598  Biso   1.000  C
  C262     1.0000 0.33700  0.11390  0.84740  Biso   1.000  C
  H131     1.0000 0.28940  0.13090  0.83540  Biso   1.000  H
  C263     1.0000 0.50030  0.09520  0.85240  Biso   1.000  C
  H132     1.0000 0.56290  0.09940  0.84420  Biso   1.000  H
  C264     1.0000 0.45650  0.15455  0.80530  Biso   1.000  C
  N19      1.0000 0.29180  0.95397  0.93803  Biso   1.000  N
  O41      1.0000 0.12820  0.74797  0.77532  Biso   1.000  O
  O42      1.0000 0.99030  0.75920  0.80245  Biso   1.000  O
  O43      1.0000 0.39080  0.17665  0.78885  Biso   1.000  O
  O44      1.0000 0.54060  0.16032  0.79626  Biso   1.000  O
  C265     1.0000 0.57610  0.26650  0.80111  Biso   1.000  C
  C266     1.0000 0.61990  0.29632  0.83273  Biso   1.000  C
  C267     1.0000 0.70970  0.30699  0.83169  Biso   1.000  C
  H133     1.0000 0.74850  0.29610  0.81020  Biso   1.000  H
  C268     1.0000 0.69160  0.35268  0.89170  Biso   1.000  C
  C269     1.0000 0.74700  0.33398  0.86197  Biso   1.000  C
  H134     1.0000 0.81190  0.33950  0.86200  Biso   1.000  H
  C270     1.0000 0.55880  0.31470  0.86178  Biso   1.000  C
  H135     1.0000 0.49460  0.30770  0.86180  Biso   1.000  H
  C271     1.0000 0.59570  0.34420  0.89120  Biso   1.000  C
  H136     1.0000 0.55570  0.35820  0.91030  Biso   1.000  H
  C272     1.0000 0.72520  0.38264  0.92414  Biso   1.000  C
  C273     1.0000 0.72480  0.36969  0.96547  Biso   1.000  C
  C274     1.0000 0.78990  0.47700  0.87021  Biso   1.000  C
  H137     1.0000 0.79810  0.49550  0.84700  Biso   1.000  H
  C275     1.0000 0.81460  0.48570  0.91301  Biso   1.000  C
  C276     1.0000 0.69980  0.32741  0.97861  Biso   1.000  C
  H138     1.0000 0.68600  0.30390  0.96100  Biso   1.000  H
  C277     1.0000 0.75330  0.43811  0.86981  Biso   1.000  C
  H139     1.0000 0.73100  0.42310  0.84610  Biso   1.000  H
  C278     1.0000 0.88310  0.55750  0.89300  Biso   1.000  C
  C279     1.0000 0.97730  0.56310  0.88150  Biso   1.000  C
  H140     1.0000 0.02440  0.54550  0.89320  Biso   1.000  H
  C280     1.0000 0.86010  0.52439  0.92530  Biso   1.000  C
  C281     1.0000 0.81430  0.58270  0.87600  Biso   1.000  C
  H141     1.0000 0.75140  0.57860  0.88400  Biso   1.000  H
  C282     1.0000 0.75400  0.42317  0.91208  Biso   1.000  C
  C283     1.0000 0.88580  0.53130  0.96550  Biso   1.000  C
  C284     1.0000 0.93560  0.57030  0.97810  Biso   1.000  C
  H142     1.0000 0.96230  0.59120  0.96030  Biso   1.000  H
  C285     1.0000 0.92980  0.62049  0.83598  Biso   1.000  C
  C286     1.0000 0.83700  0.61390  0.84740  Biso   1.000  C
  H143     1.0000 0.78940  0.63090  0.83540  Biso   1.000  H
  C287     1.0000 0.00030  0.59520  0.85240  Biso   1.000  C
  H144     1.0000 0.06290  0.59940  0.84420  Biso   1.000  H
  C288     1.0000 0.95650  0.65455  0.80530  Biso   1.000  C
  N20      1.0000 0.79180  0.45397  0.93803  Biso   1.000  N
  O45      1.0000 0.62820  0.24797  0.77532  Biso   1.000  O
  O46      1.0000 0.49030  0.25920  0.80245  Biso   1.000  O
  O47      1.0000 0.89080  0.67665  0.78885  Biso   1.000  O
  O48      1.0000 0.04060  0.66032  0.79626  Biso   1.000  O
  C289     1.0000 0.92390  0.76650  0.30111  Biso   1.000  C
  C290     1.0000 0.88010  0.79632  0.33273  Biso   1.000  C
  C291     1.0000 0.79030  0.80699  0.33169  Biso   1.000  C
  H145     1.0000 0.75150  0.79610  0.31020  Biso   1.000  H
  C292     1.0000 0.80840  0.85268  0.39170  Biso   1.000  C
  C293     1.0000 0.75300  0.83398  0.36197  Biso   1.000  C
  H146     1.0000 0.68810  0.83950  0.36200  Biso   1.000  H
  C294     1.0000 0.94120  0.81470  0.36178  Biso   1.000  C
  H147     1.0000 0.00540  0.80770  0.36180  Biso   1.000  H
  C295     1.0000 0.90430  0.84420  0.39120  Biso   1.000  C
  H148     1.0000 0.94430  0.85820  0.41030  Biso   1.000  H
  C296     1.0000 0.77480  0.88264  0.42414  Biso   1.000  C
  C297     1.0000 0.77520  0.86969  0.46547  Biso   1.000  C
  C298     1.0000 0.71010  0.97700  0.37021  Biso   1.000  C
  H149     1.0000 0.70190  0.99550  0.34700  Biso   1.000  H
  C299     1.0000 0.68540  0.98570  0.41301  Biso   1.000  C
  C300     1.0000 0.80020  0.82741  0.47861  Biso   1.000  C
  H150     1.0000 0.81400  0.80390  0.46100  Biso   1.000  H
  C301     1.0000 0.74670  0.93811  0.36981  Biso   1.000  C
  H151     1.0000 0.76900  0.92310  0.34610  Biso   1.000  H
  C302     1.0000 0.61690  0.05750  0.39300  Biso   1.000  C
  C303     1.0000 0.52270  0.06310  0.38150  Biso   1.000  C
  H152     1.0000 0.47560  0.04550  0.39320  Biso   1.000  H
  C304     1.0000 0.63990  0.02439  0.42530  Biso   1.000  C
  C305     1.0000 0.68570  0.08270  0.37600  Biso   1.000  C
  H153     1.0000 0.74860  0.07860  0.38400  Biso   1.000  H
  C306     1.0000 0.74600  0.92317  0.41208  Biso   1.000  C
  C307     1.0000 0.61420  0.03130  0.46550  Biso   1.000  C
  C308     1.0000 0.56440  0.07030  0.47810  Biso   1.000  C
  H154     1.0000 0.53770  0.09120  0.46030  Biso   1.000  H
  C309     1.0000 0.57020  0.12049  0.33598  Biso   1.000  C
  C310     1.0000 0.66300  0.11390  0.34740  Biso   1.000  C
  H155     1.0000 0.71060  0.13090  0.33540  Biso   1.000  H
  C311     1.0000 0.49970  0.09520  0.35240  Biso   1.000  C
  H156     1.0000 0.43710  0.09940  0.34420  Biso   1.000  H
  C312     1.0000 0.54350  0.15455  0.30530  Biso   1.000  C
  N21      1.0000 0.70820  0.95397  0.43803  Biso   1.000  N
  O49      1.0000 0.87180  0.74797  0.27532  Biso   1.000  O
  O50      1.0000 0.00970  0.75920  0.30245  Biso   1.000  O
  O51      1.0000 0.60920  0.17665  0.28885  Biso   1.000  O
  O52      1.0000 0.45940  0.16032  0.29626  Biso   1.000  O
  C313     1.0000 0.42390  0.26650  0.30111  Biso   1.000  C
  C314     1.0000 0.38010  0.29632  0.33273  Biso   1.000  C
  C315     1.0000 0.29030  0.30699  0.33169  Biso   1.000  C
  H157     1.0000 0.25150  0.29610  0.31020  Biso   1.000  H
  C316     1.0000 0.30840  0.35268  0.39170  Biso   1.000  C
  C317     1.0000 0.25300  0.33398  0.36197  Biso   1.000  C
  H158     1.0000 0.18810  0.33950  0.36200  Biso   1.000  H
  C318     1.0000 0.44120  0.31470  0.36178  Biso   1.000  C
  H159     1.0000 0.50540  0.30770  0.36180  Biso   1.000  H
  C319     1.0000 0.40430  0.34420  0.39120  Biso   1.000  C
  H160     1.0000 0.44430  0.35820  0.41030  Biso   1.000  H
  C320     1.0000 0.27480  0.38264  0.42414  Biso   1.000  C
  C321     1.0000 0.27520  0.36969  0.46547  Biso   1.000  C
  C322     1.0000 0.21010  0.47700  0.37021  Biso   1.000  C
  H161     1.0000 0.20190  0.49550  0.34700  Biso   1.000  H
  C323     1.0000 0.18540  0.48570  0.41301  Biso   1.000  C
  C324     1.0000 0.30020  0.32741  0.47861  Biso   1.000  C
  H162     1.0000 0.31400  0.30390  0.46100  Biso   1.000  H
  C325     1.0000 0.24670  0.43811  0.36981  Biso   1.000  C
  H163     1.0000 0.26900  0.42310  0.34610  Biso   1.000  H
  C326     1.0000 0.11690  0.55750  0.39300  Biso   1.000  C
  C327     1.0000 0.02270  0.56310  0.38150  Biso   1.000  C
  H164     1.0000 0.97560  0.54550  0.39320  Biso   1.000  H
  C328     1.0000 0.13990  0.52439  0.42530  Biso   1.000  C
  C329     1.0000 0.18570  0.58270  0.37600  Biso   1.000  C
  H165     1.0000 0.24860  0.57860  0.38400  Biso   1.000  H
  C330     1.0000 0.24600  0.42317  0.41208  Biso   1.000  C
  C331     1.0000 0.11420  0.53130  0.46550  Biso   1.000  C
  C332     1.0000 0.06440  0.57030  0.47810  Biso   1.000  C
  H166     1.0000 0.03770  0.59120  0.46030  Biso   1.000  H
  C333     1.0000 0.07020  0.62049  0.33598  Biso   1.000  C
  C334     1.0000 0.16300  0.61390  0.34740  Biso   1.000  C
  H167     1.0000 0.21060  0.63090  0.33540  Biso   1.000  H
  C335     1.0000 0.99970  0.59520  0.35240  Biso   1.000  C
  H168     1.0000 0.93710  0.59940  0.34420  Biso   1.000  H
  C336     1.0000 0.04350  0.65455  0.30530  Biso   1.000  C
  N22      1.0000 0.20820  0.45397  0.43803  Biso   1.000  N
  O53      1.0000 0.37180  0.24797  0.27532  Biso   1.000  O
  O54      1.0000 0.50970  0.25920  0.30245  Biso   1.000  O
  O55      1.0000 0.10920  0.67665  0.28885  Biso   1.000  O
  O56      1.0000 0.95940  0.66032  0.29626  Biso   1.000  O
  C337     1.0000 0.07610  0.76650  0.19889  Biso   1.000  C
  C338     1.0000 0.11990  0.79632  0.16727  Biso   1.000  C
  C339     1.0000 0.20970  0.80699  0.16831  Biso   1.000  C
  H169     1.0000 0.24850  0.79610  0.18980  Biso   1.000  H
  C340     1.0000 0.19160  0.85268  0.10830  Biso   1.000  C
  C341     1.0000 0.24700  0.83398  0.13803  Biso   1.000  C
  H170     1.0000 0.31190  0.83950  0.13800  Biso   1.000  H
  C342     1.0000 0.05880  0.81470  0.13822  Biso   1.000  C
  H171     1.0000 0.99460  0.80770  0.13820  Biso   1.000  H
  C343     1.0000 0.09570  0.84420  0.10880  Biso   1.000  C
  H172     1.0000 0.05570  0.85820  0.08970  Biso   1.000  H
  C344     1.0000 0.22520  0.88264  0.07586  Biso   1.000  C
  C345     1.0000 0.22480  0.86969  0.03453  Biso   1.000  C
  C346     1.0000 0.28990  0.97700  0.12979  Biso   1.000  C
  H173     1.0000 0.29810  0.99550  0.15300  Biso   1.000  H
  C347     1.0000 0.31460  0.98570  0.08699  Biso   1.000  C
  C348     1.0000 0.19980  0.82741  0.02139  Biso   1.000  C
  H174     1.0000 0.18600  0.80390  0.03900  Biso   1.000  H
  C349     1.0000 0.25330  0.93811  0.13019  Biso   1.000  C
  H175     1.0000 0.23100  0.92310  0.15390  Biso   1.000  H
  C350     1.0000 0.38310  0.05750  0.10700  Biso   1.000  C
  C351     1.0000 0.47730  0.06310  0.11850  Biso   1.000  C
  H176     1.0000 0.52440  0.04550  0.10680  Biso   1.000  H
  C352     1.0000 0.36010  0.02439  0.07470  Biso   1.000  C
  C353     1.0000 0.31430  0.08270  0.12400  Biso   1.000  C
  H177     1.0000 0.25140  0.07860  0.11600  Biso   1.000  H
  C354     1.0000 0.25400  0.92317  0.08792  Biso   1.000  C
  C355     1.0000 0.38580  0.03130  0.03450  Biso   1.000  C
  C356     1.0000 0.43560  0.07030  0.02190  Biso   1.000  C
  H178     1.0000 0.46230  0.09120  0.03970  Biso   1.000  H
  C357     1.0000 0.42980  0.12049  0.16402  Biso   1.000  C
  C358     1.0000 0.33700  0.11390  0.15260  Biso   1.000  C
  H179     1.0000 0.28940  0.13090  0.16460  Biso   1.000  H
  C359     1.0000 0.50030  0.09520  0.14760  Biso   1.000  C
  H180     1.0000 0.56290  0.09940  0.15580  Biso   1.000  H
  C360     1.0000 0.45650  0.15455  0.19470  Biso   1.000  C
  N23      1.0000 0.29180  0.95397  0.06197  Biso   1.000  N
  O57      1.0000 0.12820  0.74797  0.22468  Biso   1.000  O
  O58      1.0000 0.99030  0.75920  0.19755  Biso   1.000  O
  O59      1.0000 0.39080  0.17665  0.21115  Biso   1.000  O
  O60      1.0000 0.54060  0.16032  0.20374  Biso   1.000  O
  C361     1.0000 0.57610  0.26650  0.19889  Biso   1.000  C
  C362     1.0000 0.61990  0.29632  0.16727  Biso   1.000  C
  C363     1.0000 0.70970  0.30699  0.16831  Biso   1.000  C
  H181     1.0000 0.74850  0.29610  0.18980  Biso   1.000  H
  C364     1.0000 0.69160  0.35268  0.10830  Biso   1.000  C
  C365     1.0000 0.74700  0.33398  0.13803  Biso   1.000  C
  H182     1.0000 0.81190  0.33950  0.13800  Biso   1.000  H
  C366     1.0000 0.55880  0.31470  0.13822  Biso   1.000  C
  H183     1.0000 0.49460  0.30770  0.13820  Biso   1.000  H
  C367     1.0000 0.59570  0.34420  0.10880  Biso   1.000  C
  H184     1.0000 0.55570  0.35820  0.08970  Biso   1.000  H
  C368     1.0000 0.72520  0.38264  0.07586  Biso   1.000  C
  C369     1.0000 0.72480  0.36969  0.03453  Biso   1.000  C
  C370     1.0000 0.78990  0.47700  0.12979  Biso   1.000  C
  H185     1.0000 0.79810  0.49550  0.15300  Biso   1.000  H
  C371     1.0000 0.81460  0.48570  0.08699  Biso   1.000  C
  C372     1.0000 0.69980  0.32741  0.02139  Biso   1.000  C
  H186     1.0000 0.68600  0.30390  0.03900  Biso   1.000  H
  C373     1.0000 0.75330  0.43811  0.13019  Biso   1.000  C
  H187     1.0000 0.73100  0.42310  0.15390  Biso   1.000  H
  C374     1.0000 0.88310  0.55750  0.10700  Biso   1.000  C
  C375     1.0000 0.97730  0.56310  0.11850  Biso   1.000  C
  H188     1.0000 0.02440  0.54550  0.10680  Biso   1.000  H
  C376     1.0000 0.86010  0.52439  0.07470  Biso   1.000  C
  C377     1.0000 0.81430  0.58270  0.12400  Biso   1.000  C
  H189     1.0000 0.75140  0.57860  0.11600  Biso   1.000  H
  C378     1.0000 0.75400  0.42317  0.08792  Biso   1.000  C
  C379     1.0000 0.88580  0.53130  0.03450  Biso   1.000  C
  C380     1.0000 0.93560  0.57030  0.02190  Biso   1.000  C
  H190     1.0000 0.96230  0.59120  0.03970  Biso   1.000  H
  C381     1.0000 0.92980  0.62049  0.16402  Biso   1.000  C
  C382     1.0000 0.83700  0.61390  0.15260  Biso   1.000  C
  H191     1.0000 0.78940  0.63090  0.16460  Biso   1.000  H
  C383     1.0000 0.00030  0.59520  0.14760  Biso   1.000  C
  H192     1.0000 0.06290  0.59940  0.15580  Biso   1.000  H
  C384     1.0000 0.95650  0.65455  0.19470  Biso   1.000  C
  N24      1.0000 0.79180  0.45397  0.06197  Biso   1.000  N
  O61      1.0000 0.62820  0.24797  0.22468  Biso   1.000  O
  O62      1.0000 0.49030  0.25920  0.19755  Biso   1.000  O
  O63      1.0000 0.89080  0.67665  0.21115  Biso   1.000  O
  O64      1.0000 0.04060  0.66032  0.20374  Biso   1.000  O
  In5      1.0000 0.00000  0.71174  0.25000  Biso   1.000  In
  In6      1.0000 0.50000  0.21174  0.25000  Biso   1.000  In
  In7      1.0000 0.00000  0.71174  0.75000  Biso   1.000  In
  In8      1.0000 0.50000  0.21174  0.75000  Biso   1.000  In
  Co5      1.0000 0.71113  0.95396  0.50000  Biso   1.000  Co
  N25      1.0000 0.75780  0.89600  0.50000  Biso   1.000  N
  N26      1.0000 0.64100  0.00840  0.50000  Biso   1.000  N
  Co6      1.0000 0.21113  0.45396  0.50000  Biso   1.000  Co
  N27      1.0000 0.25780  0.39600  0.50000  Biso   1.000  N
  N28      1.0000 0.14100  0.50840  0.50000  Biso   1.000  N
  Co7      1.0000 0.28887  0.95396  0.00000  Biso   1.000  Co
  N29      1.0000 0.24220  0.89600  0.00000  Biso   1.000  N
  N30      1.0000 0.35900  0.00840  0.00000  Biso   1.000  N
  Co8      1.0000 0.78887  0.45396  0.00000  Biso   1.000  Co
  N31      1.0000 0.74220  0.39600  0.00000  Biso   1.000  N
  N32      1.0000 0.85900  0.50840  0.00000  Biso   1.000  N
