data_image0
_cell_length_a       34.895
_cell_length_b       14.6553
_cell_length_c       31.393
_cell_angle_alpha    90
_cell_angle_beta     101.491
_cell_angle_gamma    90

_symmetry_space_group_name_H-M    "P 1"
_symmetry_int_tables_number       1

loop_
  _symmetry_equiv_pos_as_xyz
  'x, y, z'

loop_
  _atom_site_label
  _atom_site_occupancy
  _atom_site_fract_x
  _atom_site_fract_y
  _atom_site_fract_z
  _atom_site_thermal_displace_type
  _atom_site_B_iso_or_equiv
  _atom_site_type_symbol
  C1       1.0000 0.24180  0.59000  0.30260  Biso   1.000  C
  C2       1.0000 0.19410  0.57990  0.24370  Biso   1.000  C
  C3       1.0000 0.20530  0.71330  0.27910  Biso   1.000  C
  C4       1.0000 0.19680  0.81230  0.28000  Biso   1.000  C
  C5       1.0000 0.16230  0.84630  0.25460  Biso   1.000  C
  H1       1.0000 0.14390  0.80680  0.23890  Biso   1.000  H
  C6       1.0000 0.15590  0.93840  0.25300  Biso   1.000  C
  H2       1.0000 0.13300  0.96020  0.23560  Biso   1.000  H
  C7       1.0000 0.21410  0.96660  0.30020  Biso   1.000  C
  H3       1.0000 0.23200  0.00790  0.31540  Biso   1.000  H
  C8       1.0000 0.22220  0.87440  0.30360  Biso   1.000  C
  H4       1.0000 0.24490  0.85410  0.32190  Biso   1.000  H
  C9       1.0000 0.27350  0.54610  0.33450  Biso   1.000  C
  C10      1.0000 0.28450  0.45650  0.32760  Biso   1.000  C
  H5       1.0000 0.27250  0.42460  0.30300  Biso   1.000  H
  C11      1.0000 0.31330  0.41670  0.35780  Biso   1.000  C
  H6       1.0000 0.32050  0.35690  0.35320  Biso   1.000  H
  C12      1.0000 0.32110  0.54560  0.40020  Biso   1.000  C
  H7       1.0000 0.33370  0.57570  0.42510  Biso   1.000  H
  C13      1.0000 0.29240  0.59110  0.37130  Biso   1.000  C
  H8       1.0000 0.28600  0.65110  0.37660  Biso   1.000  H
  C14      1.0000 0.17110  0.52860  0.20680  Biso   1.000  C
  C15      1.0000 0.14260  0.57360  0.17610  Biso   1.000  C
  H9       1.0000 0.13850  0.63600  0.17820  Biso   1.000  H
  C16      1.0000 0.12120  0.52410  0.14340  Biso   1.000  C
  H10      1.0000 0.10230  0.55460  0.12340  Biso   1.000  H
  C17      1.0000 0.15260  0.39190  0.16600  Biso   1.000  C
  H11      1.0000 0.15650  0.32990  0.16210  Biso   1.000  H
  C18      1.0000 0.17550  0.43590  0.20110  Biso   1.000  C
  H12      1.0000 0.19380  0.40310  0.22080  Biso   1.000  H
  C19      1.0000 0.51790  0.66340  0.44430  Biso   1.000  C
  C20      1.0000 0.55210  0.79110  0.46650  Biso   1.000  C
  C21      1.0000 0.56790  0.70570  0.41290  Biso   1.000  C
  C22      1.0000 0.48420  0.60270  0.44490  Biso   1.000  C
  C23      1.0000 0.46940  0.59110  0.48200  Biso   1.000  C
  H13      1.0000 0.48070  0.62000  0.50790  Biso   1.000  H
  C24      1.0000 0.43670  0.53380  0.47930  Biso   1.000  C
  H14      1.0000 0.42630  0.52580  0.50410  Biso   1.000  H
  C25      1.0000 0.43400  0.50560  0.40750  Biso   1.000  C
  H15      1.0000 0.42170  0.47790  0.38170  Biso   1.000  H
  C26      1.0000 0.46580  0.55960  0.40700  Biso   1.000  C
  H16      1.0000 0.47510  0.56750  0.38150  Biso   1.000  H
  C27      1.0000 0.59230  0.68760  0.38040  Biso   1.000  C
  C28      1.0000 0.61230  0.75780  0.36430  Biso   1.000  C
  H17      1.0000 0.61120  0.81710  0.37450  Biso   1.000  H
  C29      1.0000 0.63320  0.73880  0.33400  Biso   1.000  C
  H18      1.0000 0.64630  0.78640  0.32350  Biso   1.000  H
  C30      1.0000 0.61790  0.58750  0.33380  Biso   1.000  C
  H19      1.0000 0.62030  0.52860  0.32370  Biso   1.000  H
  C31      1.0000 0.59570  0.60110  0.36440  Biso   1.000  C
  H20      1.0000 0.58300  0.55220  0.37440  Biso   1.000  H
  C32      1.0000 0.55770  0.87440  0.49330  Biso   1.000  C
  C33      1.0000 0.53190  0.89600  0.52040  Biso   1.000  C
  H21      1.0000 0.51010  0.85960  0.52080  Biso   1.000  H
  C34      1.0000 0.53910  0.97250  0.54690  Biso   1.000  C
  H22      1.0000 0.52190  0.98640  0.56510  Biso   1.000  H
  C35      1.0000 0.59360  0.00720  0.51990  Biso   1.000  C
  H23      1.0000 0.61440  0.04640  0.51900  Biso   1.000  H
  C36      1.0000 0.58880  0.93200  0.49310  Biso   1.000  C
  H24      1.0000 0.60640  0.92040  0.47500  Biso   1.000  H
  I1       1.0000 0.12022  0.15173  0.19573  Biso   1.000  I
  I2       1.0000 0.22737  0.23555  0.29022  Biso   1.000  I
  I3       1.0000 0.02628  0.34748  0.12988  Biso   1.000  I
  I4       1.0000 0.11951  0.25063  0.05567  Biso   1.000  I
  I5       1.0000 0.35190  0.40435  0.51126  Biso   1.000  I
  I6       1.0000 0.39850  0.26130  0.40293  Biso   1.000  I
  N1       1.0000 0.22310  0.53950  0.26980  Biso   1.000  N
  N2       1.0000 0.18340  0.66730  0.24690  Biso   1.000  N
  N3       1.0000 0.23390  0.67890  0.30870  Biso   1.000  N
  N4       1.0000 0.33150  0.45930  0.39350  Biso   1.000  N
  N5       1.0000 0.12530  0.43490  0.13790  Biso   1.000  N
  N6       1.0000 0.18070  0.99820  0.27510  Biso   1.000  N
  N7       1.0000 0.53970  0.64450  0.41490  Biso   1.000  N
  N8       1.0000 0.57420  0.78180  0.43680  Biso   1.000  N
  N9       1.0000 0.52390  0.73320  0.47220  Biso   1.000  N
  N10      1.0000 0.41970  0.49070  0.44340  Biso   1.000  N
  N11      1.0000 0.63630  0.65460  0.31790  Biso   1.000  N
  N12      1.0000 0.56990  0.02670  0.54730  Biso   1.000  N
  Zn1      1.0000 0.16684  0.13635  0.26845  Biso   1.000  Zn
  Zn2      1.0000 0.08379  0.36752  0.09200  Biso   1.000  Zn
  Zn3      1.0000 0.37456  0.39960  0.43974  Biso   1.000  Zn
  C37      1.0000 0.74180  0.09000  0.30260  Biso   1.000  C
  C38      1.0000 0.69410  0.07990  0.24370  Biso   1.000  C
  C39      1.0000 0.70530  0.21330  0.27910  Biso   1.000  C
  C40      1.0000 0.69680  0.31230  0.28000  Biso   1.000  C
  C41      1.0000 0.66230  0.34630  0.25460  Biso   1.000  C
  H25      1.0000 0.64390  0.30680  0.23890  Biso   1.000  H
  C42      1.0000 0.65590  0.43840  0.25300  Biso   1.000  C
  H26      1.0000 0.63300  0.46020  0.23560  Biso   1.000  H
  C43      1.0000 0.71410  0.46660  0.30020  Biso   1.000  C
  H27      1.0000 0.73200  0.50790  0.31540  Biso   1.000  H
  C44      1.0000 0.72220  0.37440  0.30360  Biso   1.000  C
  H28      1.0000 0.74490  0.35410  0.32190  Biso   1.000  H
  C45      1.0000 0.77350  0.04610  0.33450  Biso   1.000  C
  C46      1.0000 0.78450  0.95650  0.32760  Biso   1.000  C
  H29      1.0000 0.77250  0.92460  0.30300  Biso   1.000  H
  C47      1.0000 0.81330  0.91670  0.35780  Biso   1.000  C
  H30      1.0000 0.82050  0.85690  0.35320  Biso   1.000  H
  C48      1.0000 0.82110  0.04560  0.40020  Biso   1.000  C
  H31      1.0000 0.83370  0.07570  0.42510  Biso   1.000  H
  C49      1.0000 0.79240  0.09110  0.37130  Biso   1.000  C
  H32      1.0000 0.78600  0.15110  0.37660  Biso   1.000  H
  C50      1.0000 0.67110  0.02860  0.20680  Biso   1.000  C
  C51      1.0000 0.64260  0.07360  0.17610  Biso   1.000  C
  H33      1.0000 0.63850  0.13600  0.17820  Biso   1.000  H
  C52      1.0000 0.62120  0.02410  0.14340  Biso   1.000  C
  H34      1.0000 0.60230  0.05460  0.12340  Biso   1.000  H
  C53      1.0000 0.65260  0.89190  0.16600  Biso   1.000  C
  H35      1.0000 0.65650  0.82990  0.16210  Biso   1.000  H
  C54      1.0000 0.67550  0.93590  0.20110  Biso   1.000  C
  H36      1.0000 0.69380  0.90310  0.22080  Biso   1.000  H
  C55      1.0000 0.01790  0.16340  0.44430  Biso   1.000  C
  C56      1.0000 0.05210  0.29110  0.46650  Biso   1.000  C
  C57      1.0000 0.06790  0.20570  0.41290  Biso   1.000  C
  C58      1.0000 0.98420  0.10270  0.44490  Biso   1.000  C
  C59      1.0000 0.96940  0.09110  0.48200  Biso   1.000  C
  H37      1.0000 0.98070  0.12000  0.50790  Biso   1.000  H
  C60      1.0000 0.93670  0.03380  0.47930  Biso   1.000  C
  H38      1.0000 0.92630  0.02580  0.50410  Biso   1.000  H
  C61      1.0000 0.93400  0.00560  0.40750  Biso   1.000  C
  H39      1.0000 0.92170  0.97790  0.38170  Biso   1.000  H
  C62      1.0000 0.96580  0.05960  0.40700  Biso   1.000  C
  H40      1.0000 0.97510  0.06750  0.38150  Biso   1.000  H
  C63      1.0000 0.09230  0.18760  0.38040  Biso   1.000  C
  C64      1.0000 0.11230  0.25780  0.36430  Biso   1.000  C
  H41      1.0000 0.11120  0.31710  0.37450  Biso   1.000  H
  C65      1.0000 0.13320  0.23880  0.33400  Biso   1.000  C
  H42      1.0000 0.14630  0.28640  0.32350  Biso   1.000  H
  C66      1.0000 0.11790  0.08750  0.33380  Biso   1.000  C
  H43      1.0000 0.12030  0.02860  0.32370  Biso   1.000  H
  C67      1.0000 0.09570  0.10110  0.36440  Biso   1.000  C
  H44      1.0000 0.08300  0.05220  0.37440  Biso   1.000  H
  C68      1.0000 0.05770  0.37440  0.49330  Biso   1.000  C
  C69      1.0000 0.03190  0.39600  0.52040  Biso   1.000  C
  H45      1.0000 0.01010  0.35960  0.52080  Biso   1.000  H
  C70      1.0000 0.03910  0.47250  0.54690  Biso   1.000  C
  H46      1.0000 0.02190  0.48640  0.56510  Biso   1.000  H
  C71      1.0000 0.09360  0.50720  0.51990  Biso   1.000  C
  H47      1.0000 0.11440  0.54640  0.51900  Biso   1.000  H
  C72      1.0000 0.08880  0.43200  0.49310  Biso   1.000  C
  H48      1.0000 0.10640  0.42040  0.47500  Biso   1.000  H
  I7       1.0000 0.62022  0.65173  0.19573  Biso   1.000  I
  I8       1.0000 0.72737  0.73555  0.29022  Biso   1.000  I
  I9       1.0000 0.52628  0.84748  0.12988  Biso   1.000  I
  I10      1.0000 0.61951  0.75063  0.05567  Biso   1.000  I
  I11      1.0000 0.85190  0.90435  0.51126  Biso   1.000  I
  I12      1.0000 0.89850  0.76130  0.40293  Biso   1.000  I
  N13      1.0000 0.72310  0.03950  0.26980  Biso   1.000  N
  N14      1.0000 0.68340  0.16730  0.24690  Biso   1.000  N
  N15      1.0000 0.73390  0.17890  0.30870  Biso   1.000  N
  N16      1.0000 0.83150  0.95930  0.39350  Biso   1.000  N
  N17      1.0000 0.62530  0.93490  0.13790  Biso   1.000  N
  N18      1.0000 0.68070  0.49820  0.27510  Biso   1.000  N
  N19      1.0000 0.03970  0.14450  0.41490  Biso   1.000  N
  N20      1.0000 0.07420  0.28180  0.43680  Biso   1.000  N
  N21      1.0000 0.02390  0.23320  0.47220  Biso   1.000  N
  N22      1.0000 0.91970  0.99070  0.44340  Biso   1.000  N
  N23      1.0000 0.13630  0.15460  0.31790  Biso   1.000  N
  N24      1.0000 0.06990  0.52670  0.54730  Biso   1.000  N
  Zn4      1.0000 0.66684  0.63635  0.26845  Biso   1.000  Zn
  Zn5      1.0000 0.58379  0.86752  0.09200  Biso   1.000  Zn
  Zn6      1.0000 0.87456  0.89960  0.43974  Biso   1.000  Zn
  C73      1.0000 0.24180  0.41000  0.80260  Biso   1.000  C
  C74      1.0000 0.19410  0.42010  0.74370  Biso   1.000  C
  C75      1.0000 0.20530  0.28670  0.77910  Biso   1.000  C
  C76      1.0000 0.19680  0.18770  0.78000  Biso   1.000  C
  C77      1.0000 0.16230  0.15370  0.75460  Biso   1.000  C
  H49      1.0000 0.14390  0.19320  0.73890  Biso   1.000  H
  C78      1.0000 0.15590  0.06160  0.75300  Biso   1.000  C
  H50      1.0000 0.13300  0.03980  0.73560  Biso   1.000  H
  C79      1.0000 0.21410  0.03340  0.80020  Biso   1.000  C
  H51      1.0000 0.23200  0.99210  0.81540  Biso   1.000  H
  C80      1.0000 0.22220  0.12560  0.80360  Biso   1.000  C
  H52      1.0000 0.24490  0.14590  0.82190  Biso   1.000  H
  C81      1.0000 0.27350  0.45390  0.83450  Biso   1.000  C
  C82      1.0000 0.28450  0.54350  0.82760  Biso   1.000  C
  H53      1.0000 0.27250  0.57540  0.80300  Biso   1.000  H
  C83      1.0000 0.31330  0.58330  0.85780  Biso   1.000  C
  H54      1.0000 0.32050  0.64310  0.85320  Biso   1.000  H
  C84      1.0000 0.32110  0.45440  0.90020  Biso   1.000  C
  H55      1.0000 0.33370  0.42430  0.92510  Biso   1.000  H
  C85      1.0000 0.29240  0.40890  0.87130  Biso   1.000  C
  H56      1.0000 0.28600  0.34890  0.87660  Biso   1.000  H
  C86      1.0000 0.17110  0.47140  0.70680  Biso   1.000  C
  C87      1.0000 0.14260  0.42640  0.67610  Biso   1.000  C
  H57      1.0000 0.13850  0.36400  0.67820  Biso   1.000  H
  C88      1.0000 0.12120  0.47590  0.64340  Biso   1.000  C
  H58      1.0000 0.10230  0.44540  0.62340  Biso   1.000  H
  C89      1.0000 0.15260  0.60810  0.66600  Biso   1.000  C
  H59      1.0000 0.15650  0.67010  0.66210  Biso   1.000  H
  C90      1.0000 0.17550  0.56410  0.70110  Biso   1.000  C
  H60      1.0000 0.19380  0.59690  0.72080  Biso   1.000  H
  C91      1.0000 0.51790  0.33660  0.94430  Biso   1.000  C
  C92      1.0000 0.55210  0.20890  0.96650  Biso   1.000  C
  C93      1.0000 0.56790  0.29430  0.91290  Biso   1.000  C
  C94      1.0000 0.48420  0.39730  0.94490  Biso   1.000  C
  C95      1.0000 0.46940  0.40890  0.98200  Biso   1.000  C
  H61      1.0000 0.48070  0.38000  0.00790  Biso   1.000  H
  C96      1.0000 0.43670  0.46620  0.97930  Biso   1.000  C
  H62      1.0000 0.42630  0.47420  0.00410  Biso   1.000  H
  C97      1.0000 0.43400  0.49440  0.90750  Biso   1.000  C
  H63      1.0000 0.42170  0.52210  0.88170  Biso   1.000  H
  C98      1.0000 0.46580  0.44040  0.90700  Biso   1.000  C
  H64      1.0000 0.47510  0.43250  0.88150  Biso   1.000  H
  C99      1.0000 0.59230  0.31240  0.88040  Biso   1.000  C
  C100     1.0000 0.61230  0.24220  0.86430  Biso   1.000  C
  H65      1.0000 0.61120  0.18290  0.87450  Biso   1.000  H
  C101     1.0000 0.63320  0.26120  0.83400  Biso   1.000  C
  H66      1.0000 0.64630  0.21360  0.82350  Biso   1.000  H
  C102     1.0000 0.61790  0.41250  0.83380  Biso   1.000  C
  H67      1.0000 0.62030  0.47140  0.82370  Biso   1.000  H
  C103     1.0000 0.59570  0.39890  0.86440  Biso   1.000  C
  H68      1.0000 0.58300  0.44780  0.87440  Biso   1.000  H
  C104     1.0000 0.55770  0.12560  0.99330  Biso   1.000  C
  C105     1.0000 0.53190  0.10400  0.02040  Biso   1.000  C
  H69      1.0000 0.51010  0.14040  0.02080  Biso   1.000  H
  C106     1.0000 0.53910  0.02750  0.04690  Biso   1.000  C
  H70      1.0000 0.52190  0.01360  0.06510  Biso   1.000  H
  C107     1.0000 0.59360  0.99280  0.01990  Biso   1.000  C
  H71      1.0000 0.61440  0.95360  0.01900  Biso   1.000  H
  C108     1.0000 0.58880  0.06800  0.99310  Biso   1.000  C
  H72      1.0000 0.60640  0.07960  0.97500  Biso   1.000  H
  I13      1.0000 0.12022  0.84827  0.69573  Biso   1.000  I
  I14      1.0000 0.22737  0.76445  0.79022  Biso   1.000  I
  I15      1.0000 0.02628  0.65252  0.62988  Biso   1.000  I
  I16      1.0000 0.11951  0.74937  0.55567  Biso   1.000  I
  I17      1.0000 0.35190  0.59565  0.01126  Biso   1.000  I
  I18      1.0000 0.39850  0.73870  0.90293  Biso   1.000  I
  N25      1.0000 0.22310  0.46050  0.76980  Biso   1.000  N
  N26      1.0000 0.18340  0.33270  0.74690  Biso   1.000  N
  N27      1.0000 0.23390  0.32110  0.80870  Biso   1.000  N
  N28      1.0000 0.33150  0.54070  0.89350  Biso   1.000  N
  N29      1.0000 0.12530  0.56510  0.63790  Biso   1.000  N
  N30      1.0000 0.18070  0.00180  0.77510  Biso   1.000  N
  N31      1.0000 0.53970  0.35550  0.91490  Biso   1.000  N
  N32      1.0000 0.57420  0.21820  0.93680  Biso   1.000  N
  N33      1.0000 0.52390  0.26680  0.97220  Biso   1.000  N
  N34      1.0000 0.41970  0.50930  0.94340  Biso   1.000  N
  N35      1.0000 0.63630  0.34540  0.81790  Biso   1.000  N
  N36      1.0000 0.56990  0.97330  0.04730  Biso   1.000  N
  Zn7      1.0000 0.16684  0.86365  0.76845  Biso   1.000  Zn
  Zn8      1.0000 0.08379  0.63248  0.59200  Biso   1.000  Zn
  Zn9      1.0000 0.37456  0.60040  0.93974  Biso   1.000  Zn
  C109     1.0000 0.74180  0.91000  0.80260  Biso   1.000  C
  C110     1.0000 0.69410  0.92010  0.74370  Biso   1.000  C
  C111     1.0000 0.70530  0.78670  0.77910  Biso   1.000  C
  C112     1.0000 0.69680  0.68770  0.78000  Biso   1.000  C
  C113     1.0000 0.66230  0.65370  0.75460  Biso   1.000  C
  H73      1.0000 0.64390  0.69320  0.73890  Biso   1.000  H
  C114     1.0000 0.65590  0.56160  0.75300  Biso   1.000  C
  H74      1.0000 0.63300  0.53980  0.73560  Biso   1.000  H
  C115     1.0000 0.71410  0.53340  0.80020  Biso   1.000  C
  H75      1.0000 0.73200  0.49210  0.81540  Biso   1.000  H
  C116     1.0000 0.72220  0.62560  0.80360  Biso   1.000  C
  H76      1.0000 0.74490  0.64590  0.82190  Biso   1.000  H
  C117     1.0000 0.77350  0.95390  0.83450  Biso   1.000  C
  C118     1.0000 0.78450  0.04350  0.82760  Biso   1.000  C
  H77      1.0000 0.77250  0.07540  0.80300  Biso   1.000  H
  C119     1.0000 0.81330  0.08330  0.85780  Biso   1.000  C
  H78      1.0000 0.82050  0.14310  0.85320  Biso   1.000  H
  C120     1.0000 0.82110  0.95440  0.90020  Biso   1.000  C
  H79      1.0000 0.83370  0.92430  0.92510  Biso   1.000  H
  C121     1.0000 0.79240  0.90890  0.87130  Biso   1.000  C
  H80      1.0000 0.78600  0.84890  0.87660  Biso   1.000  H
  C122     1.0000 0.67110  0.97140  0.70680  Biso   1.000  C
  C123     1.0000 0.64260  0.92640  0.67610  Biso   1.000  C
  H81      1.0000 0.63850  0.86400  0.67820  Biso   1.000  H
  C124     1.0000 0.62120  0.97590  0.64340  Biso   1.000  C
  H82      1.0000 0.60230  0.94540  0.62340  Biso   1.000  H
  C125     1.0000 0.65260  0.10810  0.66600  Biso   1.000  C
  H83      1.0000 0.65650  0.17010  0.66210  Biso   1.000  H
  C126     1.0000 0.67550  0.06410  0.70110  Biso   1.000  C
  H84      1.0000 0.69380  0.09690  0.72080  Biso   1.000  H
  C127     1.0000 0.01790  0.83660  0.94430  Biso   1.000  C
  C128     1.0000 0.05210  0.70890  0.96650  Biso   1.000  C
  C129     1.0000 0.06790  0.79430  0.91290  Biso   1.000  C
  C130     1.0000 0.98420  0.89730  0.94490  Biso   1.000  C
  C131     1.0000 0.96940  0.90890  0.98200  Biso   1.000  C
  H85      1.0000 0.98070  0.88000  0.00790  Biso   1.000  H
  C132     1.0000 0.93670  0.96620  0.97930  Biso   1.000  C
  H86      1.0000 0.92630  0.97420  0.00410  Biso   1.000  H
  C133     1.0000 0.93400  0.99440  0.90750  Biso   1.000  C
  H87      1.0000 0.92170  0.02210  0.88170  Biso   1.000  H
  C134     1.0000 0.96580  0.94040  0.90700  Biso   1.000  C
  H88      1.0000 0.97510  0.93250  0.88150  Biso   1.000  H
  C135     1.0000 0.09230  0.81240  0.88040  Biso   1.000  C
  C136     1.0000 0.11230  0.74220  0.86430  Biso   1.000  C
  H89      1.0000 0.11120  0.68290  0.87450  Biso   1.000  H
  C137     1.0000 0.13320  0.76120  0.83400  Biso   1.000  C
  H90      1.0000 0.14630  0.71360  0.82350  Biso   1.000  H
  C138     1.0000 0.11790  0.91250  0.83380  Biso   1.000  C
  H91      1.0000 0.12030  0.97140  0.82370  Biso   1.000  H
  C139     1.0000 0.09570  0.89890  0.86440  Biso   1.000  C
  H92      1.0000 0.08300  0.94780  0.87440  Biso   1.000  H
  C140     1.0000 0.05770  0.62560  0.99330  Biso   1.000  C
  C141     1.0000 0.03190  0.60400  0.02040  Biso   1.000  C
  H93      1.0000 0.01010  0.64040  0.02080  Biso   1.000  H
  C142     1.0000 0.03910  0.52750  0.04690  Biso   1.000  C
  H94      1.0000 0.02190  0.51360  0.06510  Biso   1.000  H
  C143     1.0000 0.09360  0.49280  0.01990  Biso   1.000  C
  H95      1.0000 0.11440  0.45360  0.01900  Biso   1.000  H
  C144     1.0000 0.08880  0.56800  0.99310  Biso   1.000  C
  H96      1.0000 0.10640  0.57960  0.97500  Biso   1.000  H
  I19      1.0000 0.62022  0.34827  0.69573  Biso   1.000  I
  I20      1.0000 0.72737  0.26445  0.79022  Biso   1.000  I
  I21      1.0000 0.52628  0.15252  0.62988  Biso   1.000  I
  I22      1.0000 0.61951  0.24937  0.55567  Biso   1.000  I
  I23      1.0000 0.85190  0.09565  0.01126  Biso   1.000  I
  I24      1.0000 0.89850  0.23870  0.90293  Biso   1.000  I
  N37      1.0000 0.72310  0.96050  0.76980  Biso   1.000  N
  N38      1.0000 0.68340  0.83270  0.74690  Biso   1.000  N
  N39      1.0000 0.73390  0.82110  0.80870  Biso   1.000  N
  N40      1.0000 0.83150  0.04070  0.89350  Biso   1.000  N
  N41      1.0000 0.62530  0.06510  0.63790  Biso   1.000  N
  N42      1.0000 0.68070  0.50180  0.77510  Biso   1.000  N
  N43      1.0000 0.03970  0.85550  0.91490  Biso   1.000  N
  N44      1.0000 0.07420  0.71820  0.93680  Biso   1.000  N
  N45      1.0000 0.02390  0.76680  0.97220  Biso   1.000  N
  N46      1.0000 0.91970  0.00930  0.94340  Biso   1.000  N
  N47      1.0000 0.13630  0.84540  0.81790  Biso   1.000  N
  N48      1.0000 0.06990  0.47330  0.04730  Biso   1.000  N
  Zn10     1.0000 0.66684  0.36365  0.76845  Biso   1.000  Zn
  Zn11     1.0000 0.58379  0.13248  0.59200  Biso   1.000  Zn
  Zn12     1.0000 0.87456  0.10040  0.93974  Biso   1.000  Zn
  C145     1.0000 0.75820  0.59000  0.19740  Biso   1.000  C
  C146     1.0000 0.80590  0.57990  0.25630  Biso   1.000  C
  C147     1.0000 0.79470  0.71330  0.22090  Biso   1.000  C
  C148     1.0000 0.80320  0.81230  0.22000  Biso   1.000  C
  C149     1.0000 0.83770  0.84630  0.24540  Biso   1.000  C
  H97      1.0000 0.85610  0.80680  0.26110  Biso   1.000  H
  C150     1.0000 0.84410  0.93840  0.24700  Biso   1.000  C
  H98      1.0000 0.86700  0.96020  0.26440  Biso   1.000  H
  C151     1.0000 0.78590  0.96660  0.19980  Biso   1.000  C
  H99      1.0000 0.76800  0.00790  0.18460  Biso   1.000  H
  C152     1.0000 0.77780  0.87440  0.19640  Biso   1.000  C
  H100     1.0000 0.75510  0.85410  0.17810  Biso   1.000  H
  C153     1.0000 0.72650  0.54610  0.16550  Biso   1.000  C
  C154     1.0000 0.71550  0.45650  0.17240  Biso   1.000  C
  H101     1.0000 0.72750  0.42460  0.19700  Biso   1.000  H
  C155     1.0000 0.68670  0.41670  0.14220  Biso   1.000  C
  H102     1.0000 0.67950  0.35690  0.14680  Biso   1.000  H
  C156     1.0000 0.67890  0.54560  0.09980  Biso   1.000  C
  H103     1.0000 0.66630  0.57570  0.07490  Biso   1.000  H
  C157     1.0000 0.70760  0.59110  0.12870  Biso   1.000  C
  H104     1.0000 0.71400  0.65110  0.12340  Biso   1.000  H
  C158     1.0000 0.82890  0.52860  0.29320  Biso   1.000  C
  C159     1.0000 0.85740  0.57360  0.32390  Biso   1.000  C
  H105     1.0000 0.86150  0.63600  0.32180  Biso   1.000  H
  C160     1.0000 0.87880  0.52410  0.35660  Biso   1.000  C
  H106     1.0000 0.89770  0.55460  0.37660  Biso   1.000  H
  C161     1.0000 0.84740  0.39190  0.33400  Biso   1.000  C
  H107     1.0000 0.84350  0.32990  0.33790  Biso   1.000  H
  C162     1.0000 0.82450  0.43590  0.29890  Biso   1.000  C
  H108     1.0000 0.80620  0.40310  0.27920  Biso   1.000  H
  C163     1.0000 0.48210  0.66340  0.05570  Biso   1.000  C
  C164     1.0000 0.44790  0.79110  0.03350  Biso   1.000  C
  C165     1.0000 0.43210  0.70570  0.08710  Biso   1.000  C
  C166     1.0000 0.51580  0.60270  0.05510  Biso   1.000  C
  C167     1.0000 0.53060  0.59110  0.01800  Biso   1.000  C
  H109     1.0000 0.51930  0.62000  0.99210  Biso   1.000  H
  C168     1.0000 0.56330  0.53380  0.02070  Biso   1.000  C
  H110     1.0000 0.57370  0.52580  0.99590  Biso   1.000  H
  C169     1.0000 0.56600  0.50560  0.09250  Biso   1.000  C
  H111     1.0000 0.57830  0.47790  0.11830  Biso   1.000  H
  C170     1.0000 0.53420  0.55960  0.09300  Biso   1.000  C
  H112     1.0000 0.52490  0.56750  0.11850  Biso   1.000  H
  C171     1.0000 0.40770  0.68760  0.11960  Biso   1.000  C
  C172     1.0000 0.38770  0.75780  0.13570  Biso   1.000  C
  H113     1.0000 0.38880  0.81710  0.12550  Biso   1.000  H
  C173     1.0000 0.36680  0.73880  0.16600  Biso   1.000  C
  H114     1.0000 0.35370  0.78640  0.17650  Biso   1.000  H
  C174     1.0000 0.38210  0.58750  0.16620  Biso   1.000  C
  H115     1.0000 0.37970  0.52860  0.17630  Biso   1.000  H
  C175     1.0000 0.40430  0.60110  0.13560  Biso   1.000  C
  H116     1.0000 0.41700  0.55220  0.12560  Biso   1.000  H
  C176     1.0000 0.44230  0.87440  0.00670  Biso   1.000  C
  C177     1.0000 0.46810  0.89600  0.97960  Biso   1.000  C
  H117     1.0000 0.48990  0.85960  0.97920  Biso   1.000  H
  C178     1.0000 0.46090  0.97250  0.95310  Biso   1.000  C
  H118     1.0000 0.47810  0.98640  0.93490  Biso   1.000  H
  C179     1.0000 0.40640  0.00720  0.98010  Biso   1.000  C
  H119     1.0000 0.38560  0.04640  0.98100  Biso   1.000  H
  C180     1.0000 0.41120  0.93200  0.00690  Biso   1.000  C
  H120     1.0000 0.39360  0.92040  0.02500  Biso   1.000  H
  I25      1.0000 0.87978  0.15173  0.30427  Biso   1.000  I
  I26      1.0000 0.77263  0.23555  0.20978  Biso   1.000  I
  I27      1.0000 0.97372  0.34748  0.37012  Biso   1.000  I
  I28      1.0000 0.88049  0.25063  0.44433  Biso   1.000  I
  I29      1.0000 0.64810  0.40435  0.98874  Biso   1.000  I
  I30      1.0000 0.60150  0.26130  0.09707  Biso   1.000  I
  N49      1.0000 0.77690  0.53950  0.23020  Biso   1.000  N
  N50      1.0000 0.81660  0.66730  0.25310  Biso   1.000  N
  N51      1.0000 0.76610  0.67890  0.19130  Biso   1.000  N
  N52      1.0000 0.66850  0.45930  0.10650  Biso   1.000  N
  N53      1.0000 0.87470  0.43490  0.36210  Biso   1.000  N
  N54      1.0000 0.81930  0.99820  0.22490  Biso   1.000  N
  N55      1.0000 0.46030  0.64450  0.08510  Biso   1.000  N
  N56      1.0000 0.42580  0.78180  0.06320  Biso   1.000  N
  N57      1.0000 0.47610  0.73320  0.02780  Biso   1.000  N
  N58      1.0000 0.58030  0.49070  0.05660  Biso   1.000  N
  N59      1.0000 0.36370  0.65460  0.18210  Biso   1.000  N
  N60      1.0000 0.43010  0.02670  0.95270  Biso   1.000  N
  Zn13     1.0000 0.83316  0.13635  0.23155  Biso   1.000  Zn
  Zn14     1.0000 0.91621  0.36752  0.40800  Biso   1.000  Zn
  Zn15     1.0000 0.62544  0.39960  0.06026  Biso   1.000  Zn
  C181     1.0000 0.25820  0.09000  0.19740  Biso   1.000  C
  C182     1.0000 0.30590  0.07990  0.25630  Biso   1.000  C
  C183     1.0000 0.29470  0.21330  0.22090  Biso   1.000  C
  C184     1.0000 0.30320  0.31230  0.22000  Biso   1.000  C
  C185     1.0000 0.33770  0.34630  0.24540  Biso   1.000  C
  H121     1.0000 0.35610  0.30680  0.26110  Biso   1.000  H
  C186     1.0000 0.34410  0.43840  0.24700  Biso   1.000  C
  H122     1.0000 0.36700  0.46020  0.26440  Biso   1.000  H
  C187     1.0000 0.28590  0.46660  0.19980  Biso   1.000  C
  H123     1.0000 0.26800  0.50790  0.18460  Biso   1.000  H
  C188     1.0000 0.27780  0.37440  0.19640  Biso   1.000  C
  H124     1.0000 0.25510  0.35410  0.17810  Biso   1.000  H
  C189     1.0000 0.22650  0.04610  0.16550  Biso   1.000  C
  C190     1.0000 0.21550  0.95650  0.17240  Biso   1.000  C
  H125     1.0000 0.22750  0.92460  0.19700  Biso   1.000  H
  C191     1.0000 0.18670  0.91670  0.14220  Biso   1.000  C
  H126     1.0000 0.17950  0.85690  0.14680  Biso   1.000  H
  C192     1.0000 0.17890  0.04560  0.09980  Biso   1.000  C
  H127     1.0000 0.16630  0.07570  0.07490  Biso   1.000  H
  C193     1.0000 0.20760  0.09110  0.12870  Biso   1.000  C
  H128     1.0000 0.21400  0.15110  0.12340  Biso   1.000  H
  C194     1.0000 0.32890  0.02860  0.29320  Biso   1.000  C
  C195     1.0000 0.35740  0.07360  0.32390  Biso   1.000  C
  H129     1.0000 0.36150  0.13600  0.32180  Biso   1.000  H
  C196     1.0000 0.37880  0.02410  0.35660  Biso   1.000  C
  H130     1.0000 0.39770  0.05460  0.37660  Biso   1.000  H
  C197     1.0000 0.34740  0.89190  0.33400  Biso   1.000  C
  H131     1.0000 0.34350  0.82990  0.33790  Biso   1.000  H
  C198     1.0000 0.32450  0.93590  0.29890  Biso   1.000  C
  H132     1.0000 0.30620  0.90310  0.27920  Biso   1.000  H
  C199     1.0000 0.98210  0.16340  0.05570  Biso   1.000  C
  C200     1.0000 0.94790  0.29110  0.03350  Biso   1.000  C
  C201     1.0000 0.93210  0.20570  0.08710  Biso   1.000  C
  C202     1.0000 0.01580  0.10270  0.05510  Biso   1.000  C
  C203     1.0000 0.03060  0.09110  0.01800  Biso   1.000  C
  H133     1.0000 0.01930  0.12000  0.99210  Biso   1.000  H
  C204     1.0000 0.06330  0.03380  0.02070  Biso   1.000  C
  H134     1.0000 0.07370  0.02580  0.99590  Biso   1.000  H
  C205     1.0000 0.06600  0.00560  0.09250  Biso   1.000  C
  H135     1.0000 0.07830  0.97790  0.11830  Biso   1.000  H
  C206     1.0000 0.03420  0.05960  0.09300  Biso   1.000  C
  H136     1.0000 0.02490  0.06750  0.11850  Biso   1.000  H
  C207     1.0000 0.90770  0.18760  0.11960  Biso   1.000  C
  C208     1.0000 0.88770  0.25780  0.13570  Biso   1.000  C
  H137     1.0000 0.88880  0.31710  0.12550  Biso   1.000  H
  C209     1.0000 0.86680  0.23880  0.16600  Biso   1.000  C
  H138     1.0000 0.85370  0.28640  0.17650  Biso   1.000  H
  C210     1.0000 0.88210  0.08750  0.16620  Biso   1.000  C
  H139     1.0000 0.87970  0.02860  0.17630  Biso   1.000  H
  C211     1.0000 0.90430  0.10110  0.13560  Biso   1.000  C
  H140     1.0000 0.91700  0.05220  0.12560  Biso   1.000  H
  C212     1.0000 0.94230  0.37440  0.00670  Biso   1.000  C
  C213     1.0000 0.96810  0.39600  0.97960  Biso   1.000  C
  H141     1.0000 0.98990  0.35960  0.97920  Biso   1.000  H
  C214     1.0000 0.96090  0.47250  0.95310  Biso   1.000  C
  H142     1.0000 0.97810  0.48640  0.93490  Biso   1.000  H
  C215     1.0000 0.90640  0.50720  0.98010  Biso   1.000  C
  H143     1.0000 0.88560  0.54640  0.98100  Biso   1.000  H
  C216     1.0000 0.91120  0.43200  0.00690  Biso   1.000  C
  H144     1.0000 0.89360  0.42040  0.02500  Biso   1.000  H
  I31      1.0000 0.37978  0.65173  0.30427  Biso   1.000  I
  I32      1.0000 0.27263  0.73555  0.20978  Biso   1.000  I
  I33      1.0000 0.47372  0.84748  0.37012  Biso   1.000  I
  I34      1.0000 0.38049  0.75063  0.44433  Biso   1.000  I
  I35      1.0000 0.14810  0.90435  0.98874  Biso   1.000  I
  I36      1.0000 0.10150  0.76130  0.09707  Biso   1.000  I
  N61      1.0000 0.27690  0.03950  0.23020  Biso   1.000  N
  N62      1.0000 0.31660  0.16730  0.25310  Biso   1.000  N
  N63      1.0000 0.26610  0.17890  0.19130  Biso   1.000  N
  N64      1.0000 0.16850  0.95930  0.10650  Biso   1.000  N
  N65      1.0000 0.37470  0.93490  0.36210  Biso   1.000  N
  N66      1.0000 0.31930  0.49820  0.22490  Biso   1.000  N
  N67      1.0000 0.96030  0.14450  0.08510  Biso   1.000  N
  N68      1.0000 0.92580  0.28180  0.06320  Biso   1.000  N
  N69      1.0000 0.97610  0.23320  0.02780  Biso   1.000  N
  N70      1.0000 0.08030  0.99070  0.05660  Biso   1.000  N
  N71      1.0000 0.86370  0.15460  0.18210  Biso   1.000  N
  N72      1.0000 0.93010  0.52670  0.95270  Biso   1.000  N
  Zn16     1.0000 0.33316  0.63635  0.23155  Biso   1.000  Zn
  Zn17     1.0000 0.41621  0.86752  0.40800  Biso   1.000  Zn
  Zn18     1.0000 0.12544  0.89960  0.06026  Biso   1.000  Zn
  C217     1.0000 0.75820  0.41000  0.69740  Biso   1.000  C
  C218     1.0000 0.80590  0.42010  0.75630  Biso   1.000  C
  C219     1.0000 0.79470  0.28670  0.72090  Biso   1.000  C
  C220     1.0000 0.80320  0.18770  0.72000  Biso   1.000  C
  C221     1.0000 0.83770  0.15370  0.74540  Biso   1.000  C
  H145     1.0000 0.85610  0.19320  0.76110  Biso   1.000  H
  C222     1.0000 0.84410  0.06160  0.74700  Biso   1.000  C
  H146     1.0000 0.86700  0.03980  0.76440  Biso   1.000  H
  C223     1.0000 0.78590  0.03340  0.69980  Biso   1.000  C
  H147     1.0000 0.76800  0.99210  0.68460  Biso   1.000  H
  C224     1.0000 0.77780  0.12560  0.69640  Biso   1.000  C
  H148     1.0000 0.75510  0.14590  0.67810  Biso   1.000  H
  C225     1.0000 0.72650  0.45390  0.66550  Biso   1.000  C
  C226     1.0000 0.71550  0.54350  0.67240  Biso   1.000  C
  H149     1.0000 0.72750  0.57540  0.69700  Biso   1.000  H
  C227     1.0000 0.68670  0.58330  0.64220  Biso   1.000  C
  H150     1.0000 0.67950  0.64310  0.64680  Biso   1.000  H
  C228     1.0000 0.67890  0.45440  0.59980  Biso   1.000  C
  H151     1.0000 0.66630  0.42430  0.57490  Biso   1.000  H
  C229     1.0000 0.70760  0.40890  0.62870  Biso   1.000  C
  H152     1.0000 0.71400  0.34890  0.62340  Biso   1.000  H
  C230     1.0000 0.82890  0.47140  0.79320  Biso   1.000  C
  C231     1.0000 0.85740  0.42640  0.82390  Biso   1.000  C
  H153     1.0000 0.86150  0.36400  0.82180  Biso   1.000  H
  C232     1.0000 0.87880  0.47590  0.85660  Biso   1.000  C
  H154     1.0000 0.89770  0.44540  0.87660  Biso   1.000  H
  C233     1.0000 0.84740  0.60810  0.83400  Biso   1.000  C
  H155     1.0000 0.84350  0.67010  0.83790  Biso   1.000  H
  C234     1.0000 0.82450  0.56410  0.79890  Biso   1.000  C
  H156     1.0000 0.80620  0.59690  0.77920  Biso   1.000  H
  C235     1.0000 0.48210  0.33660  0.55570  Biso   1.000  C
  C236     1.0000 0.44790  0.20890  0.53350  Biso   1.000  C
  C237     1.0000 0.43210  0.29430  0.58710  Biso   1.000  C
  C238     1.0000 0.51580  0.39730  0.55510  Biso   1.000  C
  C239     1.0000 0.53060  0.40890  0.51800  Biso   1.000  C
  H157     1.0000 0.51930  0.38000  0.49210  Biso   1.000  H
  C240     1.0000 0.56330  0.46620  0.52070  Biso   1.000  C
  H158     1.0000 0.57370  0.47420  0.49590  Biso   1.000  H
  C241     1.0000 0.56600  0.49440  0.59250  Biso   1.000  C
  H159     1.0000 0.57830  0.52210  0.61830  Biso   1.000  H
  C242     1.0000 0.53420  0.44040  0.59300  Biso   1.000  C
  H160     1.0000 0.52490  0.43250  0.61850  Biso   1.000  H
  C243     1.0000 0.40770  0.31240  0.61960  Biso   1.000  C
  C244     1.0000 0.38770  0.24220  0.63570  Biso   1.000  C
  H161     1.0000 0.38880  0.18290  0.62550  Biso   1.000  H
  C245     1.0000 0.36680  0.26120  0.66600  Biso   1.000  C
  H162     1.0000 0.35370  0.21360  0.67650  Biso   1.000  H
  C246     1.0000 0.38210  0.41250  0.66620  Biso   1.000  C
  H163     1.0000 0.37970  0.47140  0.67630  Biso   1.000  H
  C247     1.0000 0.40430  0.39890  0.63560  Biso   1.000  C
  H164     1.0000 0.41700  0.44780  0.62560  Biso   1.000  H
  C248     1.0000 0.44230  0.12560  0.50670  Biso   1.000  C
  C249     1.0000 0.46810  0.10400  0.47960  Biso   1.000  C
  H165     1.0000 0.48990  0.14040  0.47920  Biso   1.000  H
  C250     1.0000 0.46090  0.02750  0.45310  Biso   1.000  C
  H166     1.0000 0.47810  0.01360  0.43490  Biso   1.000  H
  C251     1.0000 0.40640  0.99280  0.48010  Biso   1.000  C
  H167     1.0000 0.38560  0.95360  0.48100  Biso   1.000  H
  C252     1.0000 0.41120  0.06800  0.50690  Biso   1.000  C
  H168     1.0000 0.39360  0.07960  0.52500  Biso   1.000  H
  I37      1.0000 0.87978  0.84827  0.80427  Biso   1.000  I
  I38      1.0000 0.77263  0.76445  0.70978  Biso   1.000  I
  I39      1.0000 0.97372  0.65252  0.87012  Biso   1.000  I
  I40      1.0000 0.88049  0.74937  0.94433  Biso   1.000  I
  I41      1.0000 0.64810  0.59565  0.48874  Biso   1.000  I
  I42      1.0000 0.60150  0.73870  0.59707  Biso   1.000  I
  N73      1.0000 0.77690  0.46050  0.73020  Biso   1.000  N
  N74      1.0000 0.81660  0.33270  0.75310  Biso   1.000  N
  N75      1.0000 0.76610  0.32110  0.69130  Biso   1.000  N
  N76      1.0000 0.66850  0.54070  0.60650  Biso   1.000  N
  N77      1.0000 0.87470  0.56510  0.86210  Biso   1.000  N
  N78      1.0000 0.81930  0.00180  0.72490  Biso   1.000  N
  N79      1.0000 0.46030  0.35550  0.58510  Biso   1.000  N
  N80      1.0000 0.42580  0.21820  0.56320  Biso   1.000  N
  N81      1.0000 0.47610  0.26680  0.52780  Biso   1.000  N
  N82      1.0000 0.58030  0.50930  0.55660  Biso   1.000  N
  N83      1.0000 0.36370  0.34540  0.68210  Biso   1.000  N
  N84      1.0000 0.43010  0.97330  0.45270  Biso   1.000  N
  Zn19     1.0000 0.83316  0.86365  0.73155  Biso   1.000  Zn
  Zn20     1.0000 0.91621  0.63248  0.90800  Biso   1.000  Zn
  Zn21     1.0000 0.62544  0.60040  0.56026  Biso   1.000  Zn
  C253     1.0000 0.25820  0.91000  0.69740  Biso   1.000  C
  C254     1.0000 0.30590  0.92010  0.75630  Biso   1.000  C
  C255     1.0000 0.29470  0.78670  0.72090  Biso   1.000  C
  C256     1.0000 0.30320  0.68770  0.72000  Biso   1.000  C
  C257     1.0000 0.33770  0.65370  0.74540  Biso   1.000  C
  H169     1.0000 0.35610  0.69320  0.76110  Biso   1.000  H
  C258     1.0000 0.34410  0.56160  0.74700  Biso   1.000  C
  H170     1.0000 0.36700  0.53980  0.76440  Biso   1.000  H
  C259     1.0000 0.28590  0.53340  0.69980  Biso   1.000  C
  H171     1.0000 0.26800  0.49210  0.68460  Biso   1.000  H
  C260     1.0000 0.27780  0.62560  0.69640  Biso   1.000  C
  H172     1.0000 0.25510  0.64590  0.67810  Biso   1.000  H
  C261     1.0000 0.22650  0.95390  0.66550  Biso   1.000  C
  C262     1.0000 0.21550  0.04350  0.67240  Biso   1.000  C
  H173     1.0000 0.22750  0.07540  0.69700  Biso   1.000  H
  C263     1.0000 0.18670  0.08330  0.64220  Biso   1.000  C
  H174     1.0000 0.17950  0.14310  0.64680  Biso   1.000  H
  C264     1.0000 0.17890  0.95440  0.59980  Biso   1.000  C
  H175     1.0000 0.16630  0.92430  0.57490  Biso   1.000  H
  C265     1.0000 0.20760  0.90890  0.62870  Biso   1.000  C
  H176     1.0000 0.21400  0.84890  0.62340  Biso   1.000  H
  C266     1.0000 0.32890  0.97140  0.79320  Biso   1.000  C
  C267     1.0000 0.35740  0.92640  0.82390  Biso   1.000  C
  H177     1.0000 0.36150  0.86400  0.82180  Biso   1.000  H
  C268     1.0000 0.37880  0.97590  0.85660  Biso   1.000  C
  H178     1.0000 0.39770  0.94540  0.87660  Biso   1.000  H
  C269     1.0000 0.34740  0.10810  0.83400  Biso   1.000  C
  H179     1.0000 0.34350  0.17010  0.83790  Biso   1.000  H
  C270     1.0000 0.32450  0.06410  0.79890  Biso   1.000  C
  H180     1.0000 0.30620  0.09690  0.77920  Biso   1.000  H
  C271     1.0000 0.98210  0.83660  0.55570  Biso   1.000  C
  C272     1.0000 0.94790  0.70890  0.53350  Biso   1.000  C
  C273     1.0000 0.93210  0.79430  0.58710  Biso   1.000  C
  C274     1.0000 0.01580  0.89730  0.55510  Biso   1.000  C
  C275     1.0000 0.03060  0.90890  0.51800  Biso   1.000  C
  H181     1.0000 0.01930  0.88000  0.49210  Biso   1.000  H
  C276     1.0000 0.06330  0.96620  0.52070  Biso   1.000  C
  H182     1.0000 0.07370  0.97420  0.49590  Biso   1.000  H
  C277     1.0000 0.06600  0.99440  0.59250  Biso   1.000  C
  H183     1.0000 0.07830  0.02210  0.61830  Biso   1.000  H
  C278     1.0000 0.03420  0.94040  0.59300  Biso   1.000  C
  H184     1.0000 0.02490  0.93250  0.61850  Biso   1.000  H
  C279     1.0000 0.90770  0.81240  0.61960  Biso   1.000  C
  C280     1.0000 0.88770  0.74220  0.63570  Biso   1.000  C
  H185     1.0000 0.88880  0.68290  0.62550  Biso   1.000  H
  C281     1.0000 0.86680  0.76120  0.66600  Biso   1.000  C
  H186     1.0000 0.85370  0.71360  0.67650  Biso   1.000  H
  C282     1.0000 0.88210  0.91250  0.66620  Biso   1.000  C
  H187     1.0000 0.87970  0.97140  0.67630  Biso   1.000  H
  C283     1.0000 0.90430  0.89890  0.63560  Biso   1.000  C
  H188     1.0000 0.91700  0.94780  0.62560  Biso   1.000  H
  C284     1.0000 0.94230  0.62560  0.50670  Biso   1.000  C
  C285     1.0000 0.96810  0.60400  0.47960  Biso   1.000  C
  H189     1.0000 0.98990  0.64040  0.47920  Biso   1.000  H
  C286     1.0000 0.96090  0.52750  0.45310  Biso   1.000  C
  H190     1.0000 0.97810  0.51360  0.43490  Biso   1.000  H
  C287     1.0000 0.90640  0.49280  0.48010  Biso   1.000  C
  H191     1.0000 0.88560  0.45360  0.48100  Biso   1.000  H
  C288     1.0000 0.91120  0.56800  0.50690  Biso   1.000  C
  H192     1.0000 0.89360  0.57960  0.52500  Biso   1.000  H
  I43      1.0000 0.37978  0.34827  0.80427  Biso   1.000  I
  I44      1.0000 0.27263  0.26445  0.70978  Biso   1.000  I
  I45      1.0000 0.47372  0.15252  0.87012  Biso   1.000  I
  I46      1.0000 0.38049  0.24937  0.94433  Biso   1.000  I
  I47      1.0000 0.14810  0.09565  0.48874  Biso   1.000  I
  I48      1.0000 0.10150  0.23870  0.59707  Biso   1.000  I
  N85      1.0000 0.27690  0.96050  0.73020  Biso   1.000  N
  N86      1.0000 0.31660  0.83270  0.75310  Biso   1.000  N
  N87      1.0000 0.26610  0.82110  0.69130  Biso   1.000  N
  N88      1.0000 0.16850  0.04070  0.60650  Biso   1.000  N
  N89      1.0000 0.37470  0.06510  0.86210  Biso   1.000  N
  N90      1.0000 0.31930  0.50180  0.72490  Biso   1.000  N
  N91      1.0000 0.96030  0.85550  0.58510  Biso   1.000  N
  N92      1.0000 0.92580  0.71820  0.56320  Biso   1.000  N
  N93      1.0000 0.97610  0.76680  0.52780  Biso   1.000  N
  N94      1.0000 0.08030  0.00930  0.55660  Biso   1.000  N
  N95      1.0000 0.86370  0.84540  0.68210  Biso   1.000  N
  N96      1.0000 0.93010  0.47330  0.45270  Biso   1.000  N
  Zn22     1.0000 0.33316  0.36365  0.73155  Biso   1.000  Zn
  Zn23     1.0000 0.41621  0.13248  0.90800  Biso   1.000  Zn
  Zn24     1.0000 0.12544  0.10040  0.56026  Biso   1.000  Zn
