data_image0
_cell_length_a       31.251
_cell_length_b       31.251
_cell_length_c       31.251
_cell_angle_alpha    90
_cell_angle_beta     90
_cell_angle_gamma    90

_symmetry_space_group_name_H-M    "P 1"
_symmetry_int_tables_number       1

loop_
  _symmetry_equiv_pos_as_xyz
  'x, y, z'

loop_
  _atom_site_label
  _atom_site_occupancy
  _atom_site_fract_x
  _atom_site_fract_y
  _atom_site_fract_z
  _atom_site_thermal_displace_type
  _atom_site_B_iso_or_equiv
  _atom_site_type_symbol
  N1       1.0000 0.11368  0.83467  0.20168  Biso   1.000  N
  N2       1.0000 0.07044  0.94612  0.27811  Biso   1.000  N
  N3       1.0000 0.25883  0.79792  0.16993  Biso   1.000  N
  N4       1.0000 0.33212  0.83134  0.05378  Biso   1.000  N
  C1       1.0000 0.07932  0.84434  0.20890  Biso   1.000  C
  C2       1.0000 0.04906  0.92143  0.26181  Biso   1.000  C
  C3       1.0000 0.29089  0.78371  0.15960  Biso   1.000  C
  C4       1.0000 0.34180  0.80640  0.07866  Biso   1.000  C
  C5       1.0000 0.03632  0.85580  0.21746  Biso   1.000  C
  C6       1.0000 0.02235  0.89099  0.24126  Biso   1.000  C
  C7       1.0000 0.33075  0.76581  0.14717  Biso   1.000  C
  C8       1.0000 0.35335  0.77552  0.11016  Biso   1.000  C
  N5       1.0000 0.88632  0.16533  0.20168  Biso   1.000  N
  N6       1.0000 0.92956  0.05388  0.27811  Biso   1.000  N
  N7       1.0000 0.74117  0.20208  0.16993  Biso   1.000  N
  N8       1.0000 0.66788  0.16866  0.05378  Biso   1.000  N
  C9       1.0000 0.92068  0.15566  0.20890  Biso   1.000  C
  C10      1.0000 0.95094  0.07857  0.26181  Biso   1.000  C
  C11      1.0000 0.70911  0.21629  0.15960  Biso   1.000  C
  C12      1.0000 0.65820  0.19360  0.07866  Biso   1.000  C
  C13      1.0000 0.96368  0.14420  0.21746  Biso   1.000  C
  C14      1.0000 0.97765  0.10901  0.24126  Biso   1.000  C
  C15      1.0000 0.66925  0.23419  0.14717  Biso   1.000  C
  C16      1.0000 0.64665  0.22448  0.11016  Biso   1.000  C
  N9       1.0000 0.88632  0.83467  0.79832  Biso   1.000  N
  N10      1.0000 0.92956  0.94612  0.72189  Biso   1.000  N
  N11      1.0000 0.74117  0.79792  0.83007  Biso   1.000  N
  N12      1.0000 0.66788  0.83134  0.94622  Biso   1.000  N
  C17      1.0000 0.92068  0.84434  0.79110  Biso   1.000  C
  C18      1.0000 0.95094  0.92143  0.73819  Biso   1.000  C
  C19      1.0000 0.70911  0.78371  0.84040  Biso   1.000  C
  C20      1.0000 0.65820  0.80640  0.92134  Biso   1.000  C
  C21      1.0000 0.96368  0.85580  0.78254  Biso   1.000  C
  C22      1.0000 0.97765  0.89099  0.75874  Biso   1.000  C
  C23      1.0000 0.66925  0.76581  0.85283  Biso   1.000  C
  C24      1.0000 0.64665  0.77552  0.88984  Biso   1.000  C
  N13      1.0000 0.11368  0.16533  0.79832  Biso   1.000  N
  N14      1.0000 0.07044  0.05388  0.72189  Biso   1.000  N
  N15      1.0000 0.25883  0.20208  0.83007  Biso   1.000  N
  N16      1.0000 0.33212  0.16866  0.94622  Biso   1.000  N
  C25      1.0000 0.07932  0.15566  0.79110  Biso   1.000  C
  C26      1.0000 0.04906  0.07857  0.73819  Biso   1.000  C
  C27      1.0000 0.29089  0.21629  0.84040  Biso   1.000  C
  C28      1.0000 0.34180  0.19360  0.92134  Biso   1.000  C
  C29      1.0000 0.03632  0.14420  0.78254  Biso   1.000  C
  C30      1.0000 0.02235  0.10901  0.75874  Biso   1.000  C
  C31      1.0000 0.33075  0.23419  0.85283  Biso   1.000  C
  C32      1.0000 0.35335  0.22448  0.88984  Biso   1.000  C
  N17      1.0000 0.20168  0.11368  0.83467  Biso   1.000  N
  N18      1.0000 0.27811  0.07044  0.94612  Biso   1.000  N
  N19      1.0000 0.16993  0.25883  0.79792  Biso   1.000  N
  N20      1.0000 0.05378  0.33212  0.83134  Biso   1.000  N
  C33      1.0000 0.20890  0.07932  0.84434  Biso   1.000  C
  C34      1.0000 0.26181  0.04906  0.92143  Biso   1.000  C
  C35      1.0000 0.15960  0.29089  0.78371  Biso   1.000  C
  C36      1.0000 0.07866  0.34180  0.80640  Biso   1.000  C
  C37      1.0000 0.21746  0.03632  0.85580  Biso   1.000  C
  C38      1.0000 0.24126  0.02235  0.89099  Biso   1.000  C
  C39      1.0000 0.14717  0.33075  0.76581  Biso   1.000  C
  C40      1.0000 0.11016  0.35335  0.77552  Biso   1.000  C
  N21      1.0000 0.20168  0.88632  0.16533  Biso   1.000  N
  N22      1.0000 0.27811  0.92956  0.05388  Biso   1.000  N
  N23      1.0000 0.16993  0.74117  0.20208  Biso   1.000  N
  N24      1.0000 0.05378  0.66788  0.16866  Biso   1.000  N
  C41      1.0000 0.20890  0.92068  0.15566  Biso   1.000  C
  C42      1.0000 0.26181  0.95094  0.07857  Biso   1.000  C
  C43      1.0000 0.15960  0.70911  0.21629  Biso   1.000  C
  C44      1.0000 0.07866  0.65820  0.19360  Biso   1.000  C
  C45      1.0000 0.21746  0.96368  0.14420  Biso   1.000  C
  C46      1.0000 0.24126  0.97765  0.10901  Biso   1.000  C
  C47      1.0000 0.14717  0.66925  0.23419  Biso   1.000  C
  C48      1.0000 0.11016  0.64665  0.22448  Biso   1.000  C
  N25      1.0000 0.79832  0.88632  0.83467  Biso   1.000  N
  N26      1.0000 0.72189  0.92956  0.94612  Biso   1.000  N
  N27      1.0000 0.83007  0.74117  0.79792  Biso   1.000  N
  N28      1.0000 0.94622  0.66788  0.83134  Biso   1.000  N
  C49      1.0000 0.79110  0.92068  0.84434  Biso   1.000  C
  C50      1.0000 0.73819  0.95094  0.92143  Biso   1.000  C
  C51      1.0000 0.84040  0.70911  0.78371  Biso   1.000  C
  C52      1.0000 0.92134  0.65820  0.80640  Biso   1.000  C
  C53      1.0000 0.78254  0.96368  0.85580  Biso   1.000  C
  C54      1.0000 0.75874  0.97765  0.89099  Biso   1.000  C
  C55      1.0000 0.85283  0.66925  0.76581  Biso   1.000  C
  C56      1.0000 0.88984  0.64665  0.77552  Biso   1.000  C
  N29      1.0000 0.79832  0.11368  0.16533  Biso   1.000  N
  N30      1.0000 0.72189  0.07044  0.05388  Biso   1.000  N
  N31      1.0000 0.83007  0.25883  0.20208  Biso   1.000  N
  N32      1.0000 0.94622  0.33212  0.16866  Biso   1.000  N
  C57      1.0000 0.79110  0.07932  0.15566  Biso   1.000  C
  C58      1.0000 0.73819  0.04906  0.07857  Biso   1.000  C
  C59      1.0000 0.84040  0.29089  0.21629  Biso   1.000  C
  C60      1.0000 0.92134  0.34180  0.19360  Biso   1.000  C
  C61      1.0000 0.78254  0.03632  0.14420  Biso   1.000  C
  C62      1.0000 0.75874  0.02235  0.10901  Biso   1.000  C
  C63      1.0000 0.85283  0.33075  0.23419  Biso   1.000  C
  C64      1.0000 0.88984  0.35335  0.22448  Biso   1.000  C
  N33      1.0000 0.83467  0.20168  0.11368  Biso   1.000  N
  N34      1.0000 0.94612  0.27811  0.07044  Biso   1.000  N
  N35      1.0000 0.79792  0.16993  0.25883  Biso   1.000  N
  N36      1.0000 0.83134  0.05378  0.33212  Biso   1.000  N
  C65      1.0000 0.84434  0.20890  0.07932  Biso   1.000  C
  C66      1.0000 0.92143  0.26181  0.04906  Biso   1.000  C
  C67      1.0000 0.78371  0.15960  0.29089  Biso   1.000  C
  C68      1.0000 0.80640  0.07866  0.34180  Biso   1.000  C
  C69      1.0000 0.85580  0.21746  0.03632  Biso   1.000  C
  C70      1.0000 0.89099  0.24126  0.02235  Biso   1.000  C
  C71      1.0000 0.76581  0.14717  0.33075  Biso   1.000  C
  C72      1.0000 0.77552  0.11016  0.35335  Biso   1.000  C
  N37      1.0000 0.16533  0.20168  0.88632  Biso   1.000  N
  N38      1.0000 0.05388  0.27811  0.92956  Biso   1.000  N
  N39      1.0000 0.20208  0.16993  0.74117  Biso   1.000  N
  N40      1.0000 0.16866  0.05378  0.66788  Biso   1.000  N
  C73      1.0000 0.15566  0.20890  0.92068  Biso   1.000  C
  C74      1.0000 0.07857  0.26181  0.95094  Biso   1.000  C
  C75      1.0000 0.21629  0.15960  0.70911  Biso   1.000  C
  C76      1.0000 0.19360  0.07866  0.65820  Biso   1.000  C
  C77      1.0000 0.14420  0.21746  0.96368  Biso   1.000  C
  C78      1.0000 0.10901  0.24126  0.97765  Biso   1.000  C
  C79      1.0000 0.23419  0.14717  0.66925  Biso   1.000  C
  C80      1.0000 0.22448  0.11016  0.64665  Biso   1.000  C
  N41      1.0000 0.83467  0.79832  0.88632  Biso   1.000  N
  N42      1.0000 0.94612  0.72189  0.92956  Biso   1.000  N
  N43      1.0000 0.79792  0.83007  0.74117  Biso   1.000  N
  N44      1.0000 0.83134  0.94622  0.66788  Biso   1.000  N
  C81      1.0000 0.84434  0.79110  0.92068  Biso   1.000  C
  C82      1.0000 0.92143  0.73819  0.95094  Biso   1.000  C
  C83      1.0000 0.78371  0.84040  0.70911  Biso   1.000  C
  C84      1.0000 0.80640  0.92134  0.65820  Biso   1.000  C
  C85      1.0000 0.85580  0.78254  0.96368  Biso   1.000  C
  C86      1.0000 0.89099  0.75874  0.97765  Biso   1.000  C
  C87      1.0000 0.76581  0.85283  0.66925  Biso   1.000  C
  C88      1.0000 0.77552  0.88984  0.64665  Biso   1.000  C
  N45      1.0000 0.16533  0.79832  0.11368  Biso   1.000  N
  N46      1.0000 0.05388  0.72189  0.07044  Biso   1.000  N
  N47      1.0000 0.20208  0.83007  0.25883  Biso   1.000  N
  N48      1.0000 0.16866  0.94622  0.33212  Biso   1.000  N
  C89      1.0000 0.15566  0.79110  0.07932  Biso   1.000  C
  C90      1.0000 0.07857  0.73819  0.04906  Biso   1.000  C
  C91      1.0000 0.21629  0.84040  0.29089  Biso   1.000  C
  C92      1.0000 0.19360  0.92134  0.34180  Biso   1.000  C
  C93      1.0000 0.14420  0.78254  0.03632  Biso   1.000  C
  C94      1.0000 0.10901  0.75874  0.02235  Biso   1.000  C
  C95      1.0000 0.23419  0.85283  0.33075  Biso   1.000  C
  C96      1.0000 0.22448  0.88984  0.35335  Biso   1.000  C
  N49      1.0000 0.33467  0.61368  0.29832  Biso   1.000  N
  N50      1.0000 0.44612  0.57044  0.22189  Biso   1.000  N
  N51      1.0000 0.29792  0.75883  0.33007  Biso   1.000  N
  N52      1.0000 0.33134  0.83212  0.44622  Biso   1.000  N
  C97      1.0000 0.34434  0.57932  0.29110  Biso   1.000  C
  C98      1.0000 0.42143  0.54906  0.23819  Biso   1.000  C
  C99      1.0000 0.28371  0.79089  0.34040  Biso   1.000  C
  C100     1.0000 0.30640  0.84180  0.42134  Biso   1.000  C
  C101     1.0000 0.35580  0.53632  0.28254  Biso   1.000  C
  C102     1.0000 0.39099  0.52235  0.25874  Biso   1.000  C
  C103     1.0000 0.26581  0.83075  0.35283  Biso   1.000  C
  C104     1.0000 0.27552  0.85335  0.38984  Biso   1.000  C
  N53      1.0000 0.66533  0.38632  0.29832  Biso   1.000  N
  N54      1.0000 0.55388  0.42956  0.22189  Biso   1.000  N
  N55      1.0000 0.70208  0.24117  0.33007  Biso   1.000  N
  N56      1.0000 0.66866  0.16788  0.44622  Biso   1.000  N
  C105     1.0000 0.65566  0.42068  0.29110  Biso   1.000  C
  C106     1.0000 0.57857  0.45094  0.23819  Biso   1.000  C
  C107     1.0000 0.71629  0.20911  0.34040  Biso   1.000  C
  C108     1.0000 0.69360  0.15820  0.42134  Biso   1.000  C
  C109     1.0000 0.64420  0.46368  0.28254  Biso   1.000  C
  C110     1.0000 0.60901  0.47765  0.25874  Biso   1.000  C
  C111     1.0000 0.73419  0.16925  0.35283  Biso   1.000  C
  C112     1.0000 0.72448  0.14665  0.38984  Biso   1.000  C
  N57      1.0000 0.33467  0.38632  0.70168  Biso   1.000  N
  N58      1.0000 0.44612  0.42956  0.77811  Biso   1.000  N
  N59      1.0000 0.29792  0.24117  0.66993  Biso   1.000  N
  N60      1.0000 0.33134  0.16788  0.55378  Biso   1.000  N
  C113     1.0000 0.34434  0.42068  0.70890  Biso   1.000  C
  C114     1.0000 0.42143  0.45094  0.76181  Biso   1.000  C
  C115     1.0000 0.28371  0.20911  0.65960  Biso   1.000  C
  C116     1.0000 0.30640  0.15820  0.57866  Biso   1.000  C
  C117     1.0000 0.35580  0.46368  0.71746  Biso   1.000  C
  C118     1.0000 0.39099  0.47765  0.74126  Biso   1.000  C
  C119     1.0000 0.26581  0.16925  0.64717  Biso   1.000  C
  C120     1.0000 0.27552  0.14665  0.61016  Biso   1.000  C
  N61      1.0000 0.66533  0.61368  0.70168  Biso   1.000  N
  N62      1.0000 0.55388  0.57044  0.77811  Biso   1.000  N
  N63      1.0000 0.70208  0.75883  0.66993  Biso   1.000  N
  N64      1.0000 0.66866  0.83212  0.55378  Biso   1.000  N
  C121     1.0000 0.65566  0.57932  0.70890  Biso   1.000  C
  C122     1.0000 0.57857  0.54906  0.76181  Biso   1.000  C
  C123     1.0000 0.71629  0.79089  0.65960  Biso   1.000  C
  C124     1.0000 0.69360  0.84180  0.57866  Biso   1.000  C
  C125     1.0000 0.64420  0.53632  0.71746  Biso   1.000  C
  C126     1.0000 0.60901  0.52235  0.74126  Biso   1.000  C
  C127     1.0000 0.73419  0.83075  0.64717  Biso   1.000  C
  C128     1.0000 0.72448  0.85335  0.61016  Biso   1.000  C
  N65      1.0000 0.61368  0.70168  0.66533  Biso   1.000  N
  N66      1.0000 0.57044  0.77811  0.55388  Biso   1.000  N
  N67      1.0000 0.75883  0.66993  0.70208  Biso   1.000  N
  N68      1.0000 0.83212  0.55378  0.66866  Biso   1.000  N
  C129     1.0000 0.57932  0.70890  0.65566  Biso   1.000  C
  C130     1.0000 0.54906  0.76181  0.57857  Biso   1.000  C
  C131     1.0000 0.79089  0.65960  0.71629  Biso   1.000  C
  C132     1.0000 0.84180  0.57866  0.69360  Biso   1.000  C
  C133     1.0000 0.53632  0.71746  0.64420  Biso   1.000  C
  C134     1.0000 0.52235  0.74126  0.60901  Biso   1.000  C
  C135     1.0000 0.83075  0.64717  0.73419  Biso   1.000  C
  C136     1.0000 0.85335  0.61016  0.72448  Biso   1.000  C
  N69      1.0000 0.38632  0.70168  0.33467  Biso   1.000  N
  N70      1.0000 0.42956  0.77811  0.44612  Biso   1.000  N
  N71      1.0000 0.24117  0.66993  0.29792  Biso   1.000  N
  N72      1.0000 0.16788  0.55378  0.33134  Biso   1.000  N
  C137     1.0000 0.42068  0.70890  0.34434  Biso   1.000  C
  C138     1.0000 0.45094  0.76181  0.42143  Biso   1.000  C
  C139     1.0000 0.20911  0.65960  0.28371  Biso   1.000  C
  C140     1.0000 0.15820  0.57866  0.30640  Biso   1.000  C
  C141     1.0000 0.46368  0.71746  0.35580  Biso   1.000  C
  C142     1.0000 0.47765  0.74126  0.39099  Biso   1.000  C
  C143     1.0000 0.16925  0.64717  0.26581  Biso   1.000  C
  C144     1.0000 0.14665  0.61016  0.27552  Biso   1.000  C
  N73      1.0000 0.38632  0.29832  0.66533  Biso   1.000  N
  N74      1.0000 0.42956  0.22189  0.55388  Biso   1.000  N
  N75      1.0000 0.24117  0.33007  0.70208  Biso   1.000  N
  N76      1.0000 0.16788  0.44622  0.66866  Biso   1.000  N
  C145     1.0000 0.42068  0.29110  0.65566  Biso   1.000  C
  C146     1.0000 0.45094  0.23819  0.57857  Biso   1.000  C
  C147     1.0000 0.20911  0.34040  0.71629  Biso   1.000  C
  C148     1.0000 0.15820  0.42134  0.69360  Biso   1.000  C
  C149     1.0000 0.46368  0.28254  0.64420  Biso   1.000  C
  C150     1.0000 0.47765  0.25874  0.60901  Biso   1.000  C
  C151     1.0000 0.16925  0.35283  0.73419  Biso   1.000  C
  C152     1.0000 0.14665  0.38984  0.72448  Biso   1.000  C
  N77      1.0000 0.61368  0.29832  0.33467  Biso   1.000  N
  N78      1.0000 0.57044  0.22189  0.44612  Biso   1.000  N
  N79      1.0000 0.75883  0.33007  0.29792  Biso   1.000  N
  N80      1.0000 0.83212  0.44622  0.33134  Biso   1.000  N
  C153     1.0000 0.57932  0.29110  0.34434  Biso   1.000  C
  C154     1.0000 0.54906  0.23819  0.42143  Biso   1.000  C
  C155     1.0000 0.79089  0.34040  0.28371  Biso   1.000  C
  C156     1.0000 0.84180  0.42134  0.30640  Biso   1.000  C
  C157     1.0000 0.53632  0.28254  0.35580  Biso   1.000  C
  C158     1.0000 0.52235  0.25874  0.39099  Biso   1.000  C
  C159     1.0000 0.83075  0.35283  0.26581  Biso   1.000  C
  C160     1.0000 0.85335  0.38984  0.27552  Biso   1.000  C
  N81      1.0000 0.70168  0.33467  0.38632  Biso   1.000  N
  N82      1.0000 0.77811  0.44612  0.42956  Biso   1.000  N
  N83      1.0000 0.66993  0.29792  0.24117  Biso   1.000  N
  N84      1.0000 0.55378  0.33134  0.16788  Biso   1.000  N
  C161     1.0000 0.70890  0.34434  0.42068  Biso   1.000  C
  C162     1.0000 0.76181  0.42143  0.45094  Biso   1.000  C
  C163     1.0000 0.65960  0.28371  0.20911  Biso   1.000  C
  C164     1.0000 0.57866  0.30640  0.15820  Biso   1.000  C
  C165     1.0000 0.71746  0.35580  0.46368  Biso   1.000  C
  C166     1.0000 0.74126  0.39099  0.47765  Biso   1.000  C
  C167     1.0000 0.64717  0.26581  0.16925  Biso   1.000  C
  C168     1.0000 0.61016  0.27552  0.14665  Biso   1.000  C
  N85      1.0000 0.70168  0.66533  0.61368  Biso   1.000  N
  N86      1.0000 0.77811  0.55388  0.57044  Biso   1.000  N
  N87      1.0000 0.66993  0.70208  0.75883  Biso   1.000  N
  N88      1.0000 0.55378  0.66866  0.83212  Biso   1.000  N
  C169     1.0000 0.70890  0.65566  0.57932  Biso   1.000  C
  C170     1.0000 0.76181  0.57857  0.54906  Biso   1.000  C
  C171     1.0000 0.65960  0.71629  0.79089  Biso   1.000  C
  C172     1.0000 0.57866  0.69360  0.84180  Biso   1.000  C
  C173     1.0000 0.71746  0.64420  0.53632  Biso   1.000  C
  C174     1.0000 0.74126  0.60901  0.52235  Biso   1.000  C
  C175     1.0000 0.64717  0.73419  0.83075  Biso   1.000  C
  C176     1.0000 0.61016  0.72448  0.85335  Biso   1.000  C
  N89      1.0000 0.29832  0.33467  0.61368  Biso   1.000  N
  N90      1.0000 0.22189  0.44612  0.57044  Biso   1.000  N
  N91      1.0000 0.33007  0.29792  0.75883  Biso   1.000  N
  N92      1.0000 0.44622  0.33134  0.83212  Biso   1.000  N
  C177     1.0000 0.29110  0.34434  0.57932  Biso   1.000  C
  C178     1.0000 0.23819  0.42143  0.54906  Biso   1.000  C
  C179     1.0000 0.34040  0.28371  0.79089  Biso   1.000  C
  C180     1.0000 0.42134  0.30640  0.84180  Biso   1.000  C
  C181     1.0000 0.28254  0.35580  0.53632  Biso   1.000  C
  C182     1.0000 0.25874  0.39099  0.52235  Biso   1.000  C
  C183     1.0000 0.35283  0.26581  0.83075  Biso   1.000  C
  C184     1.0000 0.38984  0.27552  0.85335  Biso   1.000  C
  N93      1.0000 0.29832  0.66533  0.38632  Biso   1.000  N
  N94      1.0000 0.22189  0.55388  0.42956  Biso   1.000  N
  N95      1.0000 0.33007  0.70208  0.24117  Biso   1.000  N
  N96      1.0000 0.44622  0.66866  0.16788  Biso   1.000  N
  C185     1.0000 0.29110  0.65566  0.42068  Biso   1.000  C
  C186     1.0000 0.23819  0.57857  0.45094  Biso   1.000  C
  C187     1.0000 0.34040  0.71629  0.20911  Biso   1.000  C
  C188     1.0000 0.42134  0.69360  0.15820  Biso   1.000  C
  C189     1.0000 0.28254  0.64420  0.46368  Biso   1.000  C
  C190     1.0000 0.25874  0.60901  0.47765  Biso   1.000  C
  C191     1.0000 0.35283  0.73419  0.16925  Biso   1.000  C
  C192     1.0000 0.38984  0.72448  0.14665  Biso   1.000  C
  N97      1.0000 0.88632  0.16533  0.79832  Biso   1.000  N
  N98      1.0000 0.92956  0.05388  0.72189  Biso   1.000  N
  N99      1.0000 0.74117  0.20208  0.83007  Biso   1.000  N
  N100     1.0000 0.66788  0.16866  0.94622  Biso   1.000  N
  C193     1.0000 0.92068  0.15566  0.79110  Biso   1.000  C
  C194     1.0000 0.95094  0.07857  0.73819  Biso   1.000  C
  C195     1.0000 0.70911  0.21629  0.84040  Biso   1.000  C
  C196     1.0000 0.65820  0.19360  0.92134  Biso   1.000  C
  C197     1.0000 0.96368  0.14420  0.78254  Biso   1.000  C
  C198     1.0000 0.97765  0.10901  0.75874  Biso   1.000  C
  C199     1.0000 0.66925  0.23419  0.85283  Biso   1.000  C
  C200     1.0000 0.64665  0.22448  0.88984  Biso   1.000  C
  N101     1.0000 0.11368  0.83467  0.79832  Biso   1.000  N
  N102     1.0000 0.07044  0.94612  0.72189  Biso   1.000  N
  N103     1.0000 0.25883  0.79792  0.83007  Biso   1.000  N
  N104     1.0000 0.33212  0.83134  0.94622  Biso   1.000  N
  C201     1.0000 0.07932  0.84434  0.79110  Biso   1.000  C
  C202     1.0000 0.04906  0.92143  0.73819  Biso   1.000  C
  C203     1.0000 0.29089  0.78371  0.84040  Biso   1.000  C
  C204     1.0000 0.34180  0.80640  0.92134  Biso   1.000  C
  C205     1.0000 0.03632  0.85580  0.78254  Biso   1.000  C
  C206     1.0000 0.02235  0.89099  0.75874  Biso   1.000  C
  C207     1.0000 0.33075  0.76581  0.85283  Biso   1.000  C
  C208     1.0000 0.35335  0.77552  0.88984  Biso   1.000  C
  N105     1.0000 0.11368  0.16533  0.20168  Biso   1.000  N
  N106     1.0000 0.07044  0.05388  0.27811  Biso   1.000  N
  N107     1.0000 0.25883  0.20208  0.16993  Biso   1.000  N
  N108     1.0000 0.33212  0.16866  0.05378  Biso   1.000  N
  C209     1.0000 0.07932  0.15566  0.20890  Biso   1.000  C
  C210     1.0000 0.04906  0.07857  0.26181  Biso   1.000  C
  C211     1.0000 0.29089  0.21629  0.15960  Biso   1.000  C
  C212     1.0000 0.34180  0.19360  0.07866  Biso   1.000  C
  C213     1.0000 0.03632  0.14420  0.21746  Biso   1.000  C
  C214     1.0000 0.02235  0.10901  0.24126  Biso   1.000  C
  C215     1.0000 0.33075  0.23419  0.14717  Biso   1.000  C
  C216     1.0000 0.35335  0.22448  0.11016  Biso   1.000  C
  N109     1.0000 0.88632  0.83467  0.20168  Biso   1.000  N
  N110     1.0000 0.92956  0.94612  0.27811  Biso   1.000  N
  N111     1.0000 0.74117  0.79792  0.16993  Biso   1.000  N
  N112     1.0000 0.66788  0.83134  0.05378  Biso   1.000  N
  C217     1.0000 0.92068  0.84434  0.20890  Biso   1.000  C
  C218     1.0000 0.95094  0.92143  0.26181  Biso   1.000  C
  C219     1.0000 0.70911  0.78371  0.15960  Biso   1.000  C
  C220     1.0000 0.65820  0.80640  0.07866  Biso   1.000  C
  C221     1.0000 0.96368  0.85580  0.21746  Biso   1.000  C
  C222     1.0000 0.97765  0.89099  0.24126  Biso   1.000  C
  C223     1.0000 0.66925  0.76581  0.14717  Biso   1.000  C
  C224     1.0000 0.64665  0.77552  0.11016  Biso   1.000  C
  N113     1.0000 0.79832  0.88632  0.16533  Biso   1.000  N
  N114     1.0000 0.72189  0.92956  0.05388  Biso   1.000  N
  N115     1.0000 0.83007  0.74117  0.20208  Biso   1.000  N
  N116     1.0000 0.94622  0.66788  0.16866  Biso   1.000  N
  C225     1.0000 0.79110  0.92068  0.15566  Biso   1.000  C
  C226     1.0000 0.73819  0.95094  0.07857  Biso   1.000  C
  C227     1.0000 0.84040  0.70911  0.21629  Biso   1.000  C
  C228     1.0000 0.92134  0.65820  0.19360  Biso   1.000  C
  C229     1.0000 0.78254  0.96368  0.14420  Biso   1.000  C
  C230     1.0000 0.75874  0.97765  0.10901  Biso   1.000  C
  C231     1.0000 0.85283  0.66925  0.23419  Biso   1.000  C
  C232     1.0000 0.88984  0.64665  0.22448  Biso   1.000  C
  N117     1.0000 0.79832  0.11368  0.83467  Biso   1.000  N
  N118     1.0000 0.72189  0.07044  0.94612  Biso   1.000  N
  N119     1.0000 0.83007  0.25883  0.79792  Biso   1.000  N
  N120     1.0000 0.94622  0.33212  0.83134  Biso   1.000  N
  C233     1.0000 0.79110  0.07932  0.84434  Biso   1.000  C
  C234     1.0000 0.73819  0.04906  0.92143  Biso   1.000  C
  C235     1.0000 0.84040  0.29089  0.78371  Biso   1.000  C
  C236     1.0000 0.92134  0.34180  0.80640  Biso   1.000  C
  C237     1.0000 0.78254  0.03632  0.85580  Biso   1.000  C
  C238     1.0000 0.75874  0.02235  0.89099  Biso   1.000  C
  C239     1.0000 0.85283  0.33075  0.76581  Biso   1.000  C
  C240     1.0000 0.88984  0.35335  0.77552  Biso   1.000  C
  N121     1.0000 0.20168  0.11368  0.16533  Biso   1.000  N
  N122     1.0000 0.27811  0.07044  0.05388  Biso   1.000  N
  N123     1.0000 0.16993  0.25883  0.20208  Biso   1.000  N
  N124     1.0000 0.05378  0.33212  0.16866  Biso   1.000  N
  C241     1.0000 0.20890  0.07932  0.15566  Biso   1.000  C
  C242     1.0000 0.26181  0.04906  0.07857  Biso   1.000  C
  C243     1.0000 0.15960  0.29089  0.21629  Biso   1.000  C
  C244     1.0000 0.07866  0.34180  0.19360  Biso   1.000  C
  C245     1.0000 0.21746  0.03632  0.14420  Biso   1.000  C
  C246     1.0000 0.24126  0.02235  0.10901  Biso   1.000  C
  C247     1.0000 0.14717  0.33075  0.23419  Biso   1.000  C
  C248     1.0000 0.11016  0.35335  0.22448  Biso   1.000  C
  N125     1.0000 0.20168  0.88632  0.83467  Biso   1.000  N
  N126     1.0000 0.27811  0.92956  0.94612  Biso   1.000  N
  N127     1.0000 0.16993  0.74117  0.79792  Biso   1.000  N
  N128     1.0000 0.05378  0.66788  0.83134  Biso   1.000  N
  C249     1.0000 0.20890  0.92068  0.84434  Biso   1.000  C
  C250     1.0000 0.26181  0.95094  0.92143  Biso   1.000  C
  C251     1.0000 0.15960  0.70911  0.78371  Biso   1.000  C
  C252     1.0000 0.07866  0.65820  0.80640  Biso   1.000  C
  C253     1.0000 0.21746  0.96368  0.85580  Biso   1.000  C
  C254     1.0000 0.24126  0.97765  0.89099  Biso   1.000  C
  C255     1.0000 0.14717  0.66925  0.76581  Biso   1.000  C
  C256     1.0000 0.11016  0.64665  0.77552  Biso   1.000  C
  N129     1.0000 0.16533  0.79832  0.88632  Biso   1.000  N
  N130     1.0000 0.05388  0.72189  0.92956  Biso   1.000  N
  N131     1.0000 0.20208  0.83007  0.74117  Biso   1.000  N
  N132     1.0000 0.16866  0.94622  0.66788  Biso   1.000  N
  C257     1.0000 0.15566  0.79110  0.92068  Biso   1.000  C
  C258     1.0000 0.07857  0.73819  0.95094  Biso   1.000  C
  C259     1.0000 0.21629  0.84040  0.70911  Biso   1.000  C
  C260     1.0000 0.19360  0.92134  0.65820  Biso   1.000  C
  C261     1.0000 0.14420  0.78254  0.96368  Biso   1.000  C
  C262     1.0000 0.10901  0.75874  0.97765  Biso   1.000  C
  C263     1.0000 0.23419  0.85283  0.66925  Biso   1.000  C
  C264     1.0000 0.22448  0.88984  0.64665  Biso   1.000  C
  N133     1.0000 0.83467  0.79832  0.11368  Biso   1.000  N
  N134     1.0000 0.94612  0.72189  0.07044  Biso   1.000  N
  N135     1.0000 0.79792  0.83007  0.25883  Biso   1.000  N
  N136     1.0000 0.83134  0.94622  0.33212  Biso   1.000  N
  C265     1.0000 0.84434  0.79110  0.07932  Biso   1.000  C
  C266     1.0000 0.92143  0.73819  0.04906  Biso   1.000  C
  C267     1.0000 0.78371  0.84040  0.29089  Biso   1.000  C
  C268     1.0000 0.80640  0.92134  0.34180  Biso   1.000  C
  C269     1.0000 0.85580  0.78254  0.03632  Biso   1.000  C
  C270     1.0000 0.89099  0.75874  0.02235  Biso   1.000  C
  C271     1.0000 0.76581  0.85283  0.33075  Biso   1.000  C
  C272     1.0000 0.77552  0.88984  0.35335  Biso   1.000  C
  N137     1.0000 0.16533  0.20168  0.11368  Biso   1.000  N
  N138     1.0000 0.05388  0.27811  0.07044  Biso   1.000  N
  N139     1.0000 0.20208  0.16993  0.25883  Biso   1.000  N
  N140     1.0000 0.16866  0.05378  0.33212  Biso   1.000  N
  C273     1.0000 0.15566  0.20890  0.07932  Biso   1.000  C
  C274     1.0000 0.07857  0.26181  0.04906  Biso   1.000  C
  C275     1.0000 0.21629  0.15960  0.29089  Biso   1.000  C
  C276     1.0000 0.19360  0.07866  0.34180  Biso   1.000  C
  C277     1.0000 0.14420  0.21746  0.03632  Biso   1.000  C
  C278     1.0000 0.10901  0.24126  0.02235  Biso   1.000  C
  C279     1.0000 0.23419  0.14717  0.33075  Biso   1.000  C
  C280     1.0000 0.22448  0.11016  0.35335  Biso   1.000  C
  N141     1.0000 0.83467  0.20168  0.88632  Biso   1.000  N
  N142     1.0000 0.94612  0.27811  0.92956  Biso   1.000  N
  N143     1.0000 0.79792  0.16993  0.74117  Biso   1.000  N
  N144     1.0000 0.83134  0.05378  0.66788  Biso   1.000  N
  C281     1.0000 0.84434  0.20890  0.92068  Biso   1.000  C
  C282     1.0000 0.92143  0.26181  0.95094  Biso   1.000  C
  C283     1.0000 0.78371  0.15960  0.70911  Biso   1.000  C
  C284     1.0000 0.80640  0.07866  0.65820  Biso   1.000  C
  C285     1.0000 0.85580  0.21746  0.96368  Biso   1.000  C
  C286     1.0000 0.89099  0.24126  0.97765  Biso   1.000  C
  C287     1.0000 0.76581  0.14717  0.66925  Biso   1.000  C
  C288     1.0000 0.77552  0.11016  0.64665  Biso   1.000  C
  N145     1.0000 0.66533  0.38632  0.70168  Biso   1.000  N
  N146     1.0000 0.55388  0.42956  0.77811  Biso   1.000  N
  N147     1.0000 0.70208  0.24117  0.66993  Biso   1.000  N
  N148     1.0000 0.66866  0.16788  0.55378  Biso   1.000  N
  C289     1.0000 0.65566  0.42068  0.70890  Biso   1.000  C
  C290     1.0000 0.57857  0.45094  0.76181  Biso   1.000  C
  C291     1.0000 0.71629  0.20911  0.65960  Biso   1.000  C
  C292     1.0000 0.69360  0.15820  0.57866  Biso   1.000  C
  C293     1.0000 0.64420  0.46368  0.71746  Biso   1.000  C
  C294     1.0000 0.60901  0.47765  0.74126  Biso   1.000  C
  C295     1.0000 0.73419  0.16925  0.64717  Biso   1.000  C
  C296     1.0000 0.72448  0.14665  0.61016  Biso   1.000  C
  N149     1.0000 0.33467  0.61368  0.70168  Biso   1.000  N
  N150     1.0000 0.44612  0.57044  0.77811  Biso   1.000  N
  N151     1.0000 0.29792  0.75883  0.66993  Biso   1.000  N
  N152     1.0000 0.33134  0.83212  0.55378  Biso   1.000  N
  C297     1.0000 0.34434  0.57932  0.70890  Biso   1.000  C
  C298     1.0000 0.42143  0.54906  0.76181  Biso   1.000  C
  C299     1.0000 0.28371  0.79089  0.65960  Biso   1.000  C
  C300     1.0000 0.30640  0.84180  0.57866  Biso   1.000  C
  C301     1.0000 0.35580  0.53632  0.71746  Biso   1.000  C
  C302     1.0000 0.39099  0.52235  0.74126  Biso   1.000  C
  C303     1.0000 0.26581  0.83075  0.64717  Biso   1.000  C
  C304     1.0000 0.27552  0.85335  0.61016  Biso   1.000  C
  N153     1.0000 0.66533  0.61368  0.29832  Biso   1.000  N
  N154     1.0000 0.55388  0.57044  0.22189  Biso   1.000  N
  N155     1.0000 0.70208  0.75883  0.33007  Biso   1.000  N
  N156     1.0000 0.66866  0.83212  0.44622  Biso   1.000  N
  C305     1.0000 0.65566  0.57932  0.29110  Biso   1.000  C
  C306     1.0000 0.57857  0.54906  0.23819  Biso   1.000  C
  C307     1.0000 0.71629  0.79089  0.34040  Biso   1.000  C
  C308     1.0000 0.69360  0.84180  0.42134  Biso   1.000  C
  C309     1.0000 0.64420  0.53632  0.28254  Biso   1.000  C
  C310     1.0000 0.60901  0.52235  0.25874  Biso   1.000  C
  C311     1.0000 0.73419  0.83075  0.35283  Biso   1.000  C
  C312     1.0000 0.72448  0.85335  0.38984  Biso   1.000  C
  N157     1.0000 0.33467  0.38632  0.29832  Biso   1.000  N
  N158     1.0000 0.44612  0.42956  0.22189  Biso   1.000  N
  N159     1.0000 0.29792  0.24117  0.33007  Biso   1.000  N
  N160     1.0000 0.33134  0.16788  0.44622  Biso   1.000  N
  C313     1.0000 0.34434  0.42068  0.29110  Biso   1.000  C
  C314     1.0000 0.42143  0.45094  0.23819  Biso   1.000  C
  C315     1.0000 0.28371  0.20911  0.34040  Biso   1.000  C
  C316     1.0000 0.30640  0.15820  0.42134  Biso   1.000  C
  C317     1.0000 0.35580  0.46368  0.28254  Biso   1.000  C
  C318     1.0000 0.39099  0.47765  0.25874  Biso   1.000  C
  C319     1.0000 0.26581  0.16925  0.35283  Biso   1.000  C
  C320     1.0000 0.27552  0.14665  0.38984  Biso   1.000  C
  N161     1.0000 0.38632  0.29832  0.33467  Biso   1.000  N
  N162     1.0000 0.42956  0.22189  0.44612  Biso   1.000  N
  N163     1.0000 0.24117  0.33007  0.29792  Biso   1.000  N
  N164     1.0000 0.16788  0.44622  0.33134  Biso   1.000  N
  C321     1.0000 0.42068  0.29110  0.34434  Biso   1.000  C
  C322     1.0000 0.45094  0.23819  0.42143  Biso   1.000  C
  C323     1.0000 0.20911  0.34040  0.28371  Biso   1.000  C
  C324     1.0000 0.15820  0.42134  0.30640  Biso   1.000  C
  C325     1.0000 0.46368  0.28254  0.35580  Biso   1.000  C
  C326     1.0000 0.47765  0.25874  0.39099  Biso   1.000  C
  C327     1.0000 0.16925  0.35283  0.26581  Biso   1.000  C
  C328     1.0000 0.14665  0.38984  0.27552  Biso   1.000  C
  N165     1.0000 0.61368  0.29832  0.66533  Biso   1.000  N
  N166     1.0000 0.57044  0.22189  0.55388  Biso   1.000  N
  N167     1.0000 0.75883  0.33007  0.70208  Biso   1.000  N
  N168     1.0000 0.83212  0.44622  0.66866  Biso   1.000  N
  C329     1.0000 0.57932  0.29110  0.65566  Biso   1.000  C
  C330     1.0000 0.54906  0.23819  0.57857  Biso   1.000  C
  C331     1.0000 0.79089  0.34040  0.71629  Biso   1.000  C
  C332     1.0000 0.84180  0.42134  0.69360  Biso   1.000  C
  C333     1.0000 0.53632  0.28254  0.64420  Biso   1.000  C
  C334     1.0000 0.52235  0.25874  0.60901  Biso   1.000  C
  C335     1.0000 0.83075  0.35283  0.73419  Biso   1.000  C
  C336     1.0000 0.85335  0.38984  0.72448  Biso   1.000  C
  N169     1.0000 0.61368  0.70168  0.33467  Biso   1.000  N
  N170     1.0000 0.57044  0.77811  0.44612  Biso   1.000  N
  N171     1.0000 0.75883  0.66993  0.29792  Biso   1.000  N
  N172     1.0000 0.83212  0.55378  0.33134  Biso   1.000  N
  C337     1.0000 0.57932  0.70890  0.34434  Biso   1.000  C
  C338     1.0000 0.54906  0.76181  0.42143  Biso   1.000  C
  C339     1.0000 0.79089  0.65960  0.28371  Biso   1.000  C
  C340     1.0000 0.84180  0.57866  0.30640  Biso   1.000  C
  C341     1.0000 0.53632  0.71746  0.35580  Biso   1.000  C
  C342     1.0000 0.52235  0.74126  0.39099  Biso   1.000  C
  C343     1.0000 0.83075  0.64717  0.26581  Biso   1.000  C
  C344     1.0000 0.85335  0.61016  0.27552  Biso   1.000  C
  N173     1.0000 0.38632  0.70168  0.66533  Biso   1.000  N
  N174     1.0000 0.42956  0.77811  0.55388  Biso   1.000  N
  N175     1.0000 0.24117  0.66993  0.70208  Biso   1.000  N
  N176     1.0000 0.16788  0.55378  0.66866  Biso   1.000  N
  C345     1.0000 0.42068  0.70890  0.65566  Biso   1.000  C
  C346     1.0000 0.45094  0.76181  0.57857  Biso   1.000  C
  C347     1.0000 0.20911  0.65960  0.71629  Biso   1.000  C
  C348     1.0000 0.15820  0.57866  0.69360  Biso   1.000  C
  C349     1.0000 0.46368  0.71746  0.64420  Biso   1.000  C
  C350     1.0000 0.47765  0.74126  0.60901  Biso   1.000  C
  C351     1.0000 0.16925  0.64717  0.73419  Biso   1.000  C
  C352     1.0000 0.14665  0.61016  0.72448  Biso   1.000  C
  N177     1.0000 0.29832  0.66533  0.61368  Biso   1.000  N
  N178     1.0000 0.22189  0.55388  0.57044  Biso   1.000  N
  N179     1.0000 0.33007  0.70208  0.75883  Biso   1.000  N
  N180     1.0000 0.44622  0.66866  0.83212  Biso   1.000  N
  C353     1.0000 0.29110  0.65566  0.57932  Biso   1.000  C
  C354     1.0000 0.23819  0.57857  0.54906  Biso   1.000  C
  C355     1.0000 0.34040  0.71629  0.79089  Biso   1.000  C
  C356     1.0000 0.42134  0.69360  0.84180  Biso   1.000  C
  C357     1.0000 0.28254  0.64420  0.53632  Biso   1.000  C
  C358     1.0000 0.25874  0.60901  0.52235  Biso   1.000  C
  C359     1.0000 0.35283  0.73419  0.83075  Biso   1.000  C
  C360     1.0000 0.38984  0.72448  0.85335  Biso   1.000  C
  N181     1.0000 0.29832  0.33467  0.38632  Biso   1.000  N
  N182     1.0000 0.22189  0.44612  0.42956  Biso   1.000  N
  N183     1.0000 0.33007  0.29792  0.24117  Biso   1.000  N
  N184     1.0000 0.44622  0.33134  0.16788  Biso   1.000  N
  C361     1.0000 0.29110  0.34434  0.42068  Biso   1.000  C
  C362     1.0000 0.23819  0.42143  0.45094  Biso   1.000  C
  C363     1.0000 0.34040  0.28371  0.20911  Biso   1.000  C
  C364     1.0000 0.42134  0.30640  0.15820  Biso   1.000  C
  C365     1.0000 0.28254  0.35580  0.46368  Biso   1.000  C
  C366     1.0000 0.25874  0.39099  0.47765  Biso   1.000  C
  C367     1.0000 0.35283  0.26581  0.16925  Biso   1.000  C
  C368     1.0000 0.38984  0.27552  0.14665  Biso   1.000  C
  N185     1.0000 0.70168  0.66533  0.38632  Biso   1.000  N
  N186     1.0000 0.77811  0.55388  0.42956  Biso   1.000  N
  N187     1.0000 0.66993  0.70208  0.24117  Biso   1.000  N
  N188     1.0000 0.55378  0.66866  0.16788  Biso   1.000  N
  C369     1.0000 0.70890  0.65566  0.42068  Biso   1.000  C
  C370     1.0000 0.76181  0.57857  0.45094  Biso   1.000  C
  C371     1.0000 0.65960  0.71629  0.20911  Biso   1.000  C
  C372     1.0000 0.57866  0.69360  0.15820  Biso   1.000  C
  C373     1.0000 0.71746  0.64420  0.46368  Biso   1.000  C
  C374     1.0000 0.74126  0.60901  0.47765  Biso   1.000  C
  C375     1.0000 0.64717  0.73419  0.16925  Biso   1.000  C
  C376     1.0000 0.61016  0.72448  0.14665  Biso   1.000  C
  N189     1.0000 0.70168  0.33467  0.61368  Biso   1.000  N
  N190     1.0000 0.77811  0.44612  0.57044  Biso   1.000  N
  N191     1.0000 0.66993  0.29792  0.75883  Biso   1.000  N
  N192     1.0000 0.55378  0.33134  0.83212  Biso   1.000  N
  C377     1.0000 0.70890  0.34434  0.57932  Biso   1.000  C
  C378     1.0000 0.76181  0.42143  0.54906  Biso   1.000  C
  C379     1.0000 0.65960  0.28371  0.79089  Biso   1.000  C
  C380     1.0000 0.57866  0.30640  0.84180  Biso   1.000  C
  C381     1.0000 0.71746  0.35580  0.53632  Biso   1.000  C
  C382     1.0000 0.74126  0.39099  0.52235  Biso   1.000  C
  C383     1.0000 0.64717  0.26581  0.83075  Biso   1.000  C
  C384     1.0000 0.61016  0.27552  0.85335  Biso   1.000  C
  Na1      1.0000 0.18562  0.81438  0.18562  Biso   1.000  Na
  Na2      1.0000 0.81438  0.18562  0.18562  Biso   1.000  Na
  Na3      1.0000 0.81438  0.81438  0.81438  Biso   1.000  Na
  Na4      1.0000 0.18562  0.18562  0.81438  Biso   1.000  Na
  Na5      1.0000 0.31438  0.68562  0.31438  Biso   1.000  Na
  Na6      1.0000 0.68562  0.31438  0.31438  Biso   1.000  Na
  Na7      1.0000 0.31438  0.31438  0.68562  Biso   1.000  Na
  Na8      1.0000 0.68562  0.68562  0.68562  Biso   1.000  Na
  Na9      1.0000 0.81438  0.18562  0.81438  Biso   1.000  Na
  Na10     1.0000 0.18562  0.81438  0.81438  Biso   1.000  Na
  Na11     1.0000 0.18562  0.18562  0.18562  Biso   1.000  Na
  Na12     1.0000 0.81438  0.81438  0.18562  Biso   1.000  Na
  Na13     1.0000 0.68562  0.31438  0.68562  Biso   1.000  Na
  Na14     1.0000 0.31438  0.68562  0.68562  Biso   1.000  Na
  Na15     1.0000 0.68562  0.68562  0.31438  Biso   1.000  Na
  Na16     1.0000 0.31438  0.31438  0.31438  Biso   1.000  Na
  Na17     1.0000 0.30462  0.87966  0.00000  Biso   1.000  Na
  O1       1.0000 0.37480  0.91630  0.00000  Biso   1.000  O
  C385     1.0000 0.37340  0.96080  0.00000  Biso   1.000  C
  C386     1.0000 0.41630  0.90010  0.00000  Biso   1.000  C
  C387     1.0000 0.43890  0.85770  0.00000  Biso   1.000  C
  Na18     1.0000 0.69538  0.12034  0.00000  Biso   1.000  Na
  O2       1.0000 0.62520  0.08370  0.00000  Biso   1.000  O
  C388     1.0000 0.62660  0.03920  0.00000  Biso   1.000  C
  C389     1.0000 0.58370  0.09990  0.00000  Biso   1.000  C
  C390     1.0000 0.56110  0.14230  0.00000  Biso   1.000  C
  Na19     1.0000 0.69538  0.87966  0.00000  Biso   1.000  Na
  O3       1.0000 0.62520  0.91630  0.00000  Biso   1.000  O
  C391     1.0000 0.62660  0.96080  0.00000  Biso   1.000  C
  C392     1.0000 0.58370  0.90010  0.00000  Biso   1.000  C
  C393     1.0000 0.56110  0.85770  0.00000  Biso   1.000  C
  Na20     1.0000 0.30462  0.12034  0.00000  Biso   1.000  Na
  O4       1.0000 0.37480  0.08370  0.00000  Biso   1.000  O
  C394     1.0000 0.37340  0.03920  0.00000  Biso   1.000  C
  C395     1.0000 0.41630  0.09990  0.00000  Biso   1.000  C
  C396     1.0000 0.43890  0.14230  0.00000  Biso   1.000  C
  Na21     1.0000 0.00000  0.30462  0.87966  Biso   1.000  Na
  O5       1.0000 0.00000  0.37480  0.91630  Biso   1.000  O
  C397     1.0000 0.00000  0.37340  0.96080  Biso   1.000  C
  C398     1.0000 0.00000  0.41630  0.90010  Biso   1.000  C
  C399     1.0000 0.00000  0.43890  0.85770  Biso   1.000  C
  Na22     1.0000 0.00000  0.69538  0.12034  Biso   1.000  Na
  O6       1.0000 0.00000  0.62520  0.08370  Biso   1.000  O
  C400     1.0000 0.00000  0.62660  0.03920  Biso   1.000  C
  C401     1.0000 0.00000  0.58370  0.09990  Biso   1.000  C
  C402     1.0000 0.00000  0.56110  0.14230  Biso   1.000  C
  Na23     1.0000 0.00000  0.69538  0.87966  Biso   1.000  Na
  O7       1.0000 0.00000  0.62520  0.91630  Biso   1.000  O
  C403     1.0000 0.00000  0.62660  0.96080  Biso   1.000  C
  C404     1.0000 0.00000  0.58370  0.90010  Biso   1.000  C
  C405     1.0000 0.00000  0.56110  0.85770  Biso   1.000  C
  Na24     1.0000 0.00000  0.30462  0.12034  Biso   1.000  Na
  O8       1.0000 0.00000  0.37480  0.08370  Biso   1.000  O
  C406     1.0000 0.00000  0.37340  0.03920  Biso   1.000  C
  C407     1.0000 0.00000  0.41630  0.09990  Biso   1.000  C
  C408     1.0000 0.00000  0.43890  0.14230  Biso   1.000  C
  Na25     1.0000 0.87966  0.00000  0.30462  Biso   1.000  Na
  O9       1.0000 0.91630  0.00000  0.37480  Biso   1.000  O
  C409     1.0000 0.96080  0.00000  0.37340  Biso   1.000  C
  C410     1.0000 0.90010  0.00000  0.41630  Biso   1.000  C
  C411     1.0000 0.85770  0.00000  0.43890  Biso   1.000  C
  Na26     1.0000 0.12034  0.00000  0.69538  Biso   1.000  Na
  O10      1.0000 0.08370  0.00000  0.62520  Biso   1.000  O
  C412     1.0000 0.03920  0.00000  0.62660  Biso   1.000  C
  C413     1.0000 0.09990  0.00000  0.58370  Biso   1.000  C
  C414     1.0000 0.14230  0.00000  0.56110  Biso   1.000  C
  Na27     1.0000 0.87966  0.00000  0.69538  Biso   1.000  Na
  O11      1.0000 0.91630  0.00000  0.62520  Biso   1.000  O
  C415     1.0000 0.96080  0.00000  0.62660  Biso   1.000  C
  C416     1.0000 0.90010  0.00000  0.58370  Biso   1.000  C
  C417     1.0000 0.85770  0.00000  0.56110  Biso   1.000  C
  Na28     1.0000 0.12034  0.00000  0.30462  Biso   1.000  Na
  O12      1.0000 0.08370  0.00000  0.37480  Biso   1.000  O
  C418     1.0000 0.03920  0.00000  0.37340  Biso   1.000  C
  C419     1.0000 0.09990  0.00000  0.41630  Biso   1.000  C
  C420     1.0000 0.14230  0.00000  0.43890  Biso   1.000  C
  Na29     1.0000 0.37966  0.80462  0.50000  Biso   1.000  Na
  O13      1.0000 0.41630  0.87480  0.50000  Biso   1.000  O
  C421     1.0000 0.46080  0.87340  0.50000  Biso   1.000  C
  C422     1.0000 0.40010  0.91630  0.50000  Biso   1.000  C
  C423     1.0000 0.35770  0.93890  0.50000  Biso   1.000  C
  Na30     1.0000 0.62034  0.19538  0.50000  Biso   1.000  Na
  O14      1.0000 0.58370  0.12520  0.50000  Biso   1.000  O
  C424     1.0000 0.53920  0.12660  0.50000  Biso   1.000  C
  C425     1.0000 0.59990  0.08370  0.50000  Biso   1.000  C
  C426     1.0000 0.64230  0.06110  0.50000  Biso   1.000  C
  Na31     1.0000 0.37966  0.19538  0.50000  Biso   1.000  Na
  O15      1.0000 0.41630  0.12520  0.50000  Biso   1.000  O
  C427     1.0000 0.46080  0.12660  0.50000  Biso   1.000  C
  C428     1.0000 0.40010  0.08370  0.50000  Biso   1.000  C
  C429     1.0000 0.35770  0.06110  0.50000  Biso   1.000  C
  Na32     1.0000 0.62034  0.80462  0.50000  Biso   1.000  Na
  O16      1.0000 0.58370  0.87480  0.50000  Biso   1.000  O
  C430     1.0000 0.53920  0.87340  0.50000  Biso   1.000  C
  C431     1.0000 0.59990  0.91630  0.50000  Biso   1.000  C
  C432     1.0000 0.64230  0.93890  0.50000  Biso   1.000  C
  Na33     1.0000 0.80462  0.50000  0.62034  Biso   1.000  Na
  O17      1.0000 0.87480  0.50000  0.58370  Biso   1.000  O
  C433     1.0000 0.87340  0.50000  0.53920  Biso   1.000  C
  C434     1.0000 0.91630  0.50000  0.59990  Biso   1.000  C
  C435     1.0000 0.93890  0.50000  0.64230  Biso   1.000  C
  Na34     1.0000 0.19538  0.50000  0.37966  Biso   1.000  Na
  O18      1.0000 0.12520  0.50000  0.41630  Biso   1.000  O
  C436     1.0000 0.12660  0.50000  0.46080  Biso   1.000  C
  C437     1.0000 0.08370  0.50000  0.40010  Biso   1.000  C
  C438     1.0000 0.06110  0.50000  0.35770  Biso   1.000  C
  Na35     1.0000 0.19538  0.50000  0.62034  Biso   1.000  Na
  O19      1.0000 0.12520  0.50000  0.58370  Biso   1.000  O
  C439     1.0000 0.12660  0.50000  0.53920  Biso   1.000  C
  C440     1.0000 0.08370  0.50000  0.59990  Biso   1.000  C
  C441     1.0000 0.06110  0.50000  0.64230  Biso   1.000  C
  Na36     1.0000 0.80462  0.50000  0.37966  Biso   1.000  Na
  O20      1.0000 0.87480  0.50000  0.41630  Biso   1.000  O
  C442     1.0000 0.87340  0.50000  0.46080  Biso   1.000  C
  C443     1.0000 0.91630  0.50000  0.40010  Biso   1.000  C
  C444     1.0000 0.93890  0.50000  0.35770  Biso   1.000  C
  Na37     1.0000 0.50000  0.37966  0.19538  Biso   1.000  Na
  O21      1.0000 0.50000  0.41630  0.12520  Biso   1.000  O
  C445     1.0000 0.50000  0.46080  0.12660  Biso   1.000  C
  C446     1.0000 0.50000  0.40010  0.08370  Biso   1.000  C
  C447     1.0000 0.50000  0.35770  0.06110  Biso   1.000  C
  Na38     1.0000 0.50000  0.62034  0.80462  Biso   1.000  Na
  O22      1.0000 0.50000  0.58370  0.87480  Biso   1.000  O
  C448     1.0000 0.50000  0.53920  0.87340  Biso   1.000  C
  C449     1.0000 0.50000  0.59990  0.91630  Biso   1.000  C
  C450     1.0000 0.50000  0.64230  0.93890  Biso   1.000  C
  Na39     1.0000 0.50000  0.37966  0.80462  Biso   1.000  Na
  O23      1.0000 0.50000  0.41630  0.87480  Biso   1.000  O
  C451     1.0000 0.50000  0.46080  0.87340  Biso   1.000  C
  C452     1.0000 0.50000  0.40010  0.91630  Biso   1.000  C
  C453     1.0000 0.50000  0.35770  0.93890  Biso   1.000  C
  Na40     1.0000 0.50000  0.62034  0.19538  Biso   1.000  Na
  O24      1.0000 0.50000  0.58370  0.12520  Biso   1.000  O
  C454     1.0000 0.50000  0.53920  0.12660  Biso   1.000  C
  C455     1.0000 0.50000  0.59990  0.08370  Biso   1.000  C
  C456     1.0000 0.50000  0.64230  0.06110  Biso   1.000  C
  Na41     1.0000 0.50000  0.76920  0.00000  Biso   1.000  Na
  Na42     1.0000 0.50000  0.23080  0.00000  Biso   1.000  Na
  Na43     1.0000 0.00000  0.50000  0.76920  Biso   1.000  Na
  Na44     1.0000 0.00000  0.50000  0.23080  Biso   1.000  Na
  Na45     1.0000 0.76920  0.00000  0.50000  Biso   1.000  Na
  Na46     1.0000 0.23080  0.00000  0.50000  Biso   1.000  Na
  Na47     1.0000 0.26920  0.00000  0.50000  Biso   1.000  Na
  Na48     1.0000 0.73080  0.00000  0.50000  Biso   1.000  Na
  Na49     1.0000 0.00000  0.50000  0.73080  Biso   1.000  Na
  Na50     1.0000 0.00000  0.50000  0.26920  Biso   1.000  Na
  Na51     1.0000 0.50000  0.26920  0.00000  Biso   1.000  Na
  Na52     1.0000 0.50000  0.73080  0.00000  Biso   1.000  Na
  N193     1.0000 0.00000  0.76550  0.15760  Biso   1.000  N
  C457     1.0000 0.00000  0.79600  0.17730  Biso   1.000  C
  C458     1.0000 0.00000  0.83400  0.20240  Biso   1.000  C
  N194     1.0000 0.00000  0.23450  0.15760  Biso   1.000  N
  C459     1.0000 0.00000  0.20400  0.17730  Biso   1.000  C
  C460     1.0000 0.00000  0.16600  0.20240  Biso   1.000  C
  N195     1.0000 0.00000  0.76550  0.84240  Biso   1.000  N
  C461     1.0000 0.00000  0.79600  0.82270  Biso   1.000  C
  C462     1.0000 0.00000  0.83400  0.79760  Biso   1.000  C
  N196     1.0000 0.00000  0.23450  0.84240  Biso   1.000  N
  C463     1.0000 0.00000  0.20400  0.82270  Biso   1.000  C
  C464     1.0000 0.00000  0.16600  0.79760  Biso   1.000  C
  N197     1.0000 0.15760  0.00000  0.76550  Biso   1.000  N
  C465     1.0000 0.17730  0.00000  0.79600  Biso   1.000  C
  C466     1.0000 0.20240  0.00000  0.83400  Biso   1.000  C
  N198     1.0000 0.15760  0.00000  0.23450  Biso   1.000  N
  C467     1.0000 0.17730  0.00000  0.20400  Biso   1.000  C
  C468     1.0000 0.20240  0.00000  0.16600  Biso   1.000  C
  N199     1.0000 0.84240  0.00000  0.76550  Biso   1.000  N
  C469     1.0000 0.82270  0.00000  0.79600  Biso   1.000  C
  C470     1.0000 0.79760  0.00000  0.83400  Biso   1.000  C
  N200     1.0000 0.84240  0.00000  0.23450  Biso   1.000  N
  C471     1.0000 0.82270  0.00000  0.20400  Biso   1.000  C
  C472     1.0000 0.79760  0.00000  0.16600  Biso   1.000  C
  N201     1.0000 0.76550  0.15760  0.00000  Biso   1.000  N
  C473     1.0000 0.79600  0.17730  0.00000  Biso   1.000  C
  C474     1.0000 0.83400  0.20240  0.00000  Biso   1.000  C
  N202     1.0000 0.23450  0.15760  0.00000  Biso   1.000  N
  C475     1.0000 0.20400  0.17730  0.00000  Biso   1.000  C
  C476     1.0000 0.16600  0.20240  0.00000  Biso   1.000  C
  N203     1.0000 0.76550  0.84240  0.00000  Biso   1.000  N
  C477     1.0000 0.79600  0.82270  0.00000  Biso   1.000  C
  C478     1.0000 0.83400  0.79760  0.00000  Biso   1.000  C
  N204     1.0000 0.23450  0.84240  0.00000  Biso   1.000  N
  C479     1.0000 0.20400  0.82270  0.00000  Biso   1.000  C
  C480     1.0000 0.16600  0.79760  0.00000  Biso   1.000  C
  N205     1.0000 0.26550  0.50000  0.34240  Biso   1.000  N
  C481     1.0000 0.29600  0.50000  0.32270  Biso   1.000  C
  C482     1.0000 0.33400  0.50000  0.29760  Biso   1.000  C
  N206     1.0000 0.73450  0.50000  0.34240  Biso   1.000  N
  C483     1.0000 0.70400  0.50000  0.32270  Biso   1.000  C
  C484     1.0000 0.66600  0.50000  0.29760  Biso   1.000  C
  N207     1.0000 0.26550  0.50000  0.65760  Biso   1.000  N
  C485     1.0000 0.29600  0.50000  0.67730  Biso   1.000  C
  C486     1.0000 0.33400  0.50000  0.70240  Biso   1.000  C
  N208     1.0000 0.73450  0.50000  0.65760  Biso   1.000  N
  C487     1.0000 0.70400  0.50000  0.67730  Biso   1.000  C
  C488     1.0000 0.66600  0.50000  0.70240  Biso   1.000  C
  N209     1.0000 0.50000  0.65760  0.73450  Biso   1.000  N
  C489     1.0000 0.50000  0.67730  0.70400  Biso   1.000  C
  C490     1.0000 0.50000  0.70240  0.66600  Biso   1.000  C
  N210     1.0000 0.50000  0.65760  0.26550  Biso   1.000  N
  C491     1.0000 0.50000  0.67730  0.29600  Biso   1.000  C
  C492     1.0000 0.50000  0.70240  0.33400  Biso   1.000  C
  N211     1.0000 0.50000  0.34240  0.73450  Biso   1.000  N
  C493     1.0000 0.50000  0.32270  0.70400  Biso   1.000  C
  C494     1.0000 0.50000  0.29760  0.66600  Biso   1.000  C
  N212     1.0000 0.50000  0.34240  0.26550  Biso   1.000  N
  C495     1.0000 0.50000  0.32270  0.29600  Biso   1.000  C
  C496     1.0000 0.50000  0.29760  0.33400  Biso   1.000  C
  N213     1.0000 0.65760  0.26550  0.50000  Biso   1.000  N
  C497     1.0000 0.67730  0.29600  0.50000  Biso   1.000  C
  C498     1.0000 0.70240  0.33400  0.50000  Biso   1.000  C
  N214     1.0000 0.65760  0.73450  0.50000  Biso   1.000  N
  C499     1.0000 0.67730  0.70400  0.50000  Biso   1.000  C
  C500     1.0000 0.70240  0.66600  0.50000  Biso   1.000  C
  N215     1.0000 0.34240  0.26550  0.50000  Biso   1.000  N
  C501     1.0000 0.32270  0.29600  0.50000  Biso   1.000  C
  C502     1.0000 0.29760  0.33400  0.50000  Biso   1.000  C
  N216     1.0000 0.34240  0.73450  0.50000  Biso   1.000  N
  C503     1.0000 0.32270  0.70400  0.50000  Biso   1.000  C
  C504     1.0000 0.29760  0.66600  0.50000  Biso   1.000  C
  N217     1.0000 0.44837  0.75000  0.05163  Biso   1.000  N
  C505     1.0000 0.42240  0.75000  0.07760  Biso   1.000  C
  C506     1.0000 0.39009  0.75000  0.10991  Biso   1.000  C
  N218     1.0000 0.55163  0.25000  0.05163  Biso   1.000  N
  C507     1.0000 0.57760  0.25000  0.07760  Biso   1.000  C
  C508     1.0000 0.60991  0.25000  0.10991  Biso   1.000  C
  N219     1.0000 0.55163  0.75000  0.94837  Biso   1.000  N
  C509     1.0000 0.57760  0.75000  0.92240  Biso   1.000  C
  C510     1.0000 0.60991  0.75000  0.89009  Biso   1.000  C
  N220     1.0000 0.44837  0.25000  0.94837  Biso   1.000  N
  C511     1.0000 0.42240  0.25000  0.92240  Biso   1.000  C
  C512     1.0000 0.39009  0.25000  0.89009  Biso   1.000  C
  N221     1.0000 0.05163  0.44837  0.75000  Biso   1.000  N
  C513     1.0000 0.07760  0.42240  0.75000  Biso   1.000  C
  C514     1.0000 0.10991  0.39009  0.75000  Biso   1.000  C
  N222     1.0000 0.05163  0.55163  0.25000  Biso   1.000  N
  C515     1.0000 0.07760  0.57760  0.25000  Biso   1.000  C
  C516     1.0000 0.10991  0.60991  0.25000  Biso   1.000  C
  N223     1.0000 0.94837  0.55163  0.75000  Biso   1.000  N
  C517     1.0000 0.92240  0.57760  0.75000  Biso   1.000  C
  C518     1.0000 0.89009  0.60991  0.75000  Biso   1.000  C
  N224     1.0000 0.94837  0.44837  0.25000  Biso   1.000  N
  C519     1.0000 0.92240  0.42240  0.25000  Biso   1.000  C
  C520     1.0000 0.89009  0.39009  0.25000  Biso   1.000  C
  N225     1.0000 0.75000  0.05163  0.44837  Biso   1.000  N
  C521     1.0000 0.75000  0.07760  0.42240  Biso   1.000  C
  C522     1.0000 0.75000  0.10991  0.39009  Biso   1.000  C
  N226     1.0000 0.25000  0.05163  0.55163  Biso   1.000  N
  C523     1.0000 0.25000  0.07760  0.57760  Biso   1.000  C
  C524     1.0000 0.25000  0.10991  0.60991  Biso   1.000  C
  N227     1.0000 0.75000  0.94837  0.55163  Biso   1.000  N
  C525     1.0000 0.75000  0.92240  0.57760  Biso   1.000  C
  C526     1.0000 0.75000  0.89009  0.60991  Biso   1.000  C
  N228     1.0000 0.25000  0.94837  0.44837  Biso   1.000  N
  C527     1.0000 0.25000  0.92240  0.42240  Biso   1.000  C
  C528     1.0000 0.25000  0.89009  0.39009  Biso   1.000  C
  N229     1.0000 0.55163  0.25000  0.94837  Biso   1.000  N
  C529     1.0000 0.57760  0.25000  0.92240  Biso   1.000  C
  C530     1.0000 0.60991  0.25000  0.89009  Biso   1.000  C
  N230     1.0000 0.44837  0.75000  0.94837  Biso   1.000  N
  C531     1.0000 0.42240  0.75000  0.92240  Biso   1.000  C
  C532     1.0000 0.39009  0.75000  0.89009  Biso   1.000  C
  N231     1.0000 0.44837  0.25000  0.05163  Biso   1.000  N
  C533     1.0000 0.42240  0.25000  0.07760  Biso   1.000  C
  C534     1.0000 0.39009  0.25000  0.10991  Biso   1.000  C
  N232     1.0000 0.55163  0.75000  0.05163  Biso   1.000  N
  C535     1.0000 0.57760  0.75000  0.07760  Biso   1.000  C
  C536     1.0000 0.60991  0.75000  0.10991  Biso   1.000  C
  N233     1.0000 0.94837  0.55163  0.25000  Biso   1.000  N
  C537     1.0000 0.92240  0.57760  0.25000  Biso   1.000  C
  C538     1.0000 0.89009  0.60991  0.25000  Biso   1.000  C
  N234     1.0000 0.94837  0.44837  0.75000  Biso   1.000  N
  C539     1.0000 0.92240  0.42240  0.75000  Biso   1.000  C
  C540     1.0000 0.89009  0.39009  0.75000  Biso   1.000  C
  N235     1.0000 0.05163  0.44837  0.25000  Biso   1.000  N
  C541     1.0000 0.07760  0.42240  0.25000  Biso   1.000  C
  C542     1.0000 0.10991  0.39009  0.25000  Biso   1.000  C
  N236     1.0000 0.05163  0.55163  0.75000  Biso   1.000  N
  C543     1.0000 0.07760  0.57760  0.75000  Biso   1.000  C
  C544     1.0000 0.10991  0.60991  0.75000  Biso   1.000  C
  N237     1.0000 0.25000  0.94837  0.55163  Biso   1.000  N
  C545     1.0000 0.25000  0.92240  0.57760  Biso   1.000  C
  C546     1.0000 0.25000  0.89009  0.60991  Biso   1.000  C
  N238     1.0000 0.75000  0.94837  0.44837  Biso   1.000  N
  C547     1.0000 0.75000  0.92240  0.42240  Biso   1.000  C
  C548     1.0000 0.75000  0.89009  0.39009  Biso   1.000  C
  N239     1.0000 0.25000  0.05163  0.44837  Biso   1.000  N
  C549     1.0000 0.25000  0.07760  0.42240  Biso   1.000  C
  C550     1.0000 0.25000  0.10991  0.39009  Biso   1.000  C
  N240     1.0000 0.75000  0.05163  0.55163  Biso   1.000  N
  C551     1.0000 0.75000  0.07760  0.57760  Biso   1.000  C
  C552     1.0000 0.75000  0.10991  0.60991  Biso   1.000  C
  C553     1.0000 0.34590  0.00000  0.00000  Biso   1.000  C
  C554     1.0000 0.65410  0.00000  0.00000  Biso   1.000  C
  C555     1.0000 0.00000  0.34590  0.00000  Biso   1.000  C
  C556     1.0000 0.00000  0.65410  0.00000  Biso   1.000  C
  C557     1.0000 0.00000  0.00000  0.34590  Biso   1.000  C
  C558     1.0000 0.00000  0.00000  0.65410  Biso   1.000  C
  C559     1.0000 0.50000  0.84590  0.50000  Biso   1.000  C
  C560     1.0000 0.50000  0.15410  0.50000  Biso   1.000  C
  C561     1.0000 0.84590  0.50000  0.50000  Biso   1.000  C
  C562     1.0000 0.15410  0.50000  0.50000  Biso   1.000  C
  C563     1.0000 0.50000  0.50000  0.15410  Biso   1.000  C
  C564     1.0000 0.50000  0.50000  0.84590  Biso   1.000  C
