data_image0
_cell_length_a       31.251
_cell_length_b       31.251
_cell_length_c       31.251
_cell_angle_alpha    90
_cell_angle_beta     90
_cell_angle_gamma    90

_symmetry_space_group_name_H-M    "P 1"
_symmetry_int_tables_number       1

loop_
  _symmetry_equiv_pos_as_xyz
  'x, y, z'

loop_
  _atom_site_label
  _atom_site_occupancy
  _atom_site_fract_x
  _atom_site_fract_y
  _atom_site_fract_z
  _atom_site_thermal_displace_type
  _atom_site_B_iso_or_equiv
  _atom_site_type_symbol
  N1       1.0000 0.33462  0.61375  0.29859  Biso   1.000  N
  N2       1.0000 0.44593  0.57048  0.22146  Biso   1.000  N
  N3       1.0000 0.29777  0.75901  0.32997  Biso   1.000  N
  N4       1.0000 0.33125  0.83200  0.44621  Biso   1.000  N
  C1       1.0000 0.34415  0.57935  0.29133  Biso   1.000  C
  C2       1.0000 0.42140  0.54906  0.23794  Biso   1.000  C
  C3       1.0000 0.28377  0.79108  0.34019  Biso   1.000  C
  C4       1.0000 0.30618  0.84184  0.42137  Biso   1.000  C
  C5       1.0000 0.35595  0.53621  0.28273  Biso   1.000  C
  C6       1.0000 0.39108  0.52226  0.25901  Biso   1.000  C
  C7       1.0000 0.26577  0.83056  0.35280  Biso   1.000  C
  C8       1.0000 0.27563  0.85359  0.38993  Biso   1.000  C
  N5       1.0000 0.66538  0.38625  0.29859  Biso   1.000  N
  N6       1.0000 0.55407  0.42952  0.22146  Biso   1.000  N
  N7       1.0000 0.70223  0.24099  0.32997  Biso   1.000  N
  N8       1.0000 0.66875  0.16800  0.44621  Biso   1.000  N
  C9       1.0000 0.65585  0.42065  0.29133  Biso   1.000  C
  C10      1.0000 0.57860  0.45094  0.23794  Biso   1.000  C
  C11      1.0000 0.71623  0.20892  0.34019  Biso   1.000  C
  C12      1.0000 0.69382  0.15816  0.42137  Biso   1.000  C
  C13      1.0000 0.64405  0.46379  0.28273  Biso   1.000  C
  C14      1.0000 0.60892  0.47774  0.25901  Biso   1.000  C
  C15      1.0000 0.73423  0.16944  0.35280  Biso   1.000  C
  C16      1.0000 0.72437  0.14641  0.38993  Biso   1.000  C
  N9       1.0000 0.66538  0.61375  0.70141  Biso   1.000  N
  N10      1.0000 0.55407  0.57048  0.77854  Biso   1.000  N
  N11      1.0000 0.70223  0.75901  0.67003  Biso   1.000  N
  N12      1.0000 0.66875  0.83200  0.55379  Biso   1.000  N
  C17      1.0000 0.65585  0.57935  0.70867  Biso   1.000  C
  C18      1.0000 0.57860  0.54906  0.76206  Biso   1.000  C
  C19      1.0000 0.71623  0.79108  0.65981  Biso   1.000  C
  C20      1.0000 0.69382  0.84184  0.57863  Biso   1.000  C
  C21      1.0000 0.64405  0.53621  0.71727  Biso   1.000  C
  C22      1.0000 0.60892  0.52226  0.74099  Biso   1.000  C
  C23      1.0000 0.73423  0.83056  0.64720  Biso   1.000  C
  C24      1.0000 0.72437  0.85359  0.61007  Biso   1.000  C
  N13      1.0000 0.33462  0.38625  0.70141  Biso   1.000  N
  N14      1.0000 0.44593  0.42952  0.77854  Biso   1.000  N
  N15      1.0000 0.29777  0.24099  0.67003  Biso   1.000  N
  N16      1.0000 0.33125  0.16800  0.55379  Biso   1.000  N
  C25      1.0000 0.34415  0.42065  0.70867  Biso   1.000  C
  C26      1.0000 0.42140  0.45094  0.76206  Biso   1.000  C
  C27      1.0000 0.28377  0.20892  0.65981  Biso   1.000  C
  C28      1.0000 0.30618  0.15816  0.57863  Biso   1.000  C
  C29      1.0000 0.35595  0.46379  0.71727  Biso   1.000  C
  C30      1.0000 0.39108  0.47774  0.74099  Biso   1.000  C
  C31      1.0000 0.26577  0.16944  0.64720  Biso   1.000  C
  C32      1.0000 0.27563  0.14641  0.61007  Biso   1.000  C
  N17      1.0000 0.29859  0.33462  0.61375  Biso   1.000  N
  N18      1.0000 0.22146  0.44593  0.57048  Biso   1.000  N
  N19      1.0000 0.32997  0.29777  0.75901  Biso   1.000  N
  N20      1.0000 0.44621  0.33125  0.83200  Biso   1.000  N
  C33      1.0000 0.29133  0.34415  0.57935  Biso   1.000  C
  C34      1.0000 0.23794  0.42140  0.54906  Biso   1.000  C
  C35      1.0000 0.34019  0.28377  0.79108  Biso   1.000  C
  C36      1.0000 0.42137  0.30618  0.84184  Biso   1.000  C
  C37      1.0000 0.28273  0.35595  0.53621  Biso   1.000  C
  C38      1.0000 0.25901  0.39108  0.52226  Biso   1.000  C
  C39      1.0000 0.35280  0.26577  0.83056  Biso   1.000  C
  C40      1.0000 0.38993  0.27563  0.85359  Biso   1.000  C
  N21      1.0000 0.29859  0.66538  0.38625  Biso   1.000  N
  N22      1.0000 0.22146  0.55407  0.42952  Biso   1.000  N
  N23      1.0000 0.32997  0.70223  0.24099  Biso   1.000  N
  N24      1.0000 0.44621  0.66875  0.16800  Biso   1.000  N
  C41      1.0000 0.29133  0.65585  0.42065  Biso   1.000  C
  C42      1.0000 0.23794  0.57860  0.45094  Biso   1.000  C
  C43      1.0000 0.34019  0.71623  0.20892  Biso   1.000  C
  C44      1.0000 0.42137  0.69382  0.15816  Biso   1.000  C
  C45      1.0000 0.28273  0.64405  0.46379  Biso   1.000  C
  C46      1.0000 0.25901  0.60892  0.47774  Biso   1.000  C
  C47      1.0000 0.35280  0.73423  0.16944  Biso   1.000  C
  C48      1.0000 0.38993  0.72437  0.14641  Biso   1.000  C
  N25      1.0000 0.70141  0.66538  0.61375  Biso   1.000  N
  N26      1.0000 0.77854  0.55407  0.57048  Biso   1.000  N
  N27      1.0000 0.67003  0.70223  0.75901  Biso   1.000  N
  N28      1.0000 0.55379  0.66875  0.83200  Biso   1.000  N
  C49      1.0000 0.70867  0.65585  0.57935  Biso   1.000  C
  C50      1.0000 0.76206  0.57860  0.54906  Biso   1.000  C
  C51      1.0000 0.65981  0.71623  0.79108  Biso   1.000  C
  C52      1.0000 0.57863  0.69382  0.84184  Biso   1.000  C
  C53      1.0000 0.71727  0.64405  0.53621  Biso   1.000  C
  C54      1.0000 0.74099  0.60892  0.52226  Biso   1.000  C
  C55      1.0000 0.64720  0.73423  0.83056  Biso   1.000  C
  C56      1.0000 0.61007  0.72437  0.85359  Biso   1.000  C
  N29      1.0000 0.70141  0.33462  0.38625  Biso   1.000  N
  N30      1.0000 0.77854  0.44593  0.42952  Biso   1.000  N
  N31      1.0000 0.67003  0.29777  0.24099  Biso   1.000  N
  N32      1.0000 0.55379  0.33125  0.16800  Biso   1.000  N
  C57      1.0000 0.70867  0.34415  0.42065  Biso   1.000  C
  C58      1.0000 0.76206  0.42140  0.45094  Biso   1.000  C
  C59      1.0000 0.65981  0.28377  0.20892  Biso   1.000  C
  C60      1.0000 0.57863  0.30618  0.15816  Biso   1.000  C
  C61      1.0000 0.71727  0.35595  0.46379  Biso   1.000  C
  C62      1.0000 0.74099  0.39108  0.47774  Biso   1.000  C
  C63      1.0000 0.64720  0.26577  0.16944  Biso   1.000  C
  C64      1.0000 0.61007  0.27563  0.14641  Biso   1.000  C
  N33      1.0000 0.61375  0.29859  0.33462  Biso   1.000  N
  N34      1.0000 0.57048  0.22146  0.44593  Biso   1.000  N
  N35      1.0000 0.75901  0.32997  0.29777  Biso   1.000  N
  N36      1.0000 0.83200  0.44621  0.33125  Biso   1.000  N
  C65      1.0000 0.57935  0.29133  0.34415  Biso   1.000  C
  C66      1.0000 0.54906  0.23794  0.42140  Biso   1.000  C
  C67      1.0000 0.79108  0.34019  0.28377  Biso   1.000  C
  C68      1.0000 0.84184  0.42137  0.30618  Biso   1.000  C
  C69      1.0000 0.53621  0.28273  0.35595  Biso   1.000  C
  C70      1.0000 0.52226  0.25901  0.39108  Biso   1.000  C
  C71      1.0000 0.83056  0.35280  0.26577  Biso   1.000  C
  C72      1.0000 0.85359  0.38993  0.27563  Biso   1.000  C
  N37      1.0000 0.38625  0.29859  0.66538  Biso   1.000  N
  N38      1.0000 0.42952  0.22146  0.55407  Biso   1.000  N
  N39      1.0000 0.24099  0.32997  0.70223  Biso   1.000  N
  N40      1.0000 0.16800  0.44621  0.66875  Biso   1.000  N
  C73      1.0000 0.42065  0.29133  0.65585  Biso   1.000  C
  C74      1.0000 0.45094  0.23794  0.57860  Biso   1.000  C
  C75      1.0000 0.20892  0.34019  0.71623  Biso   1.000  C
  C76      1.0000 0.15816  0.42137  0.69382  Biso   1.000  C
  C77      1.0000 0.46379  0.28273  0.64405  Biso   1.000  C
  C78      1.0000 0.47774  0.25901  0.60892  Biso   1.000  C
  C79      1.0000 0.16944  0.35280  0.73423  Biso   1.000  C
  C80      1.0000 0.14641  0.38993  0.72437  Biso   1.000  C
  N41      1.0000 0.61375  0.70141  0.66538  Biso   1.000  N
  N42      1.0000 0.57048  0.77854  0.55407  Biso   1.000  N
  N43      1.0000 0.75901  0.67003  0.70223  Biso   1.000  N
  N44      1.0000 0.83200  0.55379  0.66875  Biso   1.000  N
  C81      1.0000 0.57935  0.70867  0.65585  Biso   1.000  C
  C82      1.0000 0.54906  0.76206  0.57860  Biso   1.000  C
  C83      1.0000 0.79108  0.65981  0.71623  Biso   1.000  C
  C84      1.0000 0.84184  0.57863  0.69382  Biso   1.000  C
  C85      1.0000 0.53621  0.71727  0.64405  Biso   1.000  C
  C86      1.0000 0.52226  0.74099  0.60892  Biso   1.000  C
  C87      1.0000 0.83056  0.64720  0.73423  Biso   1.000  C
  C88      1.0000 0.85359  0.61007  0.72437  Biso   1.000  C
  N45      1.0000 0.38625  0.70141  0.33462  Biso   1.000  N
  N46      1.0000 0.42952  0.77854  0.44593  Biso   1.000  N
  N47      1.0000 0.24099  0.67003  0.29777  Biso   1.000  N
  N48      1.0000 0.16800  0.55379  0.33125  Biso   1.000  N
  C89      1.0000 0.42065  0.70867  0.34415  Biso   1.000  C
  C90      1.0000 0.45094  0.76206  0.42140  Biso   1.000  C
  C91      1.0000 0.20892  0.65981  0.28377  Biso   1.000  C
  C92      1.0000 0.15816  0.57863  0.30618  Biso   1.000  C
  C93      1.0000 0.46379  0.71727  0.35595  Biso   1.000  C
  C94      1.0000 0.47774  0.74099  0.39108  Biso   1.000  C
  C95      1.0000 0.16944  0.64720  0.26577  Biso   1.000  C
  C96      1.0000 0.14641  0.61007  0.27563  Biso   1.000  C
  N49      1.0000 0.11375  0.83462  0.20141  Biso   1.000  N
  N50      1.0000 0.07048  0.94593  0.27854  Biso   1.000  N
  N51      1.0000 0.25901  0.79777  0.17003  Biso   1.000  N
  N52      1.0000 0.33200  0.83125  0.05379  Biso   1.000  N
  C97      1.0000 0.07935  0.84415  0.20867  Biso   1.000  C
  C98      1.0000 0.04906  0.92140  0.26206  Biso   1.000  C
  C99      1.0000 0.29108  0.78377  0.15981  Biso   1.000  C
  C100     1.0000 0.34184  0.80618  0.07863  Biso   1.000  C
  C101     1.0000 0.03621  0.85595  0.21727  Biso   1.000  C
  C102     1.0000 0.02226  0.89108  0.24099  Biso   1.000  C
  C103     1.0000 0.33056  0.76577  0.14720  Biso   1.000  C
  C104     1.0000 0.35359  0.77563  0.11007  Biso   1.000  C
  N53      1.0000 0.88625  0.16538  0.20141  Biso   1.000  N
  N54      1.0000 0.92952  0.05407  0.27854  Biso   1.000  N
  N55      1.0000 0.74099  0.20223  0.17003  Biso   1.000  N
  N56      1.0000 0.66800  0.16875  0.05379  Biso   1.000  N
  C105     1.0000 0.92065  0.15585  0.20867  Biso   1.000  C
  C106     1.0000 0.95094  0.07860  0.26206  Biso   1.000  C
  C107     1.0000 0.70892  0.21623  0.15981  Biso   1.000  C
  C108     1.0000 0.65816  0.19382  0.07863  Biso   1.000  C
  C109     1.0000 0.96379  0.14405  0.21727  Biso   1.000  C
  C110     1.0000 0.97774  0.10892  0.24099  Biso   1.000  C
  C111     1.0000 0.66944  0.23423  0.14720  Biso   1.000  C
  C112     1.0000 0.64641  0.22437  0.11007  Biso   1.000  C
  N57      1.0000 0.11375  0.16538  0.79859  Biso   1.000  N
  N58      1.0000 0.07048  0.05407  0.72146  Biso   1.000  N
  N59      1.0000 0.25901  0.20223  0.82997  Biso   1.000  N
  N60      1.0000 0.33200  0.16875  0.94621  Biso   1.000  N
  C113     1.0000 0.07935  0.15585  0.79133  Biso   1.000  C
  C114     1.0000 0.04906  0.07860  0.73794  Biso   1.000  C
  C115     1.0000 0.29108  0.21623  0.84019  Biso   1.000  C
  C116     1.0000 0.34184  0.19382  0.92137  Biso   1.000  C
  C117     1.0000 0.03621  0.14405  0.78273  Biso   1.000  C
  C118     1.0000 0.02226  0.10892  0.75901  Biso   1.000  C
  C119     1.0000 0.33056  0.23423  0.85280  Biso   1.000  C
  C120     1.0000 0.35359  0.22437  0.88993  Biso   1.000  C
  N61      1.0000 0.88625  0.83462  0.79859  Biso   1.000  N
  N62      1.0000 0.92952  0.94593  0.72146  Biso   1.000  N
  N63      1.0000 0.74099  0.79777  0.82997  Biso   1.000  N
  N64      1.0000 0.66800  0.83125  0.94621  Biso   1.000  N
  C121     1.0000 0.92065  0.84415  0.79133  Biso   1.000  C
  C122     1.0000 0.95094  0.92140  0.73794  Biso   1.000  C
  C123     1.0000 0.70892  0.78377  0.84019  Biso   1.000  C
  C124     1.0000 0.65816  0.80618  0.92137  Biso   1.000  C
  C125     1.0000 0.96379  0.85595  0.78273  Biso   1.000  C
  C126     1.0000 0.97774  0.89108  0.75901  Biso   1.000  C
  C127     1.0000 0.66944  0.76577  0.85280  Biso   1.000  C
  C128     1.0000 0.64641  0.77563  0.88993  Biso   1.000  C
  N65      1.0000 0.83462  0.79859  0.88625  Biso   1.000  N
  N66      1.0000 0.94593  0.72146  0.92952  Biso   1.000  N
  N67      1.0000 0.79777  0.82997  0.74099  Biso   1.000  N
  N68      1.0000 0.83125  0.94621  0.66800  Biso   1.000  N
  C129     1.0000 0.84415  0.79133  0.92065  Biso   1.000  C
  C130     1.0000 0.92140  0.73794  0.95094  Biso   1.000  C
  C131     1.0000 0.78377  0.84019  0.70892  Biso   1.000  C
  C132     1.0000 0.80618  0.92137  0.65816  Biso   1.000  C
  C133     1.0000 0.85595  0.78273  0.96379  Biso   1.000  C
  C134     1.0000 0.89108  0.75901  0.97774  Biso   1.000  C
  C135     1.0000 0.76577  0.85280  0.66944  Biso   1.000  C
  C136     1.0000 0.77563  0.88993  0.64641  Biso   1.000  C
  N69      1.0000 0.16538  0.79859  0.11375  Biso   1.000  N
  N70      1.0000 0.05407  0.72146  0.07048  Biso   1.000  N
  N71      1.0000 0.20223  0.82997  0.25901  Biso   1.000  N
  N72      1.0000 0.16875  0.94621  0.33200  Biso   1.000  N
  C137     1.0000 0.15585  0.79133  0.07935  Biso   1.000  C
  C138     1.0000 0.07860  0.73794  0.04906  Biso   1.000  C
  C139     1.0000 0.21623  0.84019  0.29108  Biso   1.000  C
  C140     1.0000 0.19382  0.92137  0.34184  Biso   1.000  C
  C141     1.0000 0.14405  0.78273  0.03621  Biso   1.000  C
  C142     1.0000 0.10892  0.75901  0.02226  Biso   1.000  C
  C143     1.0000 0.23423  0.85280  0.33056  Biso   1.000  C
  C144     1.0000 0.22437  0.88993  0.35359  Biso   1.000  C
  N73      1.0000 0.16538  0.20141  0.88625  Biso   1.000  N
  N74      1.0000 0.05407  0.27854  0.92952  Biso   1.000  N
  N75      1.0000 0.20223  0.17003  0.74099  Biso   1.000  N
  N76      1.0000 0.16875  0.05379  0.66800  Biso   1.000  N
  C145     1.0000 0.15585  0.20867  0.92065  Biso   1.000  C
  C146     1.0000 0.07860  0.26206  0.95094  Biso   1.000  C
  C147     1.0000 0.21623  0.15981  0.70892  Biso   1.000  C
  C148     1.0000 0.19382  0.07863  0.65816  Biso   1.000  C
  C149     1.0000 0.14405  0.21727  0.96379  Biso   1.000  C
  C150     1.0000 0.10892  0.24099  0.97774  Biso   1.000  C
  C151     1.0000 0.23423  0.14720  0.66944  Biso   1.000  C
  C152     1.0000 0.22437  0.11007  0.64641  Biso   1.000  C
  N77      1.0000 0.83462  0.20141  0.11375  Biso   1.000  N
  N78      1.0000 0.94593  0.27854  0.07048  Biso   1.000  N
  N79      1.0000 0.79777  0.17003  0.25901  Biso   1.000  N
  N80      1.0000 0.83125  0.05379  0.33200  Biso   1.000  N
  C153     1.0000 0.84415  0.20867  0.07935  Biso   1.000  C
  C154     1.0000 0.92140  0.26206  0.04906  Biso   1.000  C
  C155     1.0000 0.78377  0.15981  0.29108  Biso   1.000  C
  C156     1.0000 0.80618  0.07863  0.34184  Biso   1.000  C
  C157     1.0000 0.85595  0.21727  0.03621  Biso   1.000  C
  C158     1.0000 0.89108  0.24099  0.02226  Biso   1.000  C
  C159     1.0000 0.76577  0.14720  0.33056  Biso   1.000  C
  C160     1.0000 0.77563  0.11007  0.35359  Biso   1.000  C
  N81      1.0000 0.79859  0.11375  0.16538  Biso   1.000  N
  N82      1.0000 0.72146  0.07048  0.05407  Biso   1.000  N
  N83      1.0000 0.82997  0.25901  0.20223  Biso   1.000  N
  N84      1.0000 0.94621  0.33200  0.16875  Biso   1.000  N
  C161     1.0000 0.79133  0.07935  0.15585  Biso   1.000  C
  C162     1.0000 0.73794  0.04906  0.07860  Biso   1.000  C
  C163     1.0000 0.84019  0.29108  0.21623  Biso   1.000  C
  C164     1.0000 0.92137  0.34184  0.19382  Biso   1.000  C
  C165     1.0000 0.78273  0.03621  0.14405  Biso   1.000  C
  C166     1.0000 0.75901  0.02226  0.10892  Biso   1.000  C
  C167     1.0000 0.85280  0.33056  0.23423  Biso   1.000  C
  C168     1.0000 0.88993  0.35359  0.22437  Biso   1.000  C
  N85      1.0000 0.79859  0.88625  0.83462  Biso   1.000  N
  N86      1.0000 0.72146  0.92952  0.94593  Biso   1.000  N
  N87      1.0000 0.82997  0.74099  0.79777  Biso   1.000  N
  N88      1.0000 0.94621  0.66800  0.83125  Biso   1.000  N
  C169     1.0000 0.79133  0.92065  0.84415  Biso   1.000  C
  C170     1.0000 0.73794  0.95094  0.92140  Biso   1.000  C
  C171     1.0000 0.84019  0.70892  0.78377  Biso   1.000  C
  C172     1.0000 0.92137  0.65816  0.80618  Biso   1.000  C
  C173     1.0000 0.78273  0.96379  0.85595  Biso   1.000  C
  C174     1.0000 0.75901  0.97774  0.89108  Biso   1.000  C
  C175     1.0000 0.85280  0.66944  0.76577  Biso   1.000  C
  C176     1.0000 0.88993  0.64641  0.77563  Biso   1.000  C
  N89      1.0000 0.20141  0.11375  0.83462  Biso   1.000  N
  N90      1.0000 0.27854  0.07048  0.94593  Biso   1.000  N
  N91      1.0000 0.17003  0.25901  0.79777  Biso   1.000  N
  N92      1.0000 0.05379  0.33200  0.83125  Biso   1.000  N
  C177     1.0000 0.20867  0.07935  0.84415  Biso   1.000  C
  C178     1.0000 0.26206  0.04906  0.92140  Biso   1.000  C
  C179     1.0000 0.15981  0.29108  0.78377  Biso   1.000  C
  C180     1.0000 0.07863  0.34184  0.80618  Biso   1.000  C
  C181     1.0000 0.21727  0.03621  0.85595  Biso   1.000  C
  C182     1.0000 0.24099  0.02226  0.89108  Biso   1.000  C
  C183     1.0000 0.14720  0.33056  0.76577  Biso   1.000  C
  C184     1.0000 0.11007  0.35359  0.77563  Biso   1.000  C
  N93      1.0000 0.20141  0.88625  0.16538  Biso   1.000  N
  N94      1.0000 0.27854  0.92952  0.05407  Biso   1.000  N
  N95      1.0000 0.17003  0.74099  0.20223  Biso   1.000  N
  N96      1.0000 0.05379  0.66800  0.16875  Biso   1.000  N
  C185     1.0000 0.20867  0.92065  0.15585  Biso   1.000  C
  C186     1.0000 0.26206  0.95094  0.07860  Biso   1.000  C
  C187     1.0000 0.15981  0.70892  0.21623  Biso   1.000  C
  C188     1.0000 0.07863  0.65816  0.19382  Biso   1.000  C
  C189     1.0000 0.21727  0.96379  0.14405  Biso   1.000  C
  C190     1.0000 0.24099  0.97774  0.10892  Biso   1.000  C
  C191     1.0000 0.14720  0.66944  0.23423  Biso   1.000  C
  C192     1.0000 0.11007  0.64641  0.22437  Biso   1.000  C
  N97      1.0000 0.66538  0.38625  0.70141  Biso   1.000  N
  N98      1.0000 0.55407  0.42952  0.77854  Biso   1.000  N
  N99      1.0000 0.70223  0.24099  0.67003  Biso   1.000  N
  N100     1.0000 0.66875  0.16800  0.55379  Biso   1.000  N
  C193     1.0000 0.65585  0.42065  0.70867  Biso   1.000  C
  C194     1.0000 0.57860  0.45094  0.76206  Biso   1.000  C
  C195     1.0000 0.71623  0.20892  0.65981  Biso   1.000  C
  C196     1.0000 0.69382  0.15816  0.57863  Biso   1.000  C
  C197     1.0000 0.64405  0.46379  0.71727  Biso   1.000  C
  C198     1.0000 0.60892  0.47774  0.74099  Biso   1.000  C
  C199     1.0000 0.73423  0.16944  0.64720  Biso   1.000  C
  C200     1.0000 0.72437  0.14641  0.61007  Biso   1.000  C
  N101     1.0000 0.33462  0.61375  0.70141  Biso   1.000  N
  N102     1.0000 0.44593  0.57048  0.77854  Biso   1.000  N
  N103     1.0000 0.29777  0.75901  0.67003  Biso   1.000  N
  N104     1.0000 0.33125  0.83200  0.55379  Biso   1.000  N
  C201     1.0000 0.34415  0.57935  0.70867  Biso   1.000  C
  C202     1.0000 0.42140  0.54906  0.76206  Biso   1.000  C
  C203     1.0000 0.28377  0.79108  0.65981  Biso   1.000  C
  C204     1.0000 0.30618  0.84184  0.57863  Biso   1.000  C
  C205     1.0000 0.35595  0.53621  0.71727  Biso   1.000  C
  C206     1.0000 0.39108  0.52226  0.74099  Biso   1.000  C
  C207     1.0000 0.26577  0.83056  0.64720  Biso   1.000  C
  C208     1.0000 0.27563  0.85359  0.61007  Biso   1.000  C
  N105     1.0000 0.33462  0.38625  0.29859  Biso   1.000  N
  N106     1.0000 0.44593  0.42952  0.22146  Biso   1.000  N
  N107     1.0000 0.29777  0.24099  0.32997  Biso   1.000  N
  N108     1.0000 0.33125  0.16800  0.44621  Biso   1.000  N
  C209     1.0000 0.34415  0.42065  0.29133  Biso   1.000  C
  C210     1.0000 0.42140  0.45094  0.23794  Biso   1.000  C
  C211     1.0000 0.28377  0.20892  0.34019  Biso   1.000  C
  C212     1.0000 0.30618  0.15816  0.42137  Biso   1.000  C
  C213     1.0000 0.35595  0.46379  0.28273  Biso   1.000  C
  C214     1.0000 0.39108  0.47774  0.25901  Biso   1.000  C
  C215     1.0000 0.26577  0.16944  0.35280  Biso   1.000  C
  C216     1.0000 0.27563  0.14641  0.38993  Biso   1.000  C
  N109     1.0000 0.66538  0.61375  0.29859  Biso   1.000  N
  N110     1.0000 0.55407  0.57048  0.22146  Biso   1.000  N
  N111     1.0000 0.70223  0.75901  0.32997  Biso   1.000  N
  N112     1.0000 0.66875  0.83200  0.44621  Biso   1.000  N
  C217     1.0000 0.65585  0.57935  0.29133  Biso   1.000  C
  C218     1.0000 0.57860  0.54906  0.23794  Biso   1.000  C
  C219     1.0000 0.71623  0.79108  0.34019  Biso   1.000  C
  C220     1.0000 0.69382  0.84184  0.42137  Biso   1.000  C
  C221     1.0000 0.64405  0.53621  0.28273  Biso   1.000  C
  C222     1.0000 0.60892  0.52226  0.25901  Biso   1.000  C
  C223     1.0000 0.73423  0.83056  0.35280  Biso   1.000  C
  C224     1.0000 0.72437  0.85359  0.38993  Biso   1.000  C
  N113     1.0000 0.70141  0.66538  0.38625  Biso   1.000  N
  N114     1.0000 0.77854  0.55407  0.42952  Biso   1.000  N
  N115     1.0000 0.67003  0.70223  0.24099  Biso   1.000  N
  N116     1.0000 0.55379  0.66875  0.16800  Biso   1.000  N
  C225     1.0000 0.70867  0.65585  0.42065  Biso   1.000  C
  C226     1.0000 0.76206  0.57860  0.45094  Biso   1.000  C
  C227     1.0000 0.65981  0.71623  0.20892  Biso   1.000  C
  C228     1.0000 0.57863  0.69382  0.15816  Biso   1.000  C
  C229     1.0000 0.71727  0.64405  0.46379  Biso   1.000  C
  C230     1.0000 0.74099  0.60892  0.47774  Biso   1.000  C
  C231     1.0000 0.64720  0.73423  0.16944  Biso   1.000  C
  C232     1.0000 0.61007  0.72437  0.14641  Biso   1.000  C
  N117     1.0000 0.70141  0.33462  0.61375  Biso   1.000  N
  N118     1.0000 0.77854  0.44593  0.57048  Biso   1.000  N
  N119     1.0000 0.67003  0.29777  0.75901  Biso   1.000  N
  N120     1.0000 0.55379  0.33125  0.83200  Biso   1.000  N
  C233     1.0000 0.70867  0.34415  0.57935  Biso   1.000  C
  C234     1.0000 0.76206  0.42140  0.54906  Biso   1.000  C
  C235     1.0000 0.65981  0.28377  0.79108  Biso   1.000  C
  C236     1.0000 0.57863  0.30618  0.84184  Biso   1.000  C
  C237     1.0000 0.71727  0.35595  0.53621  Biso   1.000  C
  C238     1.0000 0.74099  0.39108  0.52226  Biso   1.000  C
  C239     1.0000 0.64720  0.26577  0.83056  Biso   1.000  C
  C240     1.0000 0.61007  0.27563  0.85359  Biso   1.000  C
  N121     1.0000 0.29859  0.33462  0.38625  Biso   1.000  N
  N122     1.0000 0.22146  0.44593  0.42952  Biso   1.000  N
  N123     1.0000 0.32997  0.29777  0.24099  Biso   1.000  N
  N124     1.0000 0.44621  0.33125  0.16800  Biso   1.000  N
  C241     1.0000 0.29133  0.34415  0.42065  Biso   1.000  C
  C242     1.0000 0.23794  0.42140  0.45094  Biso   1.000  C
  C243     1.0000 0.34019  0.28377  0.20892  Biso   1.000  C
  C244     1.0000 0.42137  0.30618  0.15816  Biso   1.000  C
  C245     1.0000 0.28273  0.35595  0.46379  Biso   1.000  C
  C246     1.0000 0.25901  0.39108  0.47774  Biso   1.000  C
  C247     1.0000 0.35280  0.26577  0.16944  Biso   1.000  C
  C248     1.0000 0.38993  0.27563  0.14641  Biso   1.000  C
  N125     1.0000 0.29859  0.66538  0.61375  Biso   1.000  N
  N126     1.0000 0.22146  0.55407  0.57048  Biso   1.000  N
  N127     1.0000 0.32997  0.70223  0.75901  Biso   1.000  N
  N128     1.0000 0.44621  0.66875  0.83200  Biso   1.000  N
  C249     1.0000 0.29133  0.65585  0.57935  Biso   1.000  C
  C250     1.0000 0.23794  0.57860  0.54906  Biso   1.000  C
  C251     1.0000 0.34019  0.71623  0.79108  Biso   1.000  C
  C252     1.0000 0.42137  0.69382  0.84184  Biso   1.000  C
  C253     1.0000 0.28273  0.64405  0.53621  Biso   1.000  C
  C254     1.0000 0.25901  0.60892  0.52226  Biso   1.000  C
  C255     1.0000 0.35280  0.73423  0.83056  Biso   1.000  C
  C256     1.0000 0.38993  0.72437  0.85359  Biso   1.000  C
  N129     1.0000 0.38625  0.70141  0.66538  Biso   1.000  N
  N130     1.0000 0.42952  0.77854  0.55407  Biso   1.000  N
  N131     1.0000 0.24099  0.67003  0.70223  Biso   1.000  N
  N132     1.0000 0.16800  0.55379  0.66875  Biso   1.000  N
  C257     1.0000 0.42065  0.70867  0.65585  Biso   1.000  C
  C258     1.0000 0.45094  0.76206  0.57860  Biso   1.000  C
  C259     1.0000 0.20892  0.65981  0.71623  Biso   1.000  C
  C260     1.0000 0.15816  0.57863  0.69382  Biso   1.000  C
  C261     1.0000 0.46379  0.71727  0.64405  Biso   1.000  C
  C262     1.0000 0.47774  0.74099  0.60892  Biso   1.000  C
  C263     1.0000 0.16944  0.64720  0.73423  Biso   1.000  C
  C264     1.0000 0.14641  0.61007  0.72437  Biso   1.000  C
  N133     1.0000 0.61375  0.70141  0.33462  Biso   1.000  N
  N134     1.0000 0.57048  0.77854  0.44593  Biso   1.000  N
  N135     1.0000 0.75901  0.67003  0.29777  Biso   1.000  N
  N136     1.0000 0.83200  0.55379  0.33125  Biso   1.000  N
  C265     1.0000 0.57935  0.70867  0.34415  Biso   1.000  C
  C266     1.0000 0.54906  0.76206  0.42140  Biso   1.000  C
  C267     1.0000 0.79108  0.65981  0.28377  Biso   1.000  C
  C268     1.0000 0.84184  0.57863  0.30618  Biso   1.000  C
  C269     1.0000 0.53621  0.71727  0.35595  Biso   1.000  C
  C270     1.0000 0.52226  0.74099  0.39108  Biso   1.000  C
  C271     1.0000 0.83056  0.64720  0.26577  Biso   1.000  C
  C272     1.0000 0.85359  0.61007  0.27563  Biso   1.000  C
  N137     1.0000 0.38625  0.29859  0.33462  Biso   1.000  N
  N138     1.0000 0.42952  0.22146  0.44593  Biso   1.000  N
  N139     1.0000 0.24099  0.32997  0.29777  Biso   1.000  N
  N140     1.0000 0.16800  0.44621  0.33125  Biso   1.000  N
  C273     1.0000 0.42065  0.29133  0.34415  Biso   1.000  C
  C274     1.0000 0.45094  0.23794  0.42140  Biso   1.000  C
  C275     1.0000 0.20892  0.34019  0.28377  Biso   1.000  C
  C276     1.0000 0.15816  0.42137  0.30618  Biso   1.000  C
  C277     1.0000 0.46379  0.28273  0.35595  Biso   1.000  C
  C278     1.0000 0.47774  0.25901  0.39108  Biso   1.000  C
  C279     1.0000 0.16944  0.35280  0.26577  Biso   1.000  C
  C280     1.0000 0.14641  0.38993  0.27563  Biso   1.000  C
  N141     1.0000 0.61375  0.29859  0.66538  Biso   1.000  N
  N142     1.0000 0.57048  0.22146  0.55407  Biso   1.000  N
  N143     1.0000 0.75901  0.32997  0.70223  Biso   1.000  N
  N144     1.0000 0.83200  0.44621  0.66875  Biso   1.000  N
  C281     1.0000 0.57935  0.29133  0.65585  Biso   1.000  C
  C282     1.0000 0.54906  0.23794  0.57860  Biso   1.000  C
  C283     1.0000 0.79108  0.34019  0.71623  Biso   1.000  C
  C284     1.0000 0.84184  0.42137  0.69382  Biso   1.000  C
  C285     1.0000 0.53621  0.28273  0.64405  Biso   1.000  C
  C286     1.0000 0.52226  0.25901  0.60892  Biso   1.000  C
  C287     1.0000 0.83056  0.35280  0.73423  Biso   1.000  C
  C288     1.0000 0.85359  0.38993  0.72437  Biso   1.000  C
  N145     1.0000 0.88625  0.16538  0.79859  Biso   1.000  N
  N146     1.0000 0.92952  0.05407  0.72146  Biso   1.000  N
  N147     1.0000 0.74099  0.20223  0.82997  Biso   1.000  N
  N148     1.0000 0.66800  0.16875  0.94621  Biso   1.000  N
  C289     1.0000 0.92065  0.15585  0.79133  Biso   1.000  C
  C290     1.0000 0.95094  0.07860  0.73794  Biso   1.000  C
  C291     1.0000 0.70892  0.21623  0.84019  Biso   1.000  C
  C292     1.0000 0.65816  0.19382  0.92137  Biso   1.000  C
  C293     1.0000 0.96379  0.14405  0.78273  Biso   1.000  C
  C294     1.0000 0.97774  0.10892  0.75901  Biso   1.000  C
  C295     1.0000 0.66944  0.23423  0.85280  Biso   1.000  C
  C296     1.0000 0.64641  0.22437  0.88993  Biso   1.000  C
  N149     1.0000 0.11375  0.83462  0.79859  Biso   1.000  N
  N150     1.0000 0.07048  0.94593  0.72146  Biso   1.000  N
  N151     1.0000 0.25901  0.79777  0.82997  Biso   1.000  N
  N152     1.0000 0.33200  0.83125  0.94621  Biso   1.000  N
  C297     1.0000 0.07935  0.84415  0.79133  Biso   1.000  C
  C298     1.0000 0.04906  0.92140  0.73794  Biso   1.000  C
  C299     1.0000 0.29108  0.78377  0.84019  Biso   1.000  C
  C300     1.0000 0.34184  0.80618  0.92137  Biso   1.000  C
  C301     1.0000 0.03621  0.85595  0.78273  Biso   1.000  C
  C302     1.0000 0.02226  0.89108  0.75901  Biso   1.000  C
  C303     1.0000 0.33056  0.76577  0.85280  Biso   1.000  C
  C304     1.0000 0.35359  0.77563  0.88993  Biso   1.000  C
  N153     1.0000 0.88625  0.83462  0.20141  Biso   1.000  N
  N154     1.0000 0.92952  0.94593  0.27854  Biso   1.000  N
  N155     1.0000 0.74099  0.79777  0.17003  Biso   1.000  N
  N156     1.0000 0.66800  0.83125  0.05379  Biso   1.000  N
  C305     1.0000 0.92065  0.84415  0.20867  Biso   1.000  C
  C306     1.0000 0.95094  0.92140  0.26206  Biso   1.000  C
  C307     1.0000 0.70892  0.78377  0.15981  Biso   1.000  C
  C308     1.0000 0.65816  0.80618  0.07863  Biso   1.000  C
  C309     1.0000 0.96379  0.85595  0.21727  Biso   1.000  C
  C310     1.0000 0.97774  0.89108  0.24099  Biso   1.000  C
  C311     1.0000 0.66944  0.76577  0.14720  Biso   1.000  C
  C312     1.0000 0.64641  0.77563  0.11007  Biso   1.000  C
  N157     1.0000 0.11375  0.16538  0.20141  Biso   1.000  N
  N158     1.0000 0.07048  0.05407  0.27854  Biso   1.000  N
  N159     1.0000 0.25901  0.20223  0.17003  Biso   1.000  N
  N160     1.0000 0.33200  0.16875  0.05379  Biso   1.000  N
  C313     1.0000 0.07935  0.15585  0.20867  Biso   1.000  C
  C314     1.0000 0.04906  0.07860  0.26206  Biso   1.000  C
  C315     1.0000 0.29108  0.21623  0.15981  Biso   1.000  C
  C316     1.0000 0.34184  0.19382  0.07863  Biso   1.000  C
  C317     1.0000 0.03621  0.14405  0.21727  Biso   1.000  C
  C318     1.0000 0.02226  0.10892  0.24099  Biso   1.000  C
  C319     1.0000 0.33056  0.23423  0.14720  Biso   1.000  C
  C320     1.0000 0.35359  0.22437  0.11007  Biso   1.000  C
  N161     1.0000 0.16538  0.20141  0.11375  Biso   1.000  N
  N162     1.0000 0.05407  0.27854  0.07048  Biso   1.000  N
  N163     1.0000 0.20223  0.17003  0.25901  Biso   1.000  N
  N164     1.0000 0.16875  0.05379  0.33200  Biso   1.000  N
  C321     1.0000 0.15585  0.20867  0.07935  Biso   1.000  C
  C322     1.0000 0.07860  0.26206  0.04906  Biso   1.000  C
  C323     1.0000 0.21623  0.15981  0.29108  Biso   1.000  C
  C324     1.0000 0.19382  0.07863  0.34184  Biso   1.000  C
  C325     1.0000 0.14405  0.21727  0.03621  Biso   1.000  C
  C326     1.0000 0.10892  0.24099  0.02226  Biso   1.000  C
  C327     1.0000 0.23423  0.14720  0.33056  Biso   1.000  C
  C328     1.0000 0.22437  0.11007  0.35359  Biso   1.000  C
  N165     1.0000 0.83462  0.20141  0.88625  Biso   1.000  N
  N166     1.0000 0.94593  0.27854  0.92952  Biso   1.000  N
  N167     1.0000 0.79777  0.17003  0.74099  Biso   1.000  N
  N168     1.0000 0.83125  0.05379  0.66800  Biso   1.000  N
  C329     1.0000 0.84415  0.20867  0.92065  Biso   1.000  C
  C330     1.0000 0.92140  0.26206  0.95094  Biso   1.000  C
  C331     1.0000 0.78377  0.15981  0.70892  Biso   1.000  C
  C332     1.0000 0.80618  0.07863  0.65816  Biso   1.000  C
  C333     1.0000 0.85595  0.21727  0.96379  Biso   1.000  C
  C334     1.0000 0.89108  0.24099  0.97774  Biso   1.000  C
  C335     1.0000 0.76577  0.14720  0.66944  Biso   1.000  C
  C336     1.0000 0.77563  0.11007  0.64641  Biso   1.000  C
  N169     1.0000 0.83462  0.79859  0.11375  Biso   1.000  N
  N170     1.0000 0.94593  0.72146  0.07048  Biso   1.000  N
  N171     1.0000 0.79777  0.82997  0.25901  Biso   1.000  N
  N172     1.0000 0.83125  0.94621  0.33200  Biso   1.000  N
  C337     1.0000 0.84415  0.79133  0.07935  Biso   1.000  C
  C338     1.0000 0.92140  0.73794  0.04906  Biso   1.000  C
  C339     1.0000 0.78377  0.84019  0.29108  Biso   1.000  C
  C340     1.0000 0.80618  0.92137  0.34184  Biso   1.000  C
  C341     1.0000 0.85595  0.78273  0.03621  Biso   1.000  C
  C342     1.0000 0.89108  0.75901  0.02226  Biso   1.000  C
  C343     1.0000 0.76577  0.85280  0.33056  Biso   1.000  C
  C344     1.0000 0.77563  0.88993  0.35359  Biso   1.000  C
  N173     1.0000 0.16538  0.79859  0.88625  Biso   1.000  N
  N174     1.0000 0.05407  0.72146  0.92952  Biso   1.000  N
  N175     1.0000 0.20223  0.82997  0.74099  Biso   1.000  N
  N176     1.0000 0.16875  0.94621  0.66800  Biso   1.000  N
  C345     1.0000 0.15585  0.79133  0.92065  Biso   1.000  C
  C346     1.0000 0.07860  0.73794  0.95094  Biso   1.000  C
  C347     1.0000 0.21623  0.84019  0.70892  Biso   1.000  C
  C348     1.0000 0.19382  0.92137  0.65816  Biso   1.000  C
  C349     1.0000 0.14405  0.78273  0.96379  Biso   1.000  C
  C350     1.0000 0.10892  0.75901  0.97774  Biso   1.000  C
  C351     1.0000 0.23423  0.85280  0.66944  Biso   1.000  C
  C352     1.0000 0.22437  0.88993  0.64641  Biso   1.000  C
  N177     1.0000 0.20141  0.88625  0.83462  Biso   1.000  N
  N178     1.0000 0.27854  0.92952  0.94593  Biso   1.000  N
  N179     1.0000 0.17003  0.74099  0.79777  Biso   1.000  N
  N180     1.0000 0.05379  0.66800  0.83125  Biso   1.000  N
  C353     1.0000 0.20867  0.92065  0.84415  Biso   1.000  C
  C354     1.0000 0.26206  0.95094  0.92140  Biso   1.000  C
  C355     1.0000 0.15981  0.70892  0.78377  Biso   1.000  C
  C356     1.0000 0.07863  0.65816  0.80618  Biso   1.000  C
  C357     1.0000 0.21727  0.96379  0.85595  Biso   1.000  C
  C358     1.0000 0.24099  0.97774  0.89108  Biso   1.000  C
  C359     1.0000 0.14720  0.66944  0.76577  Biso   1.000  C
  C360     1.0000 0.11007  0.64641  0.77563  Biso   1.000  C
  N181     1.0000 0.20141  0.11375  0.16538  Biso   1.000  N
  N182     1.0000 0.27854  0.07048  0.05407  Biso   1.000  N
  N183     1.0000 0.17003  0.25901  0.20223  Biso   1.000  N
  N184     1.0000 0.05379  0.33200  0.16875  Biso   1.000  N
  C361     1.0000 0.20867  0.07935  0.15585  Biso   1.000  C
  C362     1.0000 0.26206  0.04906  0.07860  Biso   1.000  C
  C363     1.0000 0.15981  0.29108  0.21623  Biso   1.000  C
  C364     1.0000 0.07863  0.34184  0.19382  Biso   1.000  C
  C365     1.0000 0.21727  0.03621  0.14405  Biso   1.000  C
  C366     1.0000 0.24099  0.02226  0.10892  Biso   1.000  C
  C367     1.0000 0.14720  0.33056  0.23423  Biso   1.000  C
  C368     1.0000 0.11007  0.35359  0.22437  Biso   1.000  C
  N185     1.0000 0.79859  0.88625  0.16538  Biso   1.000  N
  N186     1.0000 0.72146  0.92952  0.05407  Biso   1.000  N
  N187     1.0000 0.82997  0.74099  0.20223  Biso   1.000  N
  N188     1.0000 0.94621  0.66800  0.16875  Biso   1.000  N
  C369     1.0000 0.79133  0.92065  0.15585  Biso   1.000  C
  C370     1.0000 0.73794  0.95094  0.07860  Biso   1.000  C
  C371     1.0000 0.84019  0.70892  0.21623  Biso   1.000  C
  C372     1.0000 0.92137  0.65816  0.19382  Biso   1.000  C
  C373     1.0000 0.78273  0.96379  0.14405  Biso   1.000  C
  C374     1.0000 0.75901  0.97774  0.10892  Biso   1.000  C
  C375     1.0000 0.85280  0.66944  0.23423  Biso   1.000  C
  C376     1.0000 0.88993  0.64641  0.22437  Biso   1.000  C
  N189     1.0000 0.79859  0.11375  0.83462  Biso   1.000  N
  N190     1.0000 0.72146  0.07048  0.94593  Biso   1.000  N
  N191     1.0000 0.82997  0.25901  0.79777  Biso   1.000  N
  N192     1.0000 0.94621  0.33200  0.83125  Biso   1.000  N
  C377     1.0000 0.79133  0.07935  0.84415  Biso   1.000  C
  C378     1.0000 0.73794  0.04906  0.92140  Biso   1.000  C
  C379     1.0000 0.84019  0.29108  0.78377  Biso   1.000  C
  C380     1.0000 0.92137  0.34184  0.80618  Biso   1.000  C
  C381     1.0000 0.78273  0.03621  0.85595  Biso   1.000  C
  C382     1.0000 0.75901  0.02226  0.89108  Biso   1.000  C
  C383     1.0000 0.85280  0.33056  0.76577  Biso   1.000  C
  C384     1.0000 0.88993  0.35359  0.77563  Biso   1.000  C
  Na1      1.0000 0.31434  0.68566  0.31434  Biso   1.000  Na
  Na2      1.0000 0.68566  0.31434  0.31434  Biso   1.000  Na
  Na3      1.0000 0.68566  0.68566  0.68566  Biso   1.000  Na
  Na4      1.0000 0.31434  0.31434  0.68566  Biso   1.000  Na
  Na5      1.0000 0.18566  0.81434  0.18566  Biso   1.000  Na
  Na6      1.0000 0.81434  0.18566  0.18566  Biso   1.000  Na
  Na7      1.0000 0.18566  0.18566  0.81434  Biso   1.000  Na
  Na8      1.0000 0.81434  0.81434  0.81434  Biso   1.000  Na
  Na9      1.0000 0.68566  0.31434  0.68566  Biso   1.000  Na
  Na10     1.0000 0.31434  0.68566  0.68566  Biso   1.000  Na
  Na11     1.0000 0.31434  0.31434  0.31434  Biso   1.000  Na
  Na12     1.0000 0.68566  0.68566  0.31434  Biso   1.000  Na
  Na13     1.0000 0.81434  0.18566  0.81434  Biso   1.000  Na
  Na14     1.0000 0.18566  0.81434  0.81434  Biso   1.000  Na
  Na15     1.0000 0.81434  0.81434  0.18566  Biso   1.000  Na
  Na16     1.0000 0.18566  0.18566  0.18566  Biso   1.000  Na
  Na17     1.0000 0.37966  0.80459  0.50000  Biso   1.000  Na
  Na18     1.0000 0.62034  0.19541  0.50000  Biso   1.000  Na
  Na19     1.0000 0.62034  0.80459  0.50000  Biso   1.000  Na
  Na20     1.0000 0.37966  0.19541  0.50000  Biso   1.000  Na
  Na21     1.0000 0.50000  0.37966  0.80459  Biso   1.000  Na
  Na22     1.0000 0.50000  0.62034  0.19541  Biso   1.000  Na
  Na23     1.0000 0.50000  0.62034  0.80459  Biso   1.000  Na
  Na24     1.0000 0.50000  0.37966  0.19541  Biso   1.000  Na
  Na25     1.0000 0.80459  0.50000  0.37966  Biso   1.000  Na
  Na26     1.0000 0.19541  0.50000  0.62034  Biso   1.000  Na
  Na27     1.0000 0.80459  0.50000  0.62034  Biso   1.000  Na
  Na28     1.0000 0.19541  0.50000  0.37966  Biso   1.000  Na
  Na29     1.0000 0.30459  0.87966  0.00000  Biso   1.000  Na
  Na30     1.0000 0.69541  0.12034  0.00000  Biso   1.000  Na
  Na31     1.0000 0.30459  0.12034  0.00000  Biso   1.000  Na
  Na32     1.0000 0.69541  0.87966  0.00000  Biso   1.000  Na
  Na33     1.0000 0.87966  0.00000  0.69541  Biso   1.000  Na
  Na34     1.0000 0.12034  0.00000  0.30459  Biso   1.000  Na
  Na35     1.0000 0.12034  0.00000  0.69541  Biso   1.000  Na
  Na36     1.0000 0.87966  0.00000  0.30459  Biso   1.000  Na
  Na37     1.0000 0.00000  0.30459  0.12034  Biso   1.000  Na
  Na38     1.0000 0.00000  0.69541  0.87966  Biso   1.000  Na
  Na39     1.0000 0.00000  0.30459  0.87966  Biso   1.000  Na
  Na40     1.0000 0.00000  0.69541  0.12034  Biso   1.000  Na
  Na41     1.0000 0.23054  0.00000  0.50000  Biso   1.000  Na
  Na42     1.0000 0.76946  0.00000  0.50000  Biso   1.000  Na
  Na43     1.0000 0.50000  0.23054  0.00000  Biso   1.000  Na
  Na44     1.0000 0.50000  0.76946  0.00000  Biso   1.000  Na
  Na45     1.0000 0.00000  0.50000  0.23054  Biso   1.000  Na
  Na46     1.0000 0.00000  0.50000  0.76946  Biso   1.000  Na
  Na47     1.0000 0.50000  0.73054  0.00000  Biso   1.000  Na
  Na48     1.0000 0.50000  0.26946  0.00000  Biso   1.000  Na
  Na49     1.0000 0.73054  0.00000  0.50000  Biso   1.000  Na
  Na50     1.0000 0.26946  0.00000  0.50000  Biso   1.000  Na
  Na51     1.0000 0.00000  0.50000  0.26946  Biso   1.000  Na
  Na52     1.0000 0.00000  0.50000  0.73054  Biso   1.000  Na
  N193     1.0000 0.26558  0.50000  0.34255  Biso   1.000  N
  C385     1.0000 0.29630  0.50000  0.32260  Biso   1.000  C
  C386     1.0000 0.33410  0.50000  0.29788  Biso   1.000  C
  N194     1.0000 0.73442  0.50000  0.34255  Biso   1.000  N
  C387     1.0000 0.70370  0.50000  0.32260  Biso   1.000  C
  C388     1.0000 0.66590  0.50000  0.29788  Biso   1.000  C
  N195     1.0000 0.73442  0.50000  0.65745  Biso   1.000  N
  C389     1.0000 0.70370  0.50000  0.67740  Biso   1.000  C
  C390     1.0000 0.66590  0.50000  0.70212  Biso   1.000  C
  N196     1.0000 0.26558  0.50000  0.65745  Biso   1.000  N
  C391     1.0000 0.29630  0.50000  0.67740  Biso   1.000  C
  C392     1.0000 0.33410  0.50000  0.70212  Biso   1.000  C
  N197     1.0000 0.34255  0.26558  0.50000  Biso   1.000  N
  C393     1.0000 0.32260  0.29630  0.50000  Biso   1.000  C
  C394     1.0000 0.29788  0.33410  0.50000  Biso   1.000  C
  N198     1.0000 0.34255  0.73442  0.50000  Biso   1.000  N
  C395     1.0000 0.32260  0.70370  0.50000  Biso   1.000  C
  C396     1.0000 0.29788  0.66590  0.50000  Biso   1.000  C
  N199     1.0000 0.65745  0.73442  0.50000  Biso   1.000  N
  C397     1.0000 0.67740  0.70370  0.50000  Biso   1.000  C
  C398     1.0000 0.70212  0.66590  0.50000  Biso   1.000  C
  N200     1.0000 0.65745  0.26558  0.50000  Biso   1.000  N
  C399     1.0000 0.67740  0.29630  0.50000  Biso   1.000  C
  C400     1.0000 0.70212  0.33410  0.50000  Biso   1.000  C
  N201     1.0000 0.50000  0.34255  0.26558  Biso   1.000  N
  C401     1.0000 0.50000  0.32260  0.29630  Biso   1.000  C
  C402     1.0000 0.50000  0.29788  0.33410  Biso   1.000  C
  N202     1.0000 0.50000  0.34255  0.73442  Biso   1.000  N
  C403     1.0000 0.50000  0.32260  0.70370  Biso   1.000  C
  C404     1.0000 0.50000  0.29788  0.66590  Biso   1.000  C
  N203     1.0000 0.50000  0.65745  0.73442  Biso   1.000  N
  C405     1.0000 0.50000  0.67740  0.70370  Biso   1.000  C
  C406     1.0000 0.50000  0.70212  0.66590  Biso   1.000  C
  N204     1.0000 0.50000  0.65745  0.26558  Biso   1.000  N
  C407     1.0000 0.50000  0.67740  0.29630  Biso   1.000  C
  C408     1.0000 0.50000  0.70212  0.33410  Biso   1.000  C
  N205     1.0000 0.00000  0.76558  0.15745  Biso   1.000  N
  C409     1.0000 0.00000  0.79630  0.17740  Biso   1.000  C
  C410     1.0000 0.00000  0.83410  0.20212  Biso   1.000  C
  N206     1.0000 0.00000  0.23442  0.15745  Biso   1.000  N
  C411     1.0000 0.00000  0.20370  0.17740  Biso   1.000  C
  C412     1.0000 0.00000  0.16590  0.20212  Biso   1.000  C
  N207     1.0000 0.00000  0.23442  0.84255  Biso   1.000  N
  C413     1.0000 0.00000  0.20370  0.82260  Biso   1.000  C
  C414     1.0000 0.00000  0.16590  0.79788  Biso   1.000  C
  N208     1.0000 0.00000  0.76558  0.84255  Biso   1.000  N
  C415     1.0000 0.00000  0.79630  0.82260  Biso   1.000  C
  C416     1.0000 0.00000  0.83410  0.79788  Biso   1.000  C
  N209     1.0000 0.76558  0.84255  0.00000  Biso   1.000  N
  C417     1.0000 0.79630  0.82260  0.00000  Biso   1.000  C
  C418     1.0000 0.83410  0.79788  0.00000  Biso   1.000  C
  N210     1.0000 0.23442  0.84255  0.00000  Biso   1.000  N
  C419     1.0000 0.20370  0.82260  0.00000  Biso   1.000  C
  C420     1.0000 0.16590  0.79788  0.00000  Biso   1.000  C
  N211     1.0000 0.23442  0.15745  0.00000  Biso   1.000  N
  C421     1.0000 0.20370  0.17740  0.00000  Biso   1.000  C
  C422     1.0000 0.16590  0.20212  0.00000  Biso   1.000  C
  N212     1.0000 0.76558  0.15745  0.00000  Biso   1.000  N
  C423     1.0000 0.79630  0.17740  0.00000  Biso   1.000  C
  C424     1.0000 0.83410  0.20212  0.00000  Biso   1.000  C
  N213     1.0000 0.84255  0.00000  0.23442  Biso   1.000  N
  C425     1.0000 0.82260  0.00000  0.20370  Biso   1.000  C
  C426     1.0000 0.79788  0.00000  0.16590  Biso   1.000  C
  N214     1.0000 0.84255  0.00000  0.76558  Biso   1.000  N
  C427     1.0000 0.82260  0.00000  0.79630  Biso   1.000  C
  C428     1.0000 0.79788  0.00000  0.83410  Biso   1.000  C
  N215     1.0000 0.15745  0.00000  0.76558  Biso   1.000  N
  C429     1.0000 0.17740  0.00000  0.79630  Biso   1.000  C
  C430     1.0000 0.20212  0.00000  0.83410  Biso   1.000  C
  N216     1.0000 0.15745  0.00000  0.23442  Biso   1.000  N
  C431     1.0000 0.17740  0.00000  0.20370  Biso   1.000  C
  C432     1.0000 0.20212  0.00000  0.16590  Biso   1.000  C
  N217     1.0000 0.25000  0.94808  0.44808  Biso   1.000  N
  C433     1.0000 0.25000  0.92239  0.42239  Biso   1.000  C
  C434     1.0000 0.25000  0.89012  0.39012  Biso   1.000  C
  N218     1.0000 0.75000  0.05192  0.44808  Biso   1.000  N
  C435     1.0000 0.75000  0.07761  0.42239  Biso   1.000  C
  C436     1.0000 0.75000  0.10988  0.39012  Biso   1.000  C
  N219     1.0000 0.75000  0.94808  0.55192  Biso   1.000  N
  C437     1.0000 0.75000  0.92239  0.57761  Biso   1.000  C
  C438     1.0000 0.75000  0.89012  0.60988  Biso   1.000  C
  N220     1.0000 0.25000  0.05192  0.55192  Biso   1.000  N
  C439     1.0000 0.25000  0.07761  0.57761  Biso   1.000  C
  C440     1.0000 0.25000  0.10988  0.60988  Biso   1.000  C
  N221     1.0000 0.44808  0.25000  0.94808  Biso   1.000  N
  C441     1.0000 0.42239  0.25000  0.92239  Biso   1.000  C
  C442     1.0000 0.39012  0.25000  0.89012  Biso   1.000  C
  N222     1.0000 0.44808  0.75000  0.05192  Biso   1.000  N
  C443     1.0000 0.42239  0.75000  0.07761  Biso   1.000  C
  C444     1.0000 0.39012  0.75000  0.10988  Biso   1.000  C
  N223     1.0000 0.55192  0.75000  0.94808  Biso   1.000  N
  C445     1.0000 0.57761  0.75000  0.92239  Biso   1.000  C
  C446     1.0000 0.60988  0.75000  0.89012  Biso   1.000  C
  N224     1.0000 0.55192  0.25000  0.05192  Biso   1.000  N
  C447     1.0000 0.57761  0.25000  0.07761  Biso   1.000  C
  C448     1.0000 0.60988  0.25000  0.10988  Biso   1.000  C
  N225     1.0000 0.94808  0.44808  0.25000  Biso   1.000  N
  C449     1.0000 0.92239  0.42239  0.25000  Biso   1.000  C
  C450     1.0000 0.89012  0.39012  0.25000  Biso   1.000  C
  N226     1.0000 0.05192  0.44808  0.75000  Biso   1.000  N
  C451     1.0000 0.07761  0.42239  0.75000  Biso   1.000  C
  C452     1.0000 0.10988  0.39012  0.75000  Biso   1.000  C
  N227     1.0000 0.94808  0.55192  0.75000  Biso   1.000  N
  C453     1.0000 0.92239  0.57761  0.75000  Biso   1.000  C
  C454     1.0000 0.89012  0.60988  0.75000  Biso   1.000  C
  N228     1.0000 0.05192  0.55192  0.25000  Biso   1.000  N
  C455     1.0000 0.07761  0.57761  0.25000  Biso   1.000  C
  C456     1.0000 0.10988  0.60988  0.25000  Biso   1.000  C
  N229     1.0000 0.75000  0.05192  0.55192  Biso   1.000  N
  C457     1.0000 0.75000  0.07761  0.57761  Biso   1.000  C
  C458     1.0000 0.75000  0.10988  0.60988  Biso   1.000  C
  N230     1.0000 0.25000  0.94808  0.55192  Biso   1.000  N
  C459     1.0000 0.25000  0.92239  0.57761  Biso   1.000  C
  C460     1.0000 0.25000  0.89012  0.60988  Biso   1.000  C
  N231     1.0000 0.25000  0.05192  0.44808  Biso   1.000  N
  C461     1.0000 0.25000  0.07761  0.42239  Biso   1.000  C
  C462     1.0000 0.25000  0.10988  0.39012  Biso   1.000  C
  N232     1.0000 0.75000  0.94808  0.44808  Biso   1.000  N
  C463     1.0000 0.75000  0.92239  0.42239  Biso   1.000  C
  C464     1.0000 0.75000  0.89012  0.39012  Biso   1.000  C
  N233     1.0000 0.55192  0.75000  0.05192  Biso   1.000  N
  C465     1.0000 0.57761  0.75000  0.07761  Biso   1.000  C
  C466     1.0000 0.60988  0.75000  0.10988  Biso   1.000  C
  N234     1.0000 0.55192  0.25000  0.94808  Biso   1.000  N
  C467     1.0000 0.57761  0.25000  0.92239  Biso   1.000  C
  C468     1.0000 0.60988  0.25000  0.89012  Biso   1.000  C
  N235     1.0000 0.44808  0.25000  0.05192  Biso   1.000  N
  C469     1.0000 0.42239  0.25000  0.07761  Biso   1.000  C
  C470     1.0000 0.39012  0.25000  0.10988  Biso   1.000  C
  N236     1.0000 0.44808  0.75000  0.94808  Biso   1.000  N
  C471     1.0000 0.42239  0.75000  0.92239  Biso   1.000  C
  C472     1.0000 0.39012  0.75000  0.89012  Biso   1.000  C
  N237     1.0000 0.05192  0.55192  0.75000  Biso   1.000  N
  C473     1.0000 0.07761  0.57761  0.75000  Biso   1.000  C
  C474     1.0000 0.10988  0.60988  0.75000  Biso   1.000  C
  N238     1.0000 0.94808  0.55192  0.25000  Biso   1.000  N
  C475     1.0000 0.92239  0.57761  0.25000  Biso   1.000  C
  C476     1.0000 0.89012  0.60988  0.25000  Biso   1.000  C
  N239     1.0000 0.05192  0.44808  0.25000  Biso   1.000  N
  C477     1.0000 0.07761  0.42239  0.25000  Biso   1.000  C
  C478     1.0000 0.10988  0.39012  0.25000  Biso   1.000  C
  N240     1.0000 0.94808  0.44808  0.75000  Biso   1.000  N
  C479     1.0000 0.92239  0.42239  0.75000  Biso   1.000  C
  C480     1.0000 0.89012  0.39012  0.75000  Biso   1.000  C
