data_image0
_cell_length_a       14.2118
_cell_length_b       14.2118
_cell_length_c       63.501
_cell_angle_alpha    90
_cell_angle_beta     90
_cell_angle_gamma    90

_symmetry_space_group_name_H-M    "P 1"
_symmetry_int_tables_number       1

loop_
  _symmetry_equiv_pos_as_xyz
  'x, y, z'

loop_
  _atom_site_label
  _atom_site_occupancy
  _atom_site_fract_x
  _atom_site_fract_y
  _atom_site_fract_z
  _atom_site_thermal_displace_type
  _atom_site_B_iso_or_equiv
  _atom_site_type_symbol
  Eu1      1.0000 0.22204  0.98080  0.43826  Biso   1.000  Eu
  O1       1.0000 0.37410  0.90900  0.46560  Biso   1.000  O
  O2       1.0000 0.21890  0.88340  0.46680  Biso   1.000  O
  O3       1.0000 0.09500  0.74450  0.53520  Biso   1.000  O
  O4       1.0000 0.12260  0.59510  0.52920  Biso   1.000  O
  O5       1.0000 0.04480  0.63150  0.57108  Biso   1.000  O
  O6       1.0000 0.11360  0.49770  0.56961  Biso   1.000  O
  O7       1.0000 0.13630  0.67860  0.67110  Biso   1.000  O
  O8       1.0000 0.00180  0.67680  0.65194  Biso   1.000  O
  O9       1.0000 0.07550  0.01180  0.45130  Biso   1.000  O
  C1       1.0000 0.31630  0.79220  0.49160  Biso   1.000  C
  C2       1.0000 0.39620  0.76270  0.49690  Biso   1.000  C
  H1       1.0000 0.44950  0.78480  0.49000  Biso   1.000  H
  C3       1.0000 0.40540  0.69640  0.51330  Biso   1.000  C
  H2       1.0000 0.46390  0.67100  0.51660  Biso   1.000  H
  C4       1.0000 0.32100  0.66790  0.52500  Biso   1.000  C
  C5       1.0000 0.23630  0.70750  0.51880  Biso   1.000  C
  C6       1.0000 0.23280  0.77210  0.50360  Biso   1.000  C
  H3       1.0000 0.17700  0.80380  0.50070  Biso   1.000  H
  C7       1.0000 0.33570  0.60360  0.54290  Biso   1.000  C
  C8       1.0000 0.37840  0.52010  0.54100  Biso   1.000  C
  H4       1.0000 0.40080  0.50150  0.52780  Biso   1.000  H
  C9       1.0000 0.39000  0.46150  0.55790  Biso   1.000  C
  H5       1.0000 0.42530  0.40680  0.55650  Biso   1.000  H
  C10      1.0000 0.35050  0.48300  0.57640  Biso   1.000  C
  H6       1.0000 0.35810  0.44140  0.58760  Biso   1.000  H
  C11      1.0000 0.29840  0.56420  0.57950  Biso   1.000  C
  C12      1.0000 0.29170  0.61780  0.56250  Biso   1.000  C
  H7       1.0000 0.25360  0.67080  0.56360  Biso   1.000  H
  C13      1.0000 0.24760  0.58450  0.59840  Biso   1.000  C
  C14      1.0000 0.29390  0.59970  0.61890  Biso   1.000  C
  H8       1.0000 0.35870  0.59360  0.62040  Biso   1.000  H
  C15      1.0000 0.23900  0.62270  0.63520  Biso   1.000  C
  H9       1.0000 0.26900  0.63050  0.64810  Biso   1.000  H
  C16      1.0000 0.14570  0.63570  0.63500  Biso   1.000  C
  C17      1.0000 0.09920  0.62220  0.61610  Biso   1.000  C
  H10      1.0000 0.03470  0.63220  0.61500  Biso   1.000  H
  C18      1.0000 0.15270  0.59280  0.59850  Biso   1.000  C
  C19      1.0000 0.30260  0.86830  0.47460  Biso   1.000  C
  C20      1.0000 0.14200  0.68130  0.52900  Biso   1.000  C
  C21      1.0000 0.09900  0.57190  0.57770  Biso   1.000  C
  C22      1.0000 0.09400  0.65910  0.65400  Biso   1.000  C
  Eu2      1.0000 0.72204  0.48080  0.93826  Biso   1.000  Eu
  O10      1.0000 0.87410  0.40900  0.96560  Biso   1.000  O
  O11      1.0000 0.71890  0.38340  0.96680  Biso   1.000  O
  O12      1.0000 0.59500  0.24450  0.03520  Biso   1.000  O
  O13      1.0000 0.62260  0.09510  0.02920  Biso   1.000  O
  O14      1.0000 0.54480  0.13150  0.07108  Biso   1.000  O
  O15      1.0000 0.61360  0.99770  0.06961  Biso   1.000  O
  O16      1.0000 0.63630  0.17860  0.17110  Biso   1.000  O
  O17      1.0000 0.50180  0.17680  0.15194  Biso   1.000  O
  O18      1.0000 0.57550  0.51180  0.95130  Biso   1.000  O
  C23      1.0000 0.81630  0.29220  0.99160  Biso   1.000  C
  C24      1.0000 0.89620  0.26270  0.99690  Biso   1.000  C
  H11      1.0000 0.94950  0.28480  0.99000  Biso   1.000  H
  C25      1.0000 0.90540  0.19640  0.01330  Biso   1.000  C
  H12      1.0000 0.96390  0.17100  0.01660  Biso   1.000  H
  C26      1.0000 0.82100  0.16790  0.02500  Biso   1.000  C
  C27      1.0000 0.73630  0.20750  0.01880  Biso   1.000  C
  C28      1.0000 0.73280  0.27210  0.00360  Biso   1.000  C
  H13      1.0000 0.67700  0.30380  0.00070  Biso   1.000  H
  C29      1.0000 0.83570  0.10360  0.04290  Biso   1.000  C
  C30      1.0000 0.87840  0.02010  0.04100  Biso   1.000  C
  H14      1.0000 0.90080  0.00150  0.02780  Biso   1.000  H
  C31      1.0000 0.89000  0.96150  0.05790  Biso   1.000  C
  H15      1.0000 0.92530  0.90680  0.05650  Biso   1.000  H
  C32      1.0000 0.85050  0.98300  0.07640  Biso   1.000  C
  H16      1.0000 0.85810  0.94140  0.08760  Biso   1.000  H
  C33      1.0000 0.79840  0.06420  0.07950  Biso   1.000  C
  C34      1.0000 0.79170  0.11780  0.06250  Biso   1.000  C
  H17      1.0000 0.75360  0.17080  0.06360  Biso   1.000  H
  C35      1.0000 0.74760  0.08450  0.09840  Biso   1.000  C
  C36      1.0000 0.79390  0.09970  0.11890  Biso   1.000  C
  H18      1.0000 0.85870  0.09360  0.12040  Biso   1.000  H
  C37      1.0000 0.73900  0.12270  0.13520  Biso   1.000  C
  H19      1.0000 0.76900  0.13050  0.14810  Biso   1.000  H
  C38      1.0000 0.64570  0.13570  0.13500  Biso   1.000  C
  C39      1.0000 0.59920  0.12220  0.11610  Biso   1.000  C
  H20      1.0000 0.53470  0.13220  0.11500  Biso   1.000  H
  C40      1.0000 0.65270  0.09280  0.09850  Biso   1.000  C
  C41      1.0000 0.80260  0.36830  0.97460  Biso   1.000  C
  C42      1.0000 0.64200  0.18130  0.02900  Biso   1.000  C
  C43      1.0000 0.59900  0.07190  0.07770  Biso   1.000  C
  C44      1.0000 0.59400  0.15910  0.15400  Biso   1.000  C
  Eu3      1.0000 0.77796  0.01920  0.43826  Biso   1.000  Eu
  O19      1.0000 0.62590  0.09100  0.46560  Biso   1.000  O
  O20      1.0000 0.78110  0.11660  0.46680  Biso   1.000  O
  O21      1.0000 0.90500  0.25550  0.53520  Biso   1.000  O
  O22      1.0000 0.87740  0.40490  0.52920  Biso   1.000  O
  O23      1.0000 0.95520  0.36850  0.57108  Biso   1.000  O
  O24      1.0000 0.88640  0.50230  0.56961  Biso   1.000  O
  O25      1.0000 0.86370  0.32140  0.67110  Biso   1.000  O
  O26      1.0000 0.99820  0.32320  0.65194  Biso   1.000  O
  O27      1.0000 0.92450  0.98820  0.45130  Biso   1.000  O
  C45      1.0000 0.68370  0.20780  0.49160  Biso   1.000  C
  C46      1.0000 0.60380  0.23730  0.49690  Biso   1.000  C
  H21      1.0000 0.55050  0.21520  0.49000  Biso   1.000  H
  C47      1.0000 0.59460  0.30360  0.51330  Biso   1.000  C
  H22      1.0000 0.53610  0.32900  0.51660  Biso   1.000  H
  C48      1.0000 0.67900  0.33210  0.52500  Biso   1.000  C
  C49      1.0000 0.76370  0.29250  0.51880  Biso   1.000  C
  C50      1.0000 0.76720  0.22790  0.50360  Biso   1.000  C
  H23      1.0000 0.82300  0.19620  0.50070  Biso   1.000  H
  C51      1.0000 0.66430  0.39640  0.54290  Biso   1.000  C
  C52      1.0000 0.62160  0.47990  0.54100  Biso   1.000  C
  H24      1.0000 0.59920  0.49850  0.52780  Biso   1.000  H
  C53      1.0000 0.61000  0.53850  0.55790  Biso   1.000  C
  H25      1.0000 0.57470  0.59320  0.55650  Biso   1.000  H
  C54      1.0000 0.64950  0.51700  0.57640  Biso   1.000  C
  H26      1.0000 0.64190  0.55860  0.58760  Biso   1.000  H
  C55      1.0000 0.70160  0.43580  0.57950  Biso   1.000  C
  C56      1.0000 0.70830  0.38220  0.56250  Biso   1.000  C
  H27      1.0000 0.74640  0.32920  0.56360  Biso   1.000  H
  C57      1.0000 0.75240  0.41550  0.59840  Biso   1.000  C
  C58      1.0000 0.70610  0.40030  0.61890  Biso   1.000  C
  H28      1.0000 0.64130  0.40640  0.62040  Biso   1.000  H
  C59      1.0000 0.76100  0.37730  0.63520  Biso   1.000  C
  H29      1.0000 0.73100  0.36950  0.64810  Biso   1.000  H
  C60      1.0000 0.85430  0.36430  0.63500  Biso   1.000  C
  C61      1.0000 0.90080  0.37780  0.61610  Biso   1.000  C
  H30      1.0000 0.96530  0.36780  0.61500  Biso   1.000  H
  C62      1.0000 0.84730  0.40720  0.59850  Biso   1.000  C
  C63      1.0000 0.69740  0.13170  0.47460  Biso   1.000  C
  C64      1.0000 0.85800  0.31870  0.52900  Biso   1.000  C
  C65      1.0000 0.90100  0.42810  0.57770  Biso   1.000  C
  C66      1.0000 0.90600  0.34090  0.65400  Biso   1.000  C
  Eu4      1.0000 0.27796  0.51920  0.93826  Biso   1.000  Eu
  O28      1.0000 0.12590  0.59100  0.96560  Biso   1.000  O
  O29      1.0000 0.28110  0.61660  0.96680  Biso   1.000  O
  O30      1.0000 0.40500  0.75550  0.03520  Biso   1.000  O
  O31      1.0000 0.37740  0.90490  0.02920  Biso   1.000  O
  O32      1.0000 0.45520  0.86850  0.07108  Biso   1.000  O
  O33      1.0000 0.38640  0.00230  0.06961  Biso   1.000  O
  O34      1.0000 0.36370  0.82140  0.17110  Biso   1.000  O
  O35      1.0000 0.49820  0.82320  0.15194  Biso   1.000  O
  O36      1.0000 0.42450  0.48820  0.95130  Biso   1.000  O
  C67      1.0000 0.18370  0.70780  0.99160  Biso   1.000  C
  C68      1.0000 0.10380  0.73730  0.99690  Biso   1.000  C
  H31      1.0000 0.05050  0.71520  0.99000  Biso   1.000  H
  C69      1.0000 0.09460  0.80360  0.01330  Biso   1.000  C
  H32      1.0000 0.03610  0.82900  0.01660  Biso   1.000  H
  C70      1.0000 0.17900  0.83210  0.02500  Biso   1.000  C
  C71      1.0000 0.26370  0.79250  0.01880  Biso   1.000  C
  C72      1.0000 0.26720  0.72790  0.00360  Biso   1.000  C
  H33      1.0000 0.32300  0.69620  0.00070  Biso   1.000  H
  C73      1.0000 0.16430  0.89640  0.04290  Biso   1.000  C
  C74      1.0000 0.12160  0.97990  0.04100  Biso   1.000  C
  H34      1.0000 0.09920  0.99850  0.02780  Biso   1.000  H
  C75      1.0000 0.11000  0.03850  0.05790  Biso   1.000  C
  H35      1.0000 0.07470  0.09320  0.05650  Biso   1.000  H
  C76      1.0000 0.14950  0.01700  0.07640  Biso   1.000  C
  H36      1.0000 0.14190  0.05860  0.08760  Biso   1.000  H
  C77      1.0000 0.20160  0.93580  0.07950  Biso   1.000  C
  C78      1.0000 0.20830  0.88220  0.06250  Biso   1.000  C
  H37      1.0000 0.24640  0.82920  0.06360  Biso   1.000  H
  C79      1.0000 0.25240  0.91550  0.09840  Biso   1.000  C
  C80      1.0000 0.20610  0.90030  0.11890  Biso   1.000  C
  H38      1.0000 0.14130  0.90640  0.12040  Biso   1.000  H
  C81      1.0000 0.26100  0.87730  0.13520  Biso   1.000  C
  H39      1.0000 0.23100  0.86950  0.14810  Biso   1.000  H
  C82      1.0000 0.35430  0.86430  0.13500  Biso   1.000  C
  C83      1.0000 0.40080  0.87780  0.11610  Biso   1.000  C
  H40      1.0000 0.46530  0.86780  0.11500  Biso   1.000  H
  C84      1.0000 0.34730  0.90720  0.09850  Biso   1.000  C
  C85      1.0000 0.19740  0.63170  0.97460  Biso   1.000  C
  C86      1.0000 0.35800  0.81870  0.02900  Biso   1.000  C
  C87      1.0000 0.40100  0.92810  0.07770  Biso   1.000  C
  C88      1.0000 0.40600  0.84090  0.15400  Biso   1.000  C
  Eu5      1.0000 0.98080  0.77796  0.56174  Biso   1.000  Eu
  O37      1.0000 0.90900  0.62590  0.53440  Biso   1.000  O
  O38      1.0000 0.88340  0.78110  0.53320  Biso   1.000  O
  O39      1.0000 0.74450  0.90500  0.46480  Biso   1.000  O
  O40      1.0000 0.59510  0.87740  0.47080  Biso   1.000  O
  O41      1.0000 0.63150  0.95520  0.42892  Biso   1.000  O
  O42      1.0000 0.49770  0.88640  0.43039  Biso   1.000  O
  O43      1.0000 0.67860  0.86370  0.32890  Biso   1.000  O
  O44      1.0000 0.67680  0.99820  0.34806  Biso   1.000  O
  O45      1.0000 0.01180  0.92450  0.54870  Biso   1.000  O
  C89      1.0000 0.79220  0.68370  0.50840  Biso   1.000  C
  C90      1.0000 0.76270  0.60380  0.50310  Biso   1.000  C
  H41      1.0000 0.78480  0.55050  0.51000  Biso   1.000  H
  C91      1.0000 0.69640  0.59460  0.48670  Biso   1.000  C
  H42      1.0000 0.67100  0.53610  0.48340  Biso   1.000  H
  C92      1.0000 0.66790  0.67900  0.47500  Biso   1.000  C
  C93      1.0000 0.70750  0.76370  0.48120  Biso   1.000  C
  C94      1.0000 0.77210  0.76720  0.49640  Biso   1.000  C
  H43      1.0000 0.80380  0.82300  0.49930  Biso   1.000  H
  C95      1.0000 0.60360  0.66430  0.45710  Biso   1.000  C
  C96      1.0000 0.52010  0.62160  0.45900  Biso   1.000  C
  H44      1.0000 0.50150  0.59920  0.47220  Biso   1.000  H
  C97      1.0000 0.46150  0.61000  0.44210  Biso   1.000  C
  H45      1.0000 0.40680  0.57470  0.44350  Biso   1.000  H
  C98      1.0000 0.48300  0.64950  0.42360  Biso   1.000  C
  H46      1.0000 0.44140  0.64190  0.41240  Biso   1.000  H
  C99      1.0000 0.56420  0.70160  0.42050  Biso   1.000  C
  C100     1.0000 0.61780  0.70830  0.43750  Biso   1.000  C
  H47      1.0000 0.67080  0.74640  0.43640  Biso   1.000  H
  C101     1.0000 0.58450  0.75240  0.40160  Biso   1.000  C
  C102     1.0000 0.59970  0.70610  0.38110  Biso   1.000  C
  H48      1.0000 0.59360  0.64130  0.37960  Biso   1.000  H
  C103     1.0000 0.62270  0.76100  0.36480  Biso   1.000  C
  H49      1.0000 0.63050  0.73100  0.35190  Biso   1.000  H
  C104     1.0000 0.63570  0.85430  0.36500  Biso   1.000  C
  C105     1.0000 0.62220  0.90080  0.38390  Biso   1.000  C
  H50      1.0000 0.63220  0.96530  0.38500  Biso   1.000  H
  C106     1.0000 0.59280  0.84730  0.40150  Biso   1.000  C
  C107     1.0000 0.86830  0.69740  0.52540  Biso   1.000  C
  C108     1.0000 0.68130  0.85800  0.47100  Biso   1.000  C
  C109     1.0000 0.57190  0.90100  0.42230  Biso   1.000  C
  C110     1.0000 0.65910  0.90600  0.34600  Biso   1.000  C
  Eu6      1.0000 0.48080  0.27796  0.06174  Biso   1.000  Eu
  O46      1.0000 0.40900  0.12590  0.03440  Biso   1.000  O
  O47      1.0000 0.38340  0.28110  0.03320  Biso   1.000  O
  O48      1.0000 0.24450  0.40500  0.96480  Biso   1.000  O
  O49      1.0000 0.09510  0.37740  0.97080  Biso   1.000  O
  O50      1.0000 0.13150  0.45520  0.92892  Biso   1.000  O
  O51      1.0000 0.99770  0.38640  0.93039  Biso   1.000  O
  O52      1.0000 0.17860  0.36370  0.82890  Biso   1.000  O
  O53      1.0000 0.17680  0.49820  0.84806  Biso   1.000  O
  O54      1.0000 0.51180  0.42450  0.04870  Biso   1.000  O
  C111     1.0000 0.29220  0.18370  0.00840  Biso   1.000  C
  C112     1.0000 0.26270  0.10380  0.00310  Biso   1.000  C
  H51      1.0000 0.28480  0.05050  0.01000  Biso   1.000  H
  C113     1.0000 0.19640  0.09460  0.98670  Biso   1.000  C
  H52      1.0000 0.17100  0.03610  0.98340  Biso   1.000  H
  C114     1.0000 0.16790  0.17900  0.97500  Biso   1.000  C
  C115     1.0000 0.20750  0.26370  0.98120  Biso   1.000  C
  C116     1.0000 0.27210  0.26720  0.99640  Biso   1.000  C
  H53      1.0000 0.30380  0.32300  0.99930  Biso   1.000  H
  C117     1.0000 0.10360  0.16430  0.95710  Biso   1.000  C
  C118     1.0000 0.02010  0.12160  0.95900  Biso   1.000  C
  H54      1.0000 0.00150  0.09920  0.97220  Biso   1.000  H
  C119     1.0000 0.96150  0.11000  0.94210  Biso   1.000  C
  H55      1.0000 0.90680  0.07470  0.94350  Biso   1.000  H
  C120     1.0000 0.98300  0.14950  0.92360  Biso   1.000  C
  H56      1.0000 0.94140  0.14190  0.91240  Biso   1.000  H
  C121     1.0000 0.06420  0.20160  0.92050  Biso   1.000  C
  C122     1.0000 0.11780  0.20830  0.93750  Biso   1.000  C
  H57      1.0000 0.17080  0.24640  0.93640  Biso   1.000  H
  C123     1.0000 0.08450  0.25240  0.90160  Biso   1.000  C
  C124     1.0000 0.09970  0.20610  0.88110  Biso   1.000  C
  H58      1.0000 0.09360  0.14130  0.87960  Biso   1.000  H
  C125     1.0000 0.12270  0.26100  0.86480  Biso   1.000  C
  H59      1.0000 0.13050  0.23100  0.85190  Biso   1.000  H
  C126     1.0000 0.13570  0.35430  0.86500  Biso   1.000  C
  C127     1.0000 0.12220  0.40080  0.88390  Biso   1.000  C
  H60      1.0000 0.13220  0.46530  0.88500  Biso   1.000  H
  C128     1.0000 0.09280  0.34730  0.90150  Biso   1.000  C
  C129     1.0000 0.36830  0.19740  0.02540  Biso   1.000  C
  C130     1.0000 0.18130  0.35800  0.97100  Biso   1.000  C
  C131     1.0000 0.07190  0.40100  0.92230  Biso   1.000  C
  C132     1.0000 0.15910  0.40600  0.84600  Biso   1.000  C
  Eu7      1.0000 0.01920  0.22204  0.56174  Biso   1.000  Eu
  O55      1.0000 0.09100  0.37410  0.53440  Biso   1.000  O
  O56      1.0000 0.11660  0.21890  0.53320  Biso   1.000  O
  O57      1.0000 0.25550  0.09500  0.46480  Biso   1.000  O
  O58      1.0000 0.40490  0.12260  0.47080  Biso   1.000  O
  O59      1.0000 0.36850  0.04480  0.42892  Biso   1.000  O
  O60      1.0000 0.50230  0.11360  0.43039  Biso   1.000  O
  O61      1.0000 0.32140  0.13630  0.32890  Biso   1.000  O
  O62      1.0000 0.32320  0.00180  0.34806  Biso   1.000  O
  O63      1.0000 0.98820  0.07550  0.54870  Biso   1.000  O
  C133     1.0000 0.20780  0.31630  0.50840  Biso   1.000  C
  C134     1.0000 0.23730  0.39620  0.50310  Biso   1.000  C
  H61      1.0000 0.21520  0.44950  0.51000  Biso   1.000  H
  C135     1.0000 0.30360  0.40540  0.48670  Biso   1.000  C
  H62      1.0000 0.32900  0.46390  0.48340  Biso   1.000  H
  C136     1.0000 0.33210  0.32100  0.47500  Biso   1.000  C
  C137     1.0000 0.29250  0.23630  0.48120  Biso   1.000  C
  C138     1.0000 0.22790  0.23280  0.49640  Biso   1.000  C
  H63      1.0000 0.19620  0.17700  0.49930  Biso   1.000  H
  C139     1.0000 0.39640  0.33570  0.45710  Biso   1.000  C
  C140     1.0000 0.47990  0.37840  0.45900  Biso   1.000  C
  H64      1.0000 0.49850  0.40080  0.47220  Biso   1.000  H
  C141     1.0000 0.53850  0.39000  0.44210  Biso   1.000  C
  H65      1.0000 0.59320  0.42530  0.44350  Biso   1.000  H
  C142     1.0000 0.51700  0.35050  0.42360  Biso   1.000  C
  H66      1.0000 0.55860  0.35810  0.41240  Biso   1.000  H
  C143     1.0000 0.43580  0.29840  0.42050  Biso   1.000  C
  C144     1.0000 0.38220  0.29170  0.43750  Biso   1.000  C
  H67      1.0000 0.32920  0.25360  0.43640  Biso   1.000  H
  C145     1.0000 0.41550  0.24760  0.40160  Biso   1.000  C
  C146     1.0000 0.40030  0.29390  0.38110  Biso   1.000  C
  H68      1.0000 0.40640  0.35870  0.37960  Biso   1.000  H
  C147     1.0000 0.37730  0.23900  0.36480  Biso   1.000  C
  H69      1.0000 0.36950  0.26900  0.35190  Biso   1.000  H
  C148     1.0000 0.36430  0.14570  0.36500  Biso   1.000  C
  C149     1.0000 0.37780  0.09920  0.38390  Biso   1.000  C
  H70      1.0000 0.36780  0.03470  0.38500  Biso   1.000  H
  C150     1.0000 0.40720  0.15270  0.40150  Biso   1.000  C
  C151     1.0000 0.13170  0.30260  0.52540  Biso   1.000  C
  C152     1.0000 0.31870  0.14200  0.47100  Biso   1.000  C
  C153     1.0000 0.42810  0.09900  0.42230  Biso   1.000  C
  C154     1.0000 0.34090  0.09400  0.34600  Biso   1.000  C
  Eu8      1.0000 0.51920  0.72204  0.06174  Biso   1.000  Eu
  O64      1.0000 0.59100  0.87410  0.03440  Biso   1.000  O
  O65      1.0000 0.61660  0.71890  0.03320  Biso   1.000  O
  O66      1.0000 0.75550  0.59500  0.96480  Biso   1.000  O
  O67      1.0000 0.90490  0.62260  0.97080  Biso   1.000  O
  O68      1.0000 0.86850  0.54480  0.92892  Biso   1.000  O
  O69      1.0000 0.00230  0.61360  0.93039  Biso   1.000  O
  O70      1.0000 0.82140  0.63630  0.82890  Biso   1.000  O
  O71      1.0000 0.82320  0.50180  0.84806  Biso   1.000  O
  O72      1.0000 0.48820  0.57550  0.04870  Biso   1.000  O
  C155     1.0000 0.70780  0.81630  0.00840  Biso   1.000  C
  C156     1.0000 0.73730  0.89620  0.00310  Biso   1.000  C
  H71      1.0000 0.71520  0.94950  0.01000  Biso   1.000  H
  C157     1.0000 0.80360  0.90540  0.98670  Biso   1.000  C
  H72      1.0000 0.82900  0.96390  0.98340  Biso   1.000  H
  C158     1.0000 0.83210  0.82100  0.97500  Biso   1.000  C
  C159     1.0000 0.79250  0.73630  0.98120  Biso   1.000  C
  C160     1.0000 0.72790  0.73280  0.99640  Biso   1.000  C
  H73      1.0000 0.69620  0.67700  0.99930  Biso   1.000  H
  C161     1.0000 0.89640  0.83570  0.95710  Biso   1.000  C
  C162     1.0000 0.97990  0.87840  0.95900  Biso   1.000  C
  H74      1.0000 0.99850  0.90080  0.97220  Biso   1.000  H
  C163     1.0000 0.03850  0.89000  0.94210  Biso   1.000  C
  H75      1.0000 0.09320  0.92530  0.94350  Biso   1.000  H
  C164     1.0000 0.01700  0.85050  0.92360  Biso   1.000  C
  H76      1.0000 0.05860  0.85810  0.91240  Biso   1.000  H
  C165     1.0000 0.93580  0.79840  0.92050  Biso   1.000  C
  C166     1.0000 0.88220  0.79170  0.93750  Biso   1.000  C
  H77      1.0000 0.82920  0.75360  0.93640  Biso   1.000  H
  C167     1.0000 0.91550  0.74760  0.90160  Biso   1.000  C
  C168     1.0000 0.90030  0.79390  0.88110  Biso   1.000  C
  H78      1.0000 0.90640  0.85870  0.87960  Biso   1.000  H
  C169     1.0000 0.87730  0.73900  0.86480  Biso   1.000  C
  H79      1.0000 0.86950  0.76900  0.85190  Biso   1.000  H
  C170     1.0000 0.86430  0.64570  0.86500  Biso   1.000  C
  C171     1.0000 0.87780  0.59920  0.88390  Biso   1.000  C
  H80      1.0000 0.86780  0.53470  0.88500  Biso   1.000  H
  C172     1.0000 0.90720  0.65270  0.90150  Biso   1.000  C
  C173     1.0000 0.63170  0.80260  0.02540  Biso   1.000  C
  C174     1.0000 0.81870  0.64200  0.97100  Biso   1.000  C
  C175     1.0000 0.92810  0.59900  0.92230  Biso   1.000  C
  C176     1.0000 0.84090  0.59400  0.84600  Biso   1.000  C
  Eu9      1.0000 0.27796  0.98080  0.31174  Biso   1.000  Eu
  O73      1.0000 0.12590  0.90900  0.28440  Biso   1.000  O
  O74      1.0000 0.28110  0.88340  0.28320  Biso   1.000  O
  O75      1.0000 0.40500  0.74450  0.21480  Biso   1.000  O
  O76      1.0000 0.37740  0.59510  0.22080  Biso   1.000  O
  O77      1.0000 0.45520  0.63150  0.17892  Biso   1.000  O
  O78      1.0000 0.38640  0.49770  0.18039  Biso   1.000  O
  O79      1.0000 0.36370  0.67860  0.07890  Biso   1.000  O
  O80      1.0000 0.49820  0.67680  0.09806  Biso   1.000  O
  O81      1.0000 0.42450  0.01180  0.29870  Biso   1.000  O
  C177     1.0000 0.18370  0.79220  0.25840  Biso   1.000  C
  C178     1.0000 0.10380  0.76270  0.25310  Biso   1.000  C
  H81      1.0000 0.05050  0.78480  0.26000  Biso   1.000  H
  C179     1.0000 0.09460  0.69640  0.23670  Biso   1.000  C
  H82      1.0000 0.03610  0.67100  0.23340  Biso   1.000  H
  C180     1.0000 0.17900  0.66790  0.22500  Biso   1.000  C
  C181     1.0000 0.26370  0.70750  0.23120  Biso   1.000  C
  C182     1.0000 0.26720  0.77210  0.24640  Biso   1.000  C
  H83      1.0000 0.32300  0.80380  0.24930  Biso   1.000  H
  C183     1.0000 0.16430  0.60360  0.20710  Biso   1.000  C
  C184     1.0000 0.12160  0.52010  0.20900  Biso   1.000  C
  H84      1.0000 0.09920  0.50150  0.22220  Biso   1.000  H
  C185     1.0000 0.11000  0.46150  0.19210  Biso   1.000  C
  H85      1.0000 0.07470  0.40680  0.19350  Biso   1.000  H
  C186     1.0000 0.14950  0.48300  0.17360  Biso   1.000  C
  H86      1.0000 0.14190  0.44140  0.16240  Biso   1.000  H
  C187     1.0000 0.20160  0.56420  0.17050  Biso   1.000  C
  C188     1.0000 0.20830  0.61780  0.18750  Biso   1.000  C
  H87      1.0000 0.24640  0.67080  0.18640  Biso   1.000  H
  C189     1.0000 0.25240  0.58450  0.15160  Biso   1.000  C
  C190     1.0000 0.20610  0.59970  0.13110  Biso   1.000  C
  H88      1.0000 0.14130  0.59360  0.12960  Biso   1.000  H
  C191     1.0000 0.26100  0.62270  0.11480  Biso   1.000  C
  H89      1.0000 0.23100  0.63050  0.10190  Biso   1.000  H
  C192     1.0000 0.35430  0.63570  0.11500  Biso   1.000  C
  C193     1.0000 0.40080  0.62220  0.13390  Biso   1.000  C
  H90      1.0000 0.46530  0.63220  0.13500  Biso   1.000  H
  C194     1.0000 0.34730  0.59280  0.15150  Biso   1.000  C
  C195     1.0000 0.19740  0.86830  0.27540  Biso   1.000  C
  C196     1.0000 0.35800  0.68130  0.22100  Biso   1.000  C
  C197     1.0000 0.40100  0.57190  0.17230  Biso   1.000  C
  C198     1.0000 0.40600  0.65910  0.09600  Biso   1.000  C
  Eu10     1.0000 0.77796  0.48080  0.81174  Biso   1.000  Eu
  O82      1.0000 0.62590  0.40900  0.78440  Biso   1.000  O
  O83      1.0000 0.78110  0.38340  0.78320  Biso   1.000  O
  O84      1.0000 0.90500  0.24450  0.71480  Biso   1.000  O
  O85      1.0000 0.87740  0.09510  0.72080  Biso   1.000  O
  O86      1.0000 0.95520  0.13150  0.67892  Biso   1.000  O
  O87      1.0000 0.88640  0.99770  0.68039  Biso   1.000  O
  O88      1.0000 0.86370  0.17860  0.57890  Biso   1.000  O
  O89      1.0000 0.99820  0.17680  0.59806  Biso   1.000  O
  O90      1.0000 0.92450  0.51180  0.79870  Biso   1.000  O
  C199     1.0000 0.68370  0.29220  0.75840  Biso   1.000  C
  C200     1.0000 0.60380  0.26270  0.75310  Biso   1.000  C
  H91      1.0000 0.55050  0.28480  0.76000  Biso   1.000  H
  C201     1.0000 0.59460  0.19640  0.73670  Biso   1.000  C
  H92      1.0000 0.53610  0.17100  0.73340  Biso   1.000  H
  C202     1.0000 0.67900  0.16790  0.72500  Biso   1.000  C
  C203     1.0000 0.76370  0.20750  0.73120  Biso   1.000  C
  C204     1.0000 0.76720  0.27210  0.74640  Biso   1.000  C
  H93      1.0000 0.82300  0.30380  0.74930  Biso   1.000  H
  C205     1.0000 0.66430  0.10360  0.70710  Biso   1.000  C
  C206     1.0000 0.62160  0.02010  0.70900  Biso   1.000  C
  H94      1.0000 0.59920  0.00150  0.72220  Biso   1.000  H
  C207     1.0000 0.61000  0.96150  0.69210  Biso   1.000  C
  H95      1.0000 0.57470  0.90680  0.69350  Biso   1.000  H
  C208     1.0000 0.64950  0.98300  0.67360  Biso   1.000  C
  H96      1.0000 0.64190  0.94140  0.66240  Biso   1.000  H
  C209     1.0000 0.70160  0.06420  0.67050  Biso   1.000  C
  C210     1.0000 0.70830  0.11780  0.68750  Biso   1.000  C
  H97      1.0000 0.74640  0.17080  0.68640  Biso   1.000  H
  C211     1.0000 0.75240  0.08450  0.65160  Biso   1.000  C
  C212     1.0000 0.70610  0.09970  0.63110  Biso   1.000  C
  H98      1.0000 0.64130  0.09360  0.62960  Biso   1.000  H
  C213     1.0000 0.76100  0.12270  0.61480  Biso   1.000  C
  H99      1.0000 0.73100  0.13050  0.60190  Biso   1.000  H
  C214     1.0000 0.85430  0.13570  0.61500  Biso   1.000  C
  C215     1.0000 0.90080  0.12220  0.63390  Biso   1.000  C
  H100     1.0000 0.96530  0.13220  0.63500  Biso   1.000  H
  C216     1.0000 0.84730  0.09280  0.65150  Biso   1.000  C
  C217     1.0000 0.69740  0.36830  0.77540  Biso   1.000  C
  C218     1.0000 0.85800  0.18130  0.72100  Biso   1.000  C
  C219     1.0000 0.90100  0.07190  0.67230  Biso   1.000  C
  C220     1.0000 0.90600  0.15910  0.59600  Biso   1.000  C
  Eu11     1.0000 0.72204  0.01920  0.31174  Biso   1.000  Eu
  O91      1.0000 0.87410  0.09100  0.28440  Biso   1.000  O
  O92      1.0000 0.71890  0.11660  0.28320  Biso   1.000  O
  O93      1.0000 0.59500  0.25550  0.21480  Biso   1.000  O
  O94      1.0000 0.62260  0.40490  0.22080  Biso   1.000  O
  O95      1.0000 0.54480  0.36850  0.17892  Biso   1.000  O
  O96      1.0000 0.61360  0.50230  0.18039  Biso   1.000  O
  O97      1.0000 0.63630  0.32140  0.07890  Biso   1.000  O
  O98      1.0000 0.50180  0.32320  0.09806  Biso   1.000  O
  O99      1.0000 0.57550  0.98820  0.29870  Biso   1.000  O
  C221     1.0000 0.81630  0.20780  0.25840  Biso   1.000  C
  C222     1.0000 0.89620  0.23730  0.25310  Biso   1.000  C
  H101     1.0000 0.94950  0.21520  0.26000  Biso   1.000  H
  C223     1.0000 0.90540  0.30360  0.23670  Biso   1.000  C
  H102     1.0000 0.96390  0.32900  0.23340  Biso   1.000  H
  C224     1.0000 0.82100  0.33210  0.22500  Biso   1.000  C
  C225     1.0000 0.73630  0.29250  0.23120  Biso   1.000  C
  C226     1.0000 0.73280  0.22790  0.24640  Biso   1.000  C
  H103     1.0000 0.67700  0.19620  0.24930  Biso   1.000  H
  C227     1.0000 0.83570  0.39640  0.20710  Biso   1.000  C
  C228     1.0000 0.87840  0.47990  0.20900  Biso   1.000  C
  H104     1.0000 0.90080  0.49850  0.22220  Biso   1.000  H
  C229     1.0000 0.89000  0.53850  0.19210  Biso   1.000  C
  H105     1.0000 0.92530  0.59320  0.19350  Biso   1.000  H
  C230     1.0000 0.85050  0.51700  0.17360  Biso   1.000  C
  H106     1.0000 0.85810  0.55860  0.16240  Biso   1.000  H
  C231     1.0000 0.79840  0.43580  0.17050  Biso   1.000  C
  C232     1.0000 0.79170  0.38220  0.18750  Biso   1.000  C
  H107     1.0000 0.75360  0.32920  0.18640  Biso   1.000  H
  C233     1.0000 0.74760  0.41550  0.15160  Biso   1.000  C
  C234     1.0000 0.79390  0.40030  0.13110  Biso   1.000  C
  H108     1.0000 0.85870  0.40640  0.12960  Biso   1.000  H
  C235     1.0000 0.73900  0.37730  0.11480  Biso   1.000  C
  H109     1.0000 0.76900  0.36950  0.10190  Biso   1.000  H
  C236     1.0000 0.64570  0.36430  0.11500  Biso   1.000  C
  C237     1.0000 0.59920  0.37780  0.13390  Biso   1.000  C
  H110     1.0000 0.53470  0.36780  0.13500  Biso   1.000  H
  C238     1.0000 0.65270  0.40720  0.15150  Biso   1.000  C
  C239     1.0000 0.80260  0.13170  0.27540  Biso   1.000  C
  C240     1.0000 0.64200  0.31870  0.22100  Biso   1.000  C
  C241     1.0000 0.59900  0.42810  0.17230  Biso   1.000  C
  C242     1.0000 0.59400  0.34090  0.09600  Biso   1.000  C
  Eu12     1.0000 0.22204  0.51920  0.81174  Biso   1.000  Eu
  O100     1.0000 0.37410  0.59100  0.78440  Biso   1.000  O
  O101     1.0000 0.21890  0.61660  0.78320  Biso   1.000  O
  O102     1.0000 0.09500  0.75550  0.71480  Biso   1.000  O
  O103     1.0000 0.12260  0.90490  0.72080  Biso   1.000  O
  O104     1.0000 0.04480  0.86850  0.67892  Biso   1.000  O
  O105     1.0000 0.11360  0.00230  0.68039  Biso   1.000  O
  O106     1.0000 0.13630  0.82140  0.57890  Biso   1.000  O
  O107     1.0000 0.00180  0.82320  0.59806  Biso   1.000  O
  O108     1.0000 0.07550  0.48820  0.79870  Biso   1.000  O
  C243     1.0000 0.31630  0.70780  0.75840  Biso   1.000  C
  C244     1.0000 0.39620  0.73730  0.75310  Biso   1.000  C
  H111     1.0000 0.44950  0.71520  0.76000  Biso   1.000  H
  C245     1.0000 0.40540  0.80360  0.73670  Biso   1.000  C
  H112     1.0000 0.46390  0.82900  0.73340  Biso   1.000  H
  C246     1.0000 0.32100  0.83210  0.72500  Biso   1.000  C
  C247     1.0000 0.23630  0.79250  0.73120  Biso   1.000  C
  C248     1.0000 0.23280  0.72790  0.74640  Biso   1.000  C
  H113     1.0000 0.17700  0.69620  0.74930  Biso   1.000  H
  C249     1.0000 0.33570  0.89640  0.70710  Biso   1.000  C
  C250     1.0000 0.37840  0.97990  0.70900  Biso   1.000  C
  H114     1.0000 0.40080  0.99850  0.72220  Biso   1.000  H
  C251     1.0000 0.39000  0.03850  0.69210  Biso   1.000  C
  H115     1.0000 0.42530  0.09320  0.69350  Biso   1.000  H
  C252     1.0000 0.35050  0.01700  0.67360  Biso   1.000  C
  H116     1.0000 0.35810  0.05860  0.66240  Biso   1.000  H
  C253     1.0000 0.29840  0.93580  0.67050  Biso   1.000  C
  C254     1.0000 0.29170  0.88220  0.68750  Biso   1.000  C
  H117     1.0000 0.25360  0.82920  0.68640  Biso   1.000  H
  C255     1.0000 0.24760  0.91550  0.65160  Biso   1.000  C
  C256     1.0000 0.29390  0.90030  0.63110  Biso   1.000  C
  H118     1.0000 0.35870  0.90640  0.62960  Biso   1.000  H
  C257     1.0000 0.23900  0.87730  0.61480  Biso   1.000  C
  H119     1.0000 0.26900  0.86950  0.60190  Biso   1.000  H
  C258     1.0000 0.14570  0.86430  0.61500  Biso   1.000  C
  C259     1.0000 0.09920  0.87780  0.63390  Biso   1.000  C
  H120     1.0000 0.03470  0.86780  0.63500  Biso   1.000  H
  C260     1.0000 0.15270  0.90720  0.65150  Biso   1.000  C
  C261     1.0000 0.30260  0.63170  0.77540  Biso   1.000  C
  C262     1.0000 0.14200  0.81870  0.72100  Biso   1.000  C
  C263     1.0000 0.09900  0.92810  0.67230  Biso   1.000  C
  C264     1.0000 0.09400  0.84090  0.59600  Biso   1.000  C
  Eu13     1.0000 0.51920  0.77796  0.18826  Biso   1.000  Eu
  O109     1.0000 0.59100  0.62590  0.21560  Biso   1.000  O
  O110     1.0000 0.61660  0.78110  0.21680  Biso   1.000  O
  O111     1.0000 0.75550  0.90500  0.28520  Biso   1.000  O
  O112     1.0000 0.90490  0.87740  0.27920  Biso   1.000  O
  O113     1.0000 0.86850  0.95520  0.32108  Biso   1.000  O
  O114     1.0000 0.00230  0.88640  0.31961  Biso   1.000  O
  O115     1.0000 0.82140  0.86370  0.42110  Biso   1.000  O
  O116     1.0000 0.82320  0.99820  0.40194  Biso   1.000  O
  O117     1.0000 0.48820  0.92450  0.20130  Biso   1.000  O
  C265     1.0000 0.70780  0.68370  0.24160  Biso   1.000  C
  C266     1.0000 0.73730  0.60380  0.24690  Biso   1.000  C
  H121     1.0000 0.71520  0.55050  0.24000  Biso   1.000  H
  C267     1.0000 0.80360  0.59460  0.26330  Biso   1.000  C
  H122     1.0000 0.82900  0.53610  0.26660  Biso   1.000  H
  C268     1.0000 0.83210  0.67900  0.27500  Biso   1.000  C
  C269     1.0000 0.79250  0.76370  0.26880  Biso   1.000  C
  C270     1.0000 0.72790  0.76720  0.25360  Biso   1.000  C
  H123     1.0000 0.69620  0.82300  0.25070  Biso   1.000  H
  C271     1.0000 0.89640  0.66430  0.29290  Biso   1.000  C
  C272     1.0000 0.97990  0.62160  0.29100  Biso   1.000  C
  H124     1.0000 0.99850  0.59920  0.27780  Biso   1.000  H
  C273     1.0000 0.03850  0.61000  0.30790  Biso   1.000  C
  H125     1.0000 0.09320  0.57470  0.30650  Biso   1.000  H
  C274     1.0000 0.01700  0.64950  0.32640  Biso   1.000  C
  H126     1.0000 0.05860  0.64190  0.33760  Biso   1.000  H
  C275     1.0000 0.93580  0.70160  0.32950  Biso   1.000  C
  C276     1.0000 0.88220  0.70830  0.31250  Biso   1.000  C
  H127     1.0000 0.82920  0.74640  0.31360  Biso   1.000  H
  C277     1.0000 0.91550  0.75240  0.34840  Biso   1.000  C
  C278     1.0000 0.90030  0.70610  0.36890  Biso   1.000  C
  H128     1.0000 0.90640  0.64130  0.37040  Biso   1.000  H
  C279     1.0000 0.87730  0.76100  0.38520  Biso   1.000  C
  H129     1.0000 0.86950  0.73100  0.39810  Biso   1.000  H
  C280     1.0000 0.86430  0.85430  0.38500  Biso   1.000  C
  C281     1.0000 0.87780  0.90080  0.36610  Biso   1.000  C
  H130     1.0000 0.86780  0.96530  0.36500  Biso   1.000  H
  C282     1.0000 0.90720  0.84730  0.34850  Biso   1.000  C
  C283     1.0000 0.63170  0.69740  0.22460  Biso   1.000  C
  C284     1.0000 0.81870  0.85800  0.27900  Biso   1.000  C
  C285     1.0000 0.92810  0.90100  0.32770  Biso   1.000  C
  C286     1.0000 0.84090  0.90600  0.40400  Biso   1.000  C
  Eu14     1.0000 0.01920  0.27796  0.68826  Biso   1.000  Eu
  O118     1.0000 0.09100  0.12590  0.71560  Biso   1.000  O
  O119     1.0000 0.11660  0.28110  0.71680  Biso   1.000  O
  O120     1.0000 0.25550  0.40500  0.78520  Biso   1.000  O
  O121     1.0000 0.40490  0.37740  0.77920  Biso   1.000  O
  O122     1.0000 0.36850  0.45520  0.82108  Biso   1.000  O
  O123     1.0000 0.50230  0.38640  0.81961  Biso   1.000  O
  O124     1.0000 0.32140  0.36370  0.92110  Biso   1.000  O
  O125     1.0000 0.32320  0.49820  0.90194  Biso   1.000  O
  O126     1.0000 0.98820  0.42450  0.70130  Biso   1.000  O
  C287     1.0000 0.20780  0.18370  0.74160  Biso   1.000  C
  C288     1.0000 0.23730  0.10380  0.74690  Biso   1.000  C
  H131     1.0000 0.21520  0.05050  0.74000  Biso   1.000  H
  C289     1.0000 0.30360  0.09460  0.76330  Biso   1.000  C
  H132     1.0000 0.32900  0.03610  0.76660  Biso   1.000  H
  C290     1.0000 0.33210  0.17900  0.77500  Biso   1.000  C
  C291     1.0000 0.29250  0.26370  0.76880  Biso   1.000  C
  C292     1.0000 0.22790  0.26720  0.75360  Biso   1.000  C
  H133     1.0000 0.19620  0.32300  0.75070  Biso   1.000  H
  C293     1.0000 0.39640  0.16430  0.79290  Biso   1.000  C
  C294     1.0000 0.47990  0.12160  0.79100  Biso   1.000  C
  H134     1.0000 0.49850  0.09920  0.77780  Biso   1.000  H
  C295     1.0000 0.53850  0.11000  0.80790  Biso   1.000  C
  H135     1.0000 0.59320  0.07470  0.80650  Biso   1.000  H
  C296     1.0000 0.51700  0.14950  0.82640  Biso   1.000  C
  H136     1.0000 0.55860  0.14190  0.83760  Biso   1.000  H
  C297     1.0000 0.43580  0.20160  0.82950  Biso   1.000  C
  C298     1.0000 0.38220  0.20830  0.81250  Biso   1.000  C
  H137     1.0000 0.32920  0.24640  0.81360  Biso   1.000  H
  C299     1.0000 0.41550  0.25240  0.84840  Biso   1.000  C
  C300     1.0000 0.40030  0.20610  0.86890  Biso   1.000  C
  H138     1.0000 0.40640  0.14130  0.87040  Biso   1.000  H
  C301     1.0000 0.37730  0.26100  0.88520  Biso   1.000  C
  H139     1.0000 0.36950  0.23100  0.89810  Biso   1.000  H
  C302     1.0000 0.36430  0.35430  0.88500  Biso   1.000  C
  C303     1.0000 0.37780  0.40080  0.86610  Biso   1.000  C
  H140     1.0000 0.36780  0.46530  0.86500  Biso   1.000  H
  C304     1.0000 0.40720  0.34730  0.84850  Biso   1.000  C
  C305     1.0000 0.13170  0.19740  0.72460  Biso   1.000  C
  C306     1.0000 0.31870  0.35800  0.77900  Biso   1.000  C
  C307     1.0000 0.42810  0.40100  0.82770  Biso   1.000  C
  C308     1.0000 0.34090  0.40600  0.90400  Biso   1.000  C
  Eu15     1.0000 0.48080  0.22204  0.18826  Biso   1.000  Eu
  O127     1.0000 0.40900  0.37410  0.21560  Biso   1.000  O
  O128     1.0000 0.38340  0.21890  0.21680  Biso   1.000  O
  O129     1.0000 0.24450  0.09500  0.28520  Biso   1.000  O
  O130     1.0000 0.09510  0.12260  0.27920  Biso   1.000  O
  O131     1.0000 0.13150  0.04480  0.32108  Biso   1.000  O
  O132     1.0000 0.99770  0.11360  0.31961  Biso   1.000  O
  O133     1.0000 0.17860  0.13630  0.42110  Biso   1.000  O
  O134     1.0000 0.17680  0.00180  0.40194  Biso   1.000  O
  O135     1.0000 0.51180  0.07550  0.20130  Biso   1.000  O
  C309     1.0000 0.29220  0.31630  0.24160  Biso   1.000  C
  C310     1.0000 0.26270  0.39620  0.24690  Biso   1.000  C
  H141     1.0000 0.28480  0.44950  0.24000  Biso   1.000  H
  C311     1.0000 0.19640  0.40540  0.26330  Biso   1.000  C
  H142     1.0000 0.17100  0.46390  0.26660  Biso   1.000  H
  C312     1.0000 0.16790  0.32100  0.27500  Biso   1.000  C
  C313     1.0000 0.20750  0.23630  0.26880  Biso   1.000  C
  C314     1.0000 0.27210  0.23280  0.25360  Biso   1.000  C
  H143     1.0000 0.30380  0.17700  0.25070  Biso   1.000  H
  C315     1.0000 0.10360  0.33570  0.29290  Biso   1.000  C
  C316     1.0000 0.02010  0.37840  0.29100  Biso   1.000  C
  H144     1.0000 0.00150  0.40080  0.27780  Biso   1.000  H
  C317     1.0000 0.96150  0.39000  0.30790  Biso   1.000  C
  H145     1.0000 0.90680  0.42530  0.30650  Biso   1.000  H
  C318     1.0000 0.98300  0.35050  0.32640  Biso   1.000  C
  H146     1.0000 0.94140  0.35810  0.33760  Biso   1.000  H
  C319     1.0000 0.06420  0.29840  0.32950  Biso   1.000  C
  C320     1.0000 0.11780  0.29170  0.31250  Biso   1.000  C
  H147     1.0000 0.17080  0.25360  0.31360  Biso   1.000  H
  C321     1.0000 0.08450  0.24760  0.34840  Biso   1.000  C
  C322     1.0000 0.09970  0.29390  0.36890  Biso   1.000  C
  H148     1.0000 0.09360  0.35870  0.37040  Biso   1.000  H
  C323     1.0000 0.12270  0.23900  0.38520  Biso   1.000  C
  H149     1.0000 0.13050  0.26900  0.39810  Biso   1.000  H
  C324     1.0000 0.13570  0.14570  0.38500  Biso   1.000  C
  C325     1.0000 0.12220  0.09920  0.36610  Biso   1.000  C
  H150     1.0000 0.13220  0.03470  0.36500  Biso   1.000  H
  C326     1.0000 0.09280  0.15270  0.34850  Biso   1.000  C
  C327     1.0000 0.36830  0.30260  0.22460  Biso   1.000  C
  C328     1.0000 0.18130  0.14200  0.27900  Biso   1.000  C
  C329     1.0000 0.07190  0.09900  0.32770  Biso   1.000  C
  C330     1.0000 0.15910  0.09400  0.40400  Biso   1.000  C
  Eu16     1.0000 0.98080  0.72204  0.68826  Biso   1.000  Eu
  O136     1.0000 0.90900  0.87410  0.71560  Biso   1.000  O
  O137     1.0000 0.88340  0.71890  0.71680  Biso   1.000  O
  O138     1.0000 0.74450  0.59500  0.78520  Biso   1.000  O
  O139     1.0000 0.59510  0.62260  0.77920  Biso   1.000  O
  O140     1.0000 0.63150  0.54480  0.82108  Biso   1.000  O
  O141     1.0000 0.49770  0.61360  0.81961  Biso   1.000  O
  O142     1.0000 0.67860  0.63630  0.92110  Biso   1.000  O
  O143     1.0000 0.67680  0.50180  0.90194  Biso   1.000  O
  O144     1.0000 0.01180  0.57550  0.70130  Biso   1.000  O
  C331     1.0000 0.79220  0.81630  0.74160  Biso   1.000  C
  C332     1.0000 0.76270  0.89620  0.74690  Biso   1.000  C
  H151     1.0000 0.78480  0.94950  0.74000  Biso   1.000  H
  C333     1.0000 0.69640  0.90540  0.76330  Biso   1.000  C
  H152     1.0000 0.67100  0.96390  0.76660  Biso   1.000  H
  C334     1.0000 0.66790  0.82100  0.77500  Biso   1.000  C
  C335     1.0000 0.70750  0.73630  0.76880  Biso   1.000  C
  C336     1.0000 0.77210  0.73280  0.75360  Biso   1.000  C
  H153     1.0000 0.80380  0.67700  0.75070  Biso   1.000  H
  C337     1.0000 0.60360  0.83570  0.79290  Biso   1.000  C
  C338     1.0000 0.52010  0.87840  0.79100  Biso   1.000  C
  H154     1.0000 0.50150  0.90080  0.77780  Biso   1.000  H
  C339     1.0000 0.46150  0.89000  0.80790  Biso   1.000  C
  H155     1.0000 0.40680  0.92530  0.80650  Biso   1.000  H
  C340     1.0000 0.48300  0.85050  0.82640  Biso   1.000  C
  H156     1.0000 0.44140  0.85810  0.83760  Biso   1.000  H
  C341     1.0000 0.56420  0.79840  0.82950  Biso   1.000  C
  C342     1.0000 0.61780  0.79170  0.81250  Biso   1.000  C
  H157     1.0000 0.67080  0.75360  0.81360  Biso   1.000  H
  C343     1.0000 0.58450  0.74760  0.84840  Biso   1.000  C
  C344     1.0000 0.59970  0.79390  0.86890  Biso   1.000  C
  H158     1.0000 0.59360  0.85870  0.87040  Biso   1.000  H
  C345     1.0000 0.62270  0.73900  0.88520  Biso   1.000  C
  H159     1.0000 0.63050  0.76900  0.89810  Biso   1.000  H
  C346     1.0000 0.63570  0.64570  0.88500  Biso   1.000  C
  C347     1.0000 0.62220  0.59920  0.86610  Biso   1.000  C
  H160     1.0000 0.63220  0.53470  0.86500  Biso   1.000  H
  C348     1.0000 0.59280  0.65270  0.84850  Biso   1.000  C
  C349     1.0000 0.86830  0.80260  0.72460  Biso   1.000  C
  C350     1.0000 0.68130  0.64200  0.77900  Biso   1.000  C
  C351     1.0000 0.57190  0.59900  0.82770  Biso   1.000  C
  C352     1.0000 0.65910  0.59400  0.90400  Biso   1.000  C
  Eu17     1.0000 0.50000  0.00000  0.45980  Biso   1.000  Eu
  Eu18     1.0000 0.00000  0.50000  0.95980  Biso   1.000  Eu
  Eu19     1.0000 0.00000  0.50000  0.54020  Biso   1.000  Eu
  Eu20     1.0000 0.50000  0.00000  0.04020  Biso   1.000  Eu
  Eu21     1.0000 0.00000  0.00000  0.29020  Biso   1.000  Eu
  Eu22     1.0000 0.50000  0.50000  0.79020  Biso   1.000  Eu
  Eu23     1.0000 0.50000  0.50000  0.20980  Biso   1.000  Eu
  Eu24     1.0000 0.00000  0.00000  0.70980  Biso   1.000  Eu
  C353     1.0000 0.00000  0.00000  0.44300  Biso   1.000  C
  H161     1.0000 0.00000  0.00000  0.42830  Biso   1.000  H
  C354     1.0000 0.50000  0.50000  0.94300  Biso   1.000  C
  H162     1.0000 0.50000  0.50000  0.92830  Biso   1.000  H
  C355     1.0000 0.00000  0.00000  0.55700  Biso   1.000  C
  H163     1.0000 0.00000  0.00000  0.57170  Biso   1.000  H
  C356     1.0000 0.50000  0.50000  0.05700  Biso   1.000  C
  H164     1.0000 0.50000  0.50000  0.07170  Biso   1.000  H
  C357     1.0000 0.50000  0.00000  0.30700  Biso   1.000  C
  H165     1.0000 0.50000  0.00000  0.32170  Biso   1.000  H
  C358     1.0000 0.00000  0.50000  0.80700  Biso   1.000  C
  H166     1.0000 0.00000  0.50000  0.82170  Biso   1.000  H
  C359     1.0000 0.50000  0.00000  0.19300  Biso   1.000  C
  H167     1.0000 0.50000  0.00000  0.17830  Biso   1.000  H
  C360     1.0000 0.00000  0.50000  0.69300  Biso   1.000  C
  H168     1.0000 0.00000  0.50000  0.67830  Biso   1.000  H
