data_image0
_cell_length_a       14.309
_cell_length_b       14.309
_cell_length_c       63.9
_cell_angle_alpha    90
_cell_angle_beta     90
_cell_angle_gamma    90

_symmetry_space_group_name_H-M    "P 1"
_symmetry_int_tables_number       1

loop_
  _symmetry_equiv_pos_as_xyz
  'x, y, z'

loop_
  _atom_site_label
  _atom_site_occupancy
  _atom_site_fract_x
  _atom_site_fract_y
  _atom_site_fract_z
  _atom_site_thermal_displace_type
  _atom_site_B_iso_or_equiv
  _atom_site_type_symbol
  Sm1      1.0000 0.52019  0.27694  0.56202  Biso   1.000  Sm
  O1       1.0000 0.87110  0.45970  0.42877  Biso   1.000  O
  O2       1.0000 0.61610  0.28180  0.53172  Biso   1.000  O
  O3       1.0000 0.59440  0.13150  0.53439  Biso   1.000  O
  O4       1.0000 0.90350  0.37400  0.47050  Biso   1.000  O
  O5       1.0000 0.75440  0.40500  0.46395  Biso   1.000  O
  O6       1.0000 0.81990  0.36920  0.32949  Biso   1.000  O
  O7       1.0000 0.82100  0.49470  0.34865  Biso   1.000  O
  O8       1.0000 0.49140  0.42660  0.54916  Biso   1.000  O
  O9       1.0000 0.00510  0.38610  0.43044  Biso   1.000  O
  C1       1.0000 0.63330  0.20080  0.52549  Biso   1.000  C
  C2       1.0000 0.70100  0.18750  0.50788  Biso   1.000  C
  C3       1.0000 0.72580  0.26610  0.49663  Biso   1.000  C
  H1       1.0000 0.69770  0.32300  0.49980  Biso   1.000  H
  C4       1.0000 0.79110  0.26260  0.48075  Biso   1.000  C
  C5       1.0000 0.81860  0.35470  0.47056  Biso   1.000  C
  C6       1.0000 0.82930  0.17660  0.47542  Biso   1.000  C
  C7       1.0000 0.80230  0.09770  0.48654  Biso   1.000  C
  H2       1.0000 0.82780  0.03990  0.48310  Biso   1.000  H
  C8       1.0000 0.73710  0.10390  0.50294  Biso   1.000  C
  H3       1.0000 0.71920  0.05070  0.51030  Biso   1.000  H
  C9       1.0000 0.89450  0.16680  0.45726  Biso   1.000  C
  C10      1.0000 0.87320  0.20790  0.43752  Biso   1.000  C
  H4       1.0000 0.81780  0.24100  0.43580  Biso   1.000  H
  C11      1.0000 0.93390  0.19910  0.42086  Biso   1.000  C
  C12      1.0000 0.91390  0.25140  0.40144  Biso   1.000  C
  C13      1.0000 0.90620  0.34720  0.40210  Biso   1.000  C
  C14      1.0000 0.88110  0.39790  0.38434  Biso   1.000  C
  H5       1.0000 0.87500  0.46250  0.38520  Biso   1.000  H
  C15      1.0000 0.86510  0.35320  0.36565  Biso   1.000  C
  C16      1.0000 0.83520  0.41050  0.34680  Biso   1.000  C
  C17      1.0000 0.87290  0.25710  0.36502  Biso   1.000  C
  H6       1.0000 0.86210  0.22590  0.35250  Biso   1.000  H
  C18      1.0000 0.89560  0.20760  0.38212  Biso   1.000  C
  H7       1.0000 0.89920  0.14280  0.38120  Biso   1.000  H
  C19      1.0000 0.01560  0.14950  0.42326  Biso   1.000  C
  H8       1.0000 0.05570  0.14260  0.41190  Biso   1.000  H
  C20      1.0000 0.03900  0.10980  0.44238  Biso   1.000  C
  H9       1.0000 0.09490  0.07750  0.44390  Biso   1.000  H
  C21      1.0000 0.97900  0.11860  0.45905  Biso   1.000  C
  H10      1.0000 0.99500  0.09190  0.47180  Biso   1.000  H
  C22      1.0000 0.92950  0.40120  0.42185  Biso   1.000  C
  Sm2      1.0000 0.02019  0.77694  0.06202  Biso   1.000  Sm
  O10      1.0000 0.37110  0.95970  0.92877  Biso   1.000  O
  O11      1.0000 0.11610  0.78180  0.03172  Biso   1.000  O
  O12      1.0000 0.09440  0.63150  0.03439  Biso   1.000  O
  O13      1.0000 0.40350  0.87400  0.97050  Biso   1.000  O
  O14      1.0000 0.25440  0.90500  0.96395  Biso   1.000  O
  O15      1.0000 0.31990  0.86920  0.82949  Biso   1.000  O
  O16      1.0000 0.32100  0.99470  0.84865  Biso   1.000  O
  O17      1.0000 0.99140  0.92660  0.04916  Biso   1.000  O
  O18      1.0000 0.50510  0.88610  0.93044  Biso   1.000  O
  C23      1.0000 0.13330  0.70080  0.02549  Biso   1.000  C
  C24      1.0000 0.20100  0.68750  0.00788  Biso   1.000  C
  C25      1.0000 0.22580  0.76610  0.99663  Biso   1.000  C
  H11      1.0000 0.19770  0.82300  0.99980  Biso   1.000  H
  C26      1.0000 0.29110  0.76260  0.98075  Biso   1.000  C
  C27      1.0000 0.31860  0.85470  0.97056  Biso   1.000  C
  C28      1.0000 0.32930  0.67660  0.97542  Biso   1.000  C
  C29      1.0000 0.30230  0.59770  0.98654  Biso   1.000  C
  H12      1.0000 0.32780  0.53990  0.98310  Biso   1.000  H
  C30      1.0000 0.23710  0.60390  0.00294  Biso   1.000  C
  H13      1.0000 0.21920  0.55070  0.01030  Biso   1.000  H
  C31      1.0000 0.39450  0.66680  0.95726  Biso   1.000  C
  C32      1.0000 0.37320  0.70790  0.93752  Biso   1.000  C
  H14      1.0000 0.31780  0.74100  0.93580  Biso   1.000  H
  C33      1.0000 0.43390  0.69910  0.92086  Biso   1.000  C
  C34      1.0000 0.41390  0.75140  0.90144  Biso   1.000  C
  C35      1.0000 0.40620  0.84720  0.90210  Biso   1.000  C
  C36      1.0000 0.38110  0.89790  0.88434  Biso   1.000  C
  H15      1.0000 0.37500  0.96250  0.88520  Biso   1.000  H
  C37      1.0000 0.36510  0.85320  0.86565  Biso   1.000  C
  C38      1.0000 0.33520  0.91050  0.84680  Biso   1.000  C
  C39      1.0000 0.37290  0.75710  0.86502  Biso   1.000  C
  H16      1.0000 0.36210  0.72590  0.85250  Biso   1.000  H
  C40      1.0000 0.39560  0.70760  0.88212  Biso   1.000  C
  H17      1.0000 0.39920  0.64280  0.88120  Biso   1.000  H
  C41      1.0000 0.51560  0.64950  0.92326  Biso   1.000  C
  H18      1.0000 0.55570  0.64260  0.91190  Biso   1.000  H
  C42      1.0000 0.53900  0.60980  0.94238  Biso   1.000  C
  H19      1.0000 0.59490  0.57750  0.94390  Biso   1.000  H
  C43      1.0000 0.47900  0.61860  0.95905  Biso   1.000  C
  H20      1.0000 0.49500  0.59190  0.97180  Biso   1.000  H
  C44      1.0000 0.42950  0.90120  0.92185  Biso   1.000  C
  Sm3      1.0000 0.47981  0.72306  0.56202  Biso   1.000  Sm
  O19      1.0000 0.12890  0.54030  0.42877  Biso   1.000  O
  O20      1.0000 0.38390  0.71820  0.53172  Biso   1.000  O
  O21      1.0000 0.40560  0.86850  0.53439  Biso   1.000  O
  O22      1.0000 0.09650  0.62600  0.47050  Biso   1.000  O
  O23      1.0000 0.24560  0.59500  0.46395  Biso   1.000  O
  O24      1.0000 0.18010  0.63080  0.32949  Biso   1.000  O
  O25      1.0000 0.17900  0.50530  0.34865  Biso   1.000  O
  O26      1.0000 0.50860  0.57340  0.54916  Biso   1.000  O
  O27      1.0000 0.99490  0.61390  0.43044  Biso   1.000  O
  C45      1.0000 0.36670  0.79920  0.52549  Biso   1.000  C
  C46      1.0000 0.29900  0.81250  0.50788  Biso   1.000  C
  C47      1.0000 0.27420  0.73390  0.49663  Biso   1.000  C
  H21      1.0000 0.30230  0.67700  0.49980  Biso   1.000  H
  C48      1.0000 0.20890  0.73740  0.48075  Biso   1.000  C
  C49      1.0000 0.18140  0.64530  0.47056  Biso   1.000  C
  C50      1.0000 0.17070  0.82340  0.47542  Biso   1.000  C
  C51      1.0000 0.19770  0.90230  0.48654  Biso   1.000  C
  H22      1.0000 0.17220  0.96010  0.48310  Biso   1.000  H
  C52      1.0000 0.26290  0.89610  0.50294  Biso   1.000  C
  H23      1.0000 0.28080  0.94930  0.51030  Biso   1.000  H
  C53      1.0000 0.10550  0.83320  0.45726  Biso   1.000  C
  C54      1.0000 0.12680  0.79210  0.43752  Biso   1.000  C
  H24      1.0000 0.18220  0.75900  0.43580  Biso   1.000  H
  C55      1.0000 0.06610  0.80090  0.42086  Biso   1.000  C
  C56      1.0000 0.08610  0.74860  0.40144  Biso   1.000  C
  C57      1.0000 0.09380  0.65280  0.40210  Biso   1.000  C
  C58      1.0000 0.11890  0.60210  0.38434  Biso   1.000  C
  H25      1.0000 0.12500  0.53750  0.38520  Biso   1.000  H
  C59      1.0000 0.13490  0.64680  0.36565  Biso   1.000  C
  C60      1.0000 0.16480  0.58950  0.34680  Biso   1.000  C
  C61      1.0000 0.12710  0.74290  0.36502  Biso   1.000  C
  H26      1.0000 0.13790  0.77410  0.35250  Biso   1.000  H
  C62      1.0000 0.10440  0.79240  0.38212  Biso   1.000  C
  H27      1.0000 0.10080  0.85720  0.38120  Biso   1.000  H
  C63      1.0000 0.98440  0.85050  0.42326  Biso   1.000  C
  H28      1.0000 0.94430  0.85740  0.41190  Biso   1.000  H
  C64      1.0000 0.96100  0.89020  0.44238  Biso   1.000  C
  H29      1.0000 0.90510  0.92250  0.44390  Biso   1.000  H
  C65      1.0000 0.02100  0.88140  0.45905  Biso   1.000  C
  H30      1.0000 0.00500  0.90810  0.47180  Biso   1.000  H
  C66      1.0000 0.07050  0.59880  0.42185  Biso   1.000  C
  Sm4      1.0000 0.97981  0.22306  0.06202  Biso   1.000  Sm
  O28      1.0000 0.62890  0.04030  0.92877  Biso   1.000  O
  O29      1.0000 0.88390  0.21820  0.03172  Biso   1.000  O
  O30      1.0000 0.90560  0.36850  0.03439  Biso   1.000  O
  O31      1.0000 0.59650  0.12600  0.97050  Biso   1.000  O
  O32      1.0000 0.74560  0.09500  0.96395  Biso   1.000  O
  O33      1.0000 0.68010  0.13080  0.82949  Biso   1.000  O
  O34      1.0000 0.67900  0.00530  0.84865  Biso   1.000  O
  O35      1.0000 0.00860  0.07340  0.04916  Biso   1.000  O
  O36      1.0000 0.49490  0.11390  0.93044  Biso   1.000  O
  C67      1.0000 0.86670  0.29920  0.02549  Biso   1.000  C
  C68      1.0000 0.79900  0.31250  0.00788  Biso   1.000  C
  C69      1.0000 0.77420  0.23390  0.99663  Biso   1.000  C
  H31      1.0000 0.80230  0.17700  0.99980  Biso   1.000  H
  C70      1.0000 0.70890  0.23740  0.98075  Biso   1.000  C
  C71      1.0000 0.68140  0.14530  0.97056  Biso   1.000  C
  C72      1.0000 0.67070  0.32340  0.97542  Biso   1.000  C
  C73      1.0000 0.69770  0.40230  0.98654  Biso   1.000  C
  H32      1.0000 0.67220  0.46010  0.98310  Biso   1.000  H
  C74      1.0000 0.76290  0.39610  0.00294  Biso   1.000  C
  H33      1.0000 0.78080  0.44930  0.01030  Biso   1.000  H
  C75      1.0000 0.60550  0.33320  0.95726  Biso   1.000  C
  C76      1.0000 0.62680  0.29210  0.93752  Biso   1.000  C
  H34      1.0000 0.68220  0.25900  0.93580  Biso   1.000  H
  C77      1.0000 0.56610  0.30090  0.92086  Biso   1.000  C
  C78      1.0000 0.58610  0.24860  0.90144  Biso   1.000  C
  C79      1.0000 0.59380  0.15280  0.90210  Biso   1.000  C
  C80      1.0000 0.61890  0.10210  0.88434  Biso   1.000  C
  H35      1.0000 0.62500  0.03750  0.88520  Biso   1.000  H
  C81      1.0000 0.63490  0.14680  0.86565  Biso   1.000  C
  C82      1.0000 0.66480  0.08950  0.84680  Biso   1.000  C
  C83      1.0000 0.62710  0.24290  0.86502  Biso   1.000  C
  H36      1.0000 0.63790  0.27410  0.85250  Biso   1.000  H
  C84      1.0000 0.60440  0.29240  0.88212  Biso   1.000  C
  H37      1.0000 0.60080  0.35720  0.88120  Biso   1.000  H
  C85      1.0000 0.48440  0.35050  0.92326  Biso   1.000  C
  H38      1.0000 0.44430  0.35740  0.91190  Biso   1.000  H
  C86      1.0000 0.46100  0.39020  0.94238  Biso   1.000  C
  H39      1.0000 0.40510  0.42250  0.94390  Biso   1.000  H
  C87      1.0000 0.52100  0.38140  0.95905  Biso   1.000  C
  H40      1.0000 0.50500  0.40810  0.97180  Biso   1.000  H
  C88      1.0000 0.57050  0.09880  0.92185  Biso   1.000  C
  Sm5      1.0000 0.27694  0.47981  0.43798  Biso   1.000  Sm
  O37      1.0000 0.45970  0.12890  0.57123  Biso   1.000  O
  O38      1.0000 0.28180  0.38390  0.46828  Biso   1.000  O
  O39      1.0000 0.13150  0.40560  0.46561  Biso   1.000  O
  O40      1.0000 0.37400  0.09650  0.52950  Biso   1.000  O
  O41      1.0000 0.40500  0.24560  0.53605  Biso   1.000  O
  O42      1.0000 0.36920  0.18010  0.67051  Biso   1.000  O
  O43      1.0000 0.49470  0.17900  0.65135  Biso   1.000  O
  O44      1.0000 0.42660  0.50860  0.45084  Biso   1.000  O
  O45      1.0000 0.38610  0.99490  0.56956  Biso   1.000  O
  C89      1.0000 0.20080  0.36670  0.47451  Biso   1.000  C
  C90      1.0000 0.18750  0.29900  0.49212  Biso   1.000  C
  C91      1.0000 0.26610  0.27420  0.50337  Biso   1.000  C
  H41      1.0000 0.32300  0.30230  0.50020  Biso   1.000  H
  C92      1.0000 0.26260  0.20890  0.51925  Biso   1.000  C
  C93      1.0000 0.35470  0.18140  0.52944  Biso   1.000  C
  C94      1.0000 0.17660  0.17070  0.52458  Biso   1.000  C
  C95      1.0000 0.09770  0.19770  0.51346  Biso   1.000  C
  H42      1.0000 0.03990  0.17220  0.51690  Biso   1.000  H
  C96      1.0000 0.10390  0.26290  0.49706  Biso   1.000  C
  H43      1.0000 0.05070  0.28080  0.48970  Biso   1.000  H
  C97      1.0000 0.16680  0.10550  0.54274  Biso   1.000  C
  C98      1.0000 0.20790  0.12680  0.56248  Biso   1.000  C
  H44      1.0000 0.24100  0.18220  0.56420  Biso   1.000  H
  C99      1.0000 0.19910  0.06610  0.57914  Biso   1.000  C
  C100     1.0000 0.25140  0.08610  0.59856  Biso   1.000  C
  C101     1.0000 0.34720  0.09380  0.59790  Biso   1.000  C
  C102     1.0000 0.39790  0.11890  0.61566  Biso   1.000  C
  H45      1.0000 0.46250  0.12500  0.61480  Biso   1.000  H
  C103     1.0000 0.35320  0.13490  0.63435  Biso   1.000  C
  C104     1.0000 0.41050  0.16480  0.65320  Biso   1.000  C
  C105     1.0000 0.25710  0.12710  0.63498  Biso   1.000  C
  H46      1.0000 0.22590  0.13790  0.64750  Biso   1.000  H
  C106     1.0000 0.20760  0.10440  0.61788  Biso   1.000  C
  H47      1.0000 0.14280  0.10080  0.61880  Biso   1.000  H
  C107     1.0000 0.14950  0.98440  0.57674  Biso   1.000  C
  H48      1.0000 0.14260  0.94430  0.58810  Biso   1.000  H
  C108     1.0000 0.10980  0.96100  0.55762  Biso   1.000  C
  H49      1.0000 0.07750  0.90510  0.55610  Biso   1.000  H
  C109     1.0000 0.11860  0.02100  0.54095  Biso   1.000  C
  H50      1.0000 0.09190  0.00500  0.52820  Biso   1.000  H
  C110     1.0000 0.40120  0.07050  0.57815  Biso   1.000  C
  Sm6      1.0000 0.77694  0.97981  0.93798  Biso   1.000  Sm
  O46      1.0000 0.95970  0.62890  0.07123  Biso   1.000  O
  O47      1.0000 0.78180  0.88390  0.96828  Biso   1.000  O
  O48      1.0000 0.63150  0.90560  0.96561  Biso   1.000  O
  O49      1.0000 0.87400  0.59650  0.02950  Biso   1.000  O
  O50      1.0000 0.90500  0.74560  0.03605  Biso   1.000  O
  O51      1.0000 0.86920  0.68010  0.17051  Biso   1.000  O
  O52      1.0000 0.99470  0.67900  0.15135  Biso   1.000  O
  O53      1.0000 0.92660  0.00860  0.95084  Biso   1.000  O
  O54      1.0000 0.88610  0.49490  0.06956  Biso   1.000  O
  C111     1.0000 0.70080  0.86670  0.97451  Biso   1.000  C
  C112     1.0000 0.68750  0.79900  0.99212  Biso   1.000  C
  C113     1.0000 0.76610  0.77420  0.00337  Biso   1.000  C
  H51      1.0000 0.82300  0.80230  0.00020  Biso   1.000  H
  C114     1.0000 0.76260  0.70890  0.01925  Biso   1.000  C
  C115     1.0000 0.85470  0.68140  0.02944  Biso   1.000  C
  C116     1.0000 0.67660  0.67070  0.02458  Biso   1.000  C
  C117     1.0000 0.59770  0.69770  0.01346  Biso   1.000  C
  H52      1.0000 0.53990  0.67220  0.01690  Biso   1.000  H
  C118     1.0000 0.60390  0.76290  0.99706  Biso   1.000  C
  H53      1.0000 0.55070  0.78080  0.98970  Biso   1.000  H
  C119     1.0000 0.66680  0.60550  0.04274  Biso   1.000  C
  C120     1.0000 0.70790  0.62680  0.06248  Biso   1.000  C
  H54      1.0000 0.74100  0.68220  0.06420  Biso   1.000  H
  C121     1.0000 0.69910  0.56610  0.07914  Biso   1.000  C
  C122     1.0000 0.75140  0.58610  0.09856  Biso   1.000  C
  C123     1.0000 0.84720  0.59380  0.09790  Biso   1.000  C
  C124     1.0000 0.89790  0.61890  0.11566  Biso   1.000  C
  H55      1.0000 0.96250  0.62500  0.11480  Biso   1.000  H
  C125     1.0000 0.85320  0.63490  0.13435  Biso   1.000  C
  C126     1.0000 0.91050  0.66480  0.15320  Biso   1.000  C
  C127     1.0000 0.75710  0.62710  0.13498  Biso   1.000  C
  H56      1.0000 0.72590  0.63790  0.14750  Biso   1.000  H
  C128     1.0000 0.70760  0.60440  0.11788  Biso   1.000  C
  H57      1.0000 0.64280  0.60080  0.11880  Biso   1.000  H
  C129     1.0000 0.64950  0.48440  0.07674  Biso   1.000  C
  H58      1.0000 0.64260  0.44430  0.08810  Biso   1.000  H
  C130     1.0000 0.60980  0.46100  0.05762  Biso   1.000  C
  H59      1.0000 0.57750  0.40510  0.05610  Biso   1.000  H
  C131     1.0000 0.61860  0.52100  0.04095  Biso   1.000  C
  H60      1.0000 0.59190  0.50500  0.02820  Biso   1.000  H
  C132     1.0000 0.90120  0.57050  0.07815  Biso   1.000  C
  Sm7      1.0000 0.72306  0.52019  0.43798  Biso   1.000  Sm
  O55      1.0000 0.54030  0.87110  0.57123  Biso   1.000  O
  O56      1.0000 0.71820  0.61610  0.46828  Biso   1.000  O
  O57      1.0000 0.86850  0.59440  0.46561  Biso   1.000  O
  O58      1.0000 0.62600  0.90350  0.52950  Biso   1.000  O
  O59      1.0000 0.59500  0.75440  0.53605  Biso   1.000  O
  O60      1.0000 0.63080  0.81990  0.67051  Biso   1.000  O
  O61      1.0000 0.50530  0.82100  0.65135  Biso   1.000  O
  O62      1.0000 0.57340  0.49140  0.45084  Biso   1.000  O
  O63      1.0000 0.61390  0.00510  0.56956  Biso   1.000  O
  C133     1.0000 0.79920  0.63330  0.47451  Biso   1.000  C
  C134     1.0000 0.81250  0.70100  0.49212  Biso   1.000  C
  C135     1.0000 0.73390  0.72580  0.50337  Biso   1.000  C
  H61      1.0000 0.67700  0.69770  0.50020  Biso   1.000  H
  C136     1.0000 0.73740  0.79110  0.51925  Biso   1.000  C
  C137     1.0000 0.64530  0.81860  0.52944  Biso   1.000  C
  C138     1.0000 0.82340  0.82930  0.52458  Biso   1.000  C
  C139     1.0000 0.90230  0.80230  0.51346  Biso   1.000  C
  H62      1.0000 0.96010  0.82780  0.51690  Biso   1.000  H
  C140     1.0000 0.89610  0.73710  0.49706  Biso   1.000  C
  H63      1.0000 0.94930  0.71920  0.48970  Biso   1.000  H
  C141     1.0000 0.83320  0.89450  0.54274  Biso   1.000  C
  C142     1.0000 0.79210  0.87320  0.56248  Biso   1.000  C
  H64      1.0000 0.75900  0.81780  0.56420  Biso   1.000  H
  C143     1.0000 0.80090  0.93390  0.57914  Biso   1.000  C
  C144     1.0000 0.74860  0.91390  0.59856  Biso   1.000  C
  C145     1.0000 0.65280  0.90620  0.59790  Biso   1.000  C
  C146     1.0000 0.60210  0.88110  0.61566  Biso   1.000  C
  H65      1.0000 0.53750  0.87500  0.61480  Biso   1.000  H
  C147     1.0000 0.64680  0.86510  0.63435  Biso   1.000  C
  C148     1.0000 0.58950  0.83520  0.65320  Biso   1.000  C
  C149     1.0000 0.74290  0.87290  0.63498  Biso   1.000  C
  H66      1.0000 0.77410  0.86210  0.64750  Biso   1.000  H
  C150     1.0000 0.79240  0.89560  0.61788  Biso   1.000  C
  H67      1.0000 0.85720  0.89920  0.61880  Biso   1.000  H
  C151     1.0000 0.85050  0.01560  0.57674  Biso   1.000  C
  H68      1.0000 0.85740  0.05570  0.58810  Biso   1.000  H
  C152     1.0000 0.89020  0.03900  0.55762  Biso   1.000  C
  H69      1.0000 0.92250  0.09490  0.55610  Biso   1.000  H
  C153     1.0000 0.88140  0.97900  0.54095  Biso   1.000  C
  H70      1.0000 0.90810  0.99500  0.52820  Biso   1.000  H
  C154     1.0000 0.59880  0.92950  0.57815  Biso   1.000  C
  Sm8      1.0000 0.22306  0.02019  0.93798  Biso   1.000  Sm
  O64      1.0000 0.04030  0.37110  0.07123  Biso   1.000  O
  O65      1.0000 0.21820  0.11610  0.96828  Biso   1.000  O
  O66      1.0000 0.36850  0.09440  0.96561  Biso   1.000  O
  O67      1.0000 0.12600  0.40350  0.02950  Biso   1.000  O
  O68      1.0000 0.09500  0.25440  0.03605  Biso   1.000  O
  O69      1.0000 0.13080  0.31990  0.17051  Biso   1.000  O
  O70      1.0000 0.00530  0.32100  0.15135  Biso   1.000  O
  O71      1.0000 0.07340  0.99140  0.95084  Biso   1.000  O
  O72      1.0000 0.11390  0.50510  0.06956  Biso   1.000  O
  C155     1.0000 0.29920  0.13330  0.97451  Biso   1.000  C
  C156     1.0000 0.31250  0.20100  0.99212  Biso   1.000  C
  C157     1.0000 0.23390  0.22580  0.00337  Biso   1.000  C
  H71      1.0000 0.17700  0.19770  0.00020  Biso   1.000  H
  C158     1.0000 0.23740  0.29110  0.01925  Biso   1.000  C
  C159     1.0000 0.14530  0.31860  0.02944  Biso   1.000  C
  C160     1.0000 0.32340  0.32930  0.02458  Biso   1.000  C
  C161     1.0000 0.40230  0.30230  0.01346  Biso   1.000  C
  H72      1.0000 0.46010  0.32780  0.01690  Biso   1.000  H
  C162     1.0000 0.39610  0.23710  0.99706  Biso   1.000  C
  H73      1.0000 0.44930  0.21920  0.98970  Biso   1.000  H
  C163     1.0000 0.33320  0.39450  0.04274  Biso   1.000  C
  C164     1.0000 0.29210  0.37320  0.06248  Biso   1.000  C
  H74      1.0000 0.25900  0.31780  0.06420  Biso   1.000  H
  C165     1.0000 0.30090  0.43390  0.07914  Biso   1.000  C
  C166     1.0000 0.24860  0.41390  0.09856  Biso   1.000  C
  C167     1.0000 0.15280  0.40620  0.09790  Biso   1.000  C
  C168     1.0000 0.10210  0.38110  0.11566  Biso   1.000  C
  H75      1.0000 0.03750  0.37500  0.11480  Biso   1.000  H
  C169     1.0000 0.14680  0.36510  0.13435  Biso   1.000  C
  C170     1.0000 0.08950  0.33520  0.15320  Biso   1.000  C
  C171     1.0000 0.24290  0.37290  0.13498  Biso   1.000  C
  H76      1.0000 0.27410  0.36210  0.14750  Biso   1.000  H
  C172     1.0000 0.29240  0.39560  0.11788  Biso   1.000  C
  H77      1.0000 0.35720  0.39920  0.11880  Biso   1.000  H
  C173     1.0000 0.35050  0.51560  0.07674  Biso   1.000  C
  H78      1.0000 0.35740  0.55570  0.08810  Biso   1.000  H
  C174     1.0000 0.39020  0.53900  0.05762  Biso   1.000  C
  H79      1.0000 0.42250  0.59490  0.05610  Biso   1.000  H
  C175     1.0000 0.38140  0.47900  0.04095  Biso   1.000  C
  H80      1.0000 0.40810  0.49500  0.02820  Biso   1.000  H
  C176     1.0000 0.09880  0.42950  0.07815  Biso   1.000  C
  Sm9      1.0000 0.97981  0.27694  0.18798  Biso   1.000  Sm
  O73      1.0000 0.62890  0.45970  0.32123  Biso   1.000  O
  O74      1.0000 0.88390  0.28180  0.21828  Biso   1.000  O
  O75      1.0000 0.90560  0.13150  0.21561  Biso   1.000  O
  O76      1.0000 0.59650  0.37400  0.27950  Biso   1.000  O
  O77      1.0000 0.74560  0.40500  0.28605  Biso   1.000  O
  O78      1.0000 0.68010  0.36920  0.42051  Biso   1.000  O
  O79      1.0000 0.67900  0.49470  0.40135  Biso   1.000  O
  O80      1.0000 0.00860  0.42660  0.20084  Biso   1.000  O
  O81      1.0000 0.49490  0.38610  0.31956  Biso   1.000  O
  C177     1.0000 0.86670  0.20080  0.22451  Biso   1.000  C
  C178     1.0000 0.79900  0.18750  0.24212  Biso   1.000  C
  C179     1.0000 0.77420  0.26610  0.25337  Biso   1.000  C
  H81      1.0000 0.80230  0.32300  0.25020  Biso   1.000  H
  C180     1.0000 0.70890  0.26260  0.26925  Biso   1.000  C
  C181     1.0000 0.68140  0.35470  0.27944  Biso   1.000  C
  C182     1.0000 0.67070  0.17660  0.27458  Biso   1.000  C
  C183     1.0000 0.69770  0.09770  0.26346  Biso   1.000  C
  H82      1.0000 0.67220  0.03990  0.26690  Biso   1.000  H
  C184     1.0000 0.76290  0.10390  0.24706  Biso   1.000  C
  H83      1.0000 0.78080  0.05070  0.23970  Biso   1.000  H
  C185     1.0000 0.60550  0.16680  0.29274  Biso   1.000  C
  C186     1.0000 0.62680  0.20790  0.31248  Biso   1.000  C
  H84      1.0000 0.68220  0.24100  0.31420  Biso   1.000  H
  C187     1.0000 0.56610  0.19910  0.32914  Biso   1.000  C
  C188     1.0000 0.58610  0.25140  0.34856  Biso   1.000  C
  C189     1.0000 0.59380  0.34720  0.34790  Biso   1.000  C
  C190     1.0000 0.61890  0.39790  0.36566  Biso   1.000  C
  H85      1.0000 0.62500  0.46250  0.36480  Biso   1.000  H
  C191     1.0000 0.63490  0.35320  0.38435  Biso   1.000  C
  C192     1.0000 0.66480  0.41050  0.40320  Biso   1.000  C
  C193     1.0000 0.62710  0.25710  0.38498  Biso   1.000  C
  H86      1.0000 0.63790  0.22590  0.39750  Biso   1.000  H
  C194     1.0000 0.60440  0.20760  0.36788  Biso   1.000  C
  H87      1.0000 0.60080  0.14280  0.36880  Biso   1.000  H
  C195     1.0000 0.48440  0.14950  0.32674  Biso   1.000  C
  H88      1.0000 0.44430  0.14260  0.33810  Biso   1.000  H
  C196     1.0000 0.46100  0.10980  0.30762  Biso   1.000  C
  H89      1.0000 0.40510  0.07750  0.30610  Biso   1.000  H
  C197     1.0000 0.52100  0.11860  0.29095  Biso   1.000  C
  H90      1.0000 0.50500  0.09190  0.27820  Biso   1.000  H
  C198     1.0000 0.57050  0.40120  0.32815  Biso   1.000  C
  Sm10     1.0000 0.47981  0.77694  0.68798  Biso   1.000  Sm
  O82      1.0000 0.12890  0.95970  0.82123  Biso   1.000  O
  O83      1.0000 0.38390  0.78180  0.71828  Biso   1.000  O
  O84      1.0000 0.40560  0.63150  0.71561  Biso   1.000  O
  O85      1.0000 0.09650  0.87400  0.77950  Biso   1.000  O
  O86      1.0000 0.24560  0.90500  0.78605  Biso   1.000  O
  O87      1.0000 0.18010  0.86920  0.92051  Biso   1.000  O
  O88      1.0000 0.17900  0.99470  0.90135  Biso   1.000  O
  O89      1.0000 0.50860  0.92660  0.70084  Biso   1.000  O
  O90      1.0000 0.99490  0.88610  0.81956  Biso   1.000  O
  C199     1.0000 0.36670  0.70080  0.72451  Biso   1.000  C
  C200     1.0000 0.29900  0.68750  0.74212  Biso   1.000  C
  C201     1.0000 0.27420  0.76610  0.75337  Biso   1.000  C
  H91      1.0000 0.30230  0.82300  0.75020  Biso   1.000  H
  C202     1.0000 0.20890  0.76260  0.76925  Biso   1.000  C
  C203     1.0000 0.18140  0.85470  0.77944  Biso   1.000  C
  C204     1.0000 0.17070  0.67660  0.77458  Biso   1.000  C
  C205     1.0000 0.19770  0.59770  0.76346  Biso   1.000  C
  H92      1.0000 0.17220  0.53990  0.76690  Biso   1.000  H
  C206     1.0000 0.26290  0.60390  0.74706  Biso   1.000  C
  H93      1.0000 0.28080  0.55070  0.73970  Biso   1.000  H
  C207     1.0000 0.10550  0.66680  0.79274  Biso   1.000  C
  C208     1.0000 0.12680  0.70790  0.81248  Biso   1.000  C
  H94      1.0000 0.18220  0.74100  0.81420  Biso   1.000  H
  C209     1.0000 0.06610  0.69910  0.82914  Biso   1.000  C
  C210     1.0000 0.08610  0.75140  0.84856  Biso   1.000  C
  C211     1.0000 0.09380  0.84720  0.84790  Biso   1.000  C
  C212     1.0000 0.11890  0.89790  0.86566  Biso   1.000  C
  H95      1.0000 0.12500  0.96250  0.86480  Biso   1.000  H
  C213     1.0000 0.13490  0.85320  0.88435  Biso   1.000  C
  C214     1.0000 0.16480  0.91050  0.90320  Biso   1.000  C
  C215     1.0000 0.12710  0.75710  0.88498  Biso   1.000  C
  H96      1.0000 0.13790  0.72590  0.89750  Biso   1.000  H
  C216     1.0000 0.10440  0.70760  0.86788  Biso   1.000  C
  H97      1.0000 0.10080  0.64280  0.86880  Biso   1.000  H
  C217     1.0000 0.98440  0.64950  0.82674  Biso   1.000  C
  H98      1.0000 0.94430  0.64260  0.83810  Biso   1.000  H
  C218     1.0000 0.96100  0.60980  0.80762  Biso   1.000  C
  H99      1.0000 0.90510  0.57750  0.80610  Biso   1.000  H
  C219     1.0000 0.02100  0.61860  0.79095  Biso   1.000  C
  H100     1.0000 0.00500  0.59190  0.77820  Biso   1.000  H
  C220     1.0000 0.07050  0.90120  0.82815  Biso   1.000  C
  Sm11     1.0000 0.02019  0.72306  0.18798  Biso   1.000  Sm
  O91      1.0000 0.37110  0.54030  0.32123  Biso   1.000  O
  O92      1.0000 0.11610  0.71820  0.21828  Biso   1.000  O
  O93      1.0000 0.09440  0.86850  0.21561  Biso   1.000  O
  O94      1.0000 0.40350  0.62600  0.27950  Biso   1.000  O
  O95      1.0000 0.25440  0.59500  0.28605  Biso   1.000  O
  O96      1.0000 0.31990  0.63080  0.42051  Biso   1.000  O
  O97      1.0000 0.32100  0.50530  0.40135  Biso   1.000  O
  O98      1.0000 0.99140  0.57340  0.20084  Biso   1.000  O
  O99      1.0000 0.50510  0.61390  0.31956  Biso   1.000  O
  C221     1.0000 0.13330  0.79920  0.22451  Biso   1.000  C
  C222     1.0000 0.20100  0.81250  0.24212  Biso   1.000  C
  C223     1.0000 0.22580  0.73390  0.25337  Biso   1.000  C
  H101     1.0000 0.19770  0.67700  0.25020  Biso   1.000  H
  C224     1.0000 0.29110  0.73740  0.26925  Biso   1.000  C
  C225     1.0000 0.31860  0.64530  0.27944  Biso   1.000  C
  C226     1.0000 0.32930  0.82340  0.27458  Biso   1.000  C
  C227     1.0000 0.30230  0.90230  0.26346  Biso   1.000  C
  H102     1.0000 0.32780  0.96010  0.26690  Biso   1.000  H
  C228     1.0000 0.23710  0.89610  0.24706  Biso   1.000  C
  H103     1.0000 0.21920  0.94930  0.23970  Biso   1.000  H
  C229     1.0000 0.39450  0.83320  0.29274  Biso   1.000  C
  C230     1.0000 0.37320  0.79210  0.31248  Biso   1.000  C
  H104     1.0000 0.31780  0.75900  0.31420  Biso   1.000  H
  C231     1.0000 0.43390  0.80090  0.32914  Biso   1.000  C
  C232     1.0000 0.41390  0.74860  0.34856  Biso   1.000  C
  C233     1.0000 0.40620  0.65280  0.34790  Biso   1.000  C
  C234     1.0000 0.38110  0.60210  0.36566  Biso   1.000  C
  H105     1.0000 0.37500  0.53750  0.36480  Biso   1.000  H
  C235     1.0000 0.36510  0.64680  0.38435  Biso   1.000  C
  C236     1.0000 0.33520  0.58950  0.40320  Biso   1.000  C
  C237     1.0000 0.37290  0.74290  0.38498  Biso   1.000  C
  H106     1.0000 0.36210  0.77410  0.39750  Biso   1.000  H
  C238     1.0000 0.39560  0.79240  0.36788  Biso   1.000  C
  H107     1.0000 0.39920  0.85720  0.36880  Biso   1.000  H
  C239     1.0000 0.51560  0.85050  0.32674  Biso   1.000  C
  H108     1.0000 0.55570  0.85740  0.33810  Biso   1.000  H
  C240     1.0000 0.53900  0.89020  0.30762  Biso   1.000  C
  H109     1.0000 0.59490  0.92250  0.30610  Biso   1.000  H
  C241     1.0000 0.47900  0.88140  0.29095  Biso   1.000  C
  H110     1.0000 0.49500  0.90810  0.27820  Biso   1.000  H
  C242     1.0000 0.42950  0.59880  0.32815  Biso   1.000  C
  Sm12     1.0000 0.52019  0.22306  0.68798  Biso   1.000  Sm
  O100     1.0000 0.87110  0.04030  0.82123  Biso   1.000  O
  O101     1.0000 0.61610  0.21820  0.71828  Biso   1.000  O
  O102     1.0000 0.59440  0.36850  0.71561  Biso   1.000  O
  O103     1.0000 0.90350  0.12600  0.77950  Biso   1.000  O
  O104     1.0000 0.75440  0.09500  0.78605  Biso   1.000  O
  O105     1.0000 0.81990  0.13080  0.92051  Biso   1.000  O
  O106     1.0000 0.82100  0.00530  0.90135  Biso   1.000  O
  O107     1.0000 0.49140  0.07340  0.70084  Biso   1.000  O
  O108     1.0000 0.00510  0.11390  0.81956  Biso   1.000  O
  C243     1.0000 0.63330  0.29920  0.72451  Biso   1.000  C
  C244     1.0000 0.70100  0.31250  0.74212  Biso   1.000  C
  C245     1.0000 0.72580  0.23390  0.75337  Biso   1.000  C
  H111     1.0000 0.69770  0.17700  0.75020  Biso   1.000  H
  C246     1.0000 0.79110  0.23740  0.76925  Biso   1.000  C
  C247     1.0000 0.81860  0.14530  0.77944  Biso   1.000  C
  C248     1.0000 0.82930  0.32340  0.77458  Biso   1.000  C
  C249     1.0000 0.80230  0.40230  0.76346  Biso   1.000  C
  H112     1.0000 0.82780  0.46010  0.76690  Biso   1.000  H
  C250     1.0000 0.73710  0.39610  0.74706  Biso   1.000  C
  H113     1.0000 0.71920  0.44930  0.73970  Biso   1.000  H
  C251     1.0000 0.89450  0.33320  0.79274  Biso   1.000  C
  C252     1.0000 0.87320  0.29210  0.81248  Biso   1.000  C
  H114     1.0000 0.81780  0.25900  0.81420  Biso   1.000  H
  C253     1.0000 0.93390  0.30090  0.82914  Biso   1.000  C
  C254     1.0000 0.91390  0.24860  0.84856  Biso   1.000  C
  C255     1.0000 0.90620  0.15280  0.84790  Biso   1.000  C
  C256     1.0000 0.88110  0.10210  0.86566  Biso   1.000  C
  H115     1.0000 0.87500  0.03750  0.86480  Biso   1.000  H
  C257     1.0000 0.86510  0.14680  0.88435  Biso   1.000  C
  C258     1.0000 0.83520  0.08950  0.90320  Biso   1.000  C
  C259     1.0000 0.87290  0.24290  0.88498  Biso   1.000  C
  H116     1.0000 0.86210  0.27410  0.89750  Biso   1.000  H
  C260     1.0000 0.89560  0.29240  0.86788  Biso   1.000  C
  H117     1.0000 0.89920  0.35720  0.86880  Biso   1.000  H
  C261     1.0000 0.01560  0.35050  0.82674  Biso   1.000  C
  H118     1.0000 0.05570  0.35740  0.83810  Biso   1.000  H
  C262     1.0000 0.03900  0.39020  0.80762  Biso   1.000  C
  H119     1.0000 0.09490  0.42250  0.80610  Biso   1.000  H
  C263     1.0000 0.97900  0.38140  0.79095  Biso   1.000  C
  H120     1.0000 0.99500  0.40810  0.77820  Biso   1.000  H
  C264     1.0000 0.92950  0.09880  0.82815  Biso   1.000  C
  Sm13     1.0000 0.22306  0.47981  0.31202  Biso   1.000  Sm
  O109     1.0000 0.04030  0.12890  0.17877  Biso   1.000  O
  O110     1.0000 0.21820  0.38390  0.28172  Biso   1.000  O
  O111     1.0000 0.36850  0.40560  0.28439  Biso   1.000  O
  O112     1.0000 0.12600  0.09650  0.22050  Biso   1.000  O
  O113     1.0000 0.09500  0.24560  0.21395  Biso   1.000  O
  O114     1.0000 0.13080  0.18010  0.07949  Biso   1.000  O
  O115     1.0000 0.00530  0.17900  0.09865  Biso   1.000  O
  O116     1.0000 0.07340  0.50860  0.29916  Biso   1.000  O
  O117     1.0000 0.11390  0.99490  0.18044  Biso   1.000  O
  C265     1.0000 0.29920  0.36670  0.27549  Biso   1.000  C
  C266     1.0000 0.31250  0.29900  0.25788  Biso   1.000  C
  C267     1.0000 0.23390  0.27420  0.24663  Biso   1.000  C
  H121     1.0000 0.17700  0.30230  0.24980  Biso   1.000  H
  C268     1.0000 0.23740  0.20890  0.23075  Biso   1.000  C
  C269     1.0000 0.14530  0.18140  0.22056  Biso   1.000  C
  C270     1.0000 0.32340  0.17070  0.22542  Biso   1.000  C
  C271     1.0000 0.40230  0.19770  0.23654  Biso   1.000  C
  H122     1.0000 0.46010  0.17220  0.23310  Biso   1.000  H
  C272     1.0000 0.39610  0.26290  0.25294  Biso   1.000  C
  H123     1.0000 0.44930  0.28080  0.26030  Biso   1.000  H
  C273     1.0000 0.33320  0.10550  0.20726  Biso   1.000  C
  C274     1.0000 0.29210  0.12680  0.18752  Biso   1.000  C
  H124     1.0000 0.25900  0.18220  0.18580  Biso   1.000  H
  C275     1.0000 0.30090  0.06610  0.17086  Biso   1.000  C
  C276     1.0000 0.24860  0.08610  0.15144  Biso   1.000  C
  C277     1.0000 0.15280  0.09380  0.15210  Biso   1.000  C
  C278     1.0000 0.10210  0.11890  0.13434  Biso   1.000  C
  H125     1.0000 0.03750  0.12500  0.13520  Biso   1.000  H
  C279     1.0000 0.14680  0.13490  0.11565  Biso   1.000  C
  C280     1.0000 0.08950  0.16480  0.09680  Biso   1.000  C
  C281     1.0000 0.24290  0.12710  0.11502  Biso   1.000  C
  H126     1.0000 0.27410  0.13790  0.10250  Biso   1.000  H
  C282     1.0000 0.29240  0.10440  0.13212  Biso   1.000  C
  H127     1.0000 0.35720  0.10080  0.13120  Biso   1.000  H
  C283     1.0000 0.35050  0.98440  0.17326  Biso   1.000  C
  H128     1.0000 0.35740  0.94430  0.16190  Biso   1.000  H
  C284     1.0000 0.39020  0.96100  0.19238  Biso   1.000  C
  H129     1.0000 0.42250  0.90510  0.19390  Biso   1.000  H
  C285     1.0000 0.38140  0.02100  0.20905  Biso   1.000  C
  H130     1.0000 0.40810  0.00500  0.22180  Biso   1.000  H
  C286     1.0000 0.09880  0.07050  0.17185  Biso   1.000  C
  Sm14     1.0000 0.72306  0.97981  0.81202  Biso   1.000  Sm
  O118     1.0000 0.54030  0.62890  0.67877  Biso   1.000  O
  O119     1.0000 0.71820  0.88390  0.78172  Biso   1.000  O
  O120     1.0000 0.86850  0.90560  0.78439  Biso   1.000  O
  O121     1.0000 0.62600  0.59650  0.72050  Biso   1.000  O
  O122     1.0000 0.59500  0.74560  0.71395  Biso   1.000  O
  O123     1.0000 0.63080  0.68010  0.57949  Biso   1.000  O
  O124     1.0000 0.50530  0.67900  0.59865  Biso   1.000  O
  O125     1.0000 0.57340  0.00860  0.79916  Biso   1.000  O
  O126     1.0000 0.61390  0.49490  0.68044  Biso   1.000  O
  C287     1.0000 0.79920  0.86670  0.77549  Biso   1.000  C
  C288     1.0000 0.81250  0.79900  0.75788  Biso   1.000  C
  C289     1.0000 0.73390  0.77420  0.74663  Biso   1.000  C
  H131     1.0000 0.67700  0.80230  0.74980  Biso   1.000  H
  C290     1.0000 0.73740  0.70890  0.73075  Biso   1.000  C
  C291     1.0000 0.64530  0.68140  0.72056  Biso   1.000  C
  C292     1.0000 0.82340  0.67070  0.72542  Biso   1.000  C
  C293     1.0000 0.90230  0.69770  0.73654  Biso   1.000  C
  H132     1.0000 0.96010  0.67220  0.73310  Biso   1.000  H
  C294     1.0000 0.89610  0.76290  0.75294  Biso   1.000  C
  H133     1.0000 0.94930  0.78080  0.76030  Biso   1.000  H
  C295     1.0000 0.83320  0.60550  0.70726  Biso   1.000  C
  C296     1.0000 0.79210  0.62680  0.68752  Biso   1.000  C
  H134     1.0000 0.75900  0.68220  0.68580  Biso   1.000  H
  C297     1.0000 0.80090  0.56610  0.67086  Biso   1.000  C
  C298     1.0000 0.74860  0.58610  0.65144  Biso   1.000  C
  C299     1.0000 0.65280  0.59380  0.65210  Biso   1.000  C
  C300     1.0000 0.60210  0.61890  0.63434  Biso   1.000  C
  H135     1.0000 0.53750  0.62500  0.63520  Biso   1.000  H
  C301     1.0000 0.64680  0.63490  0.61565  Biso   1.000  C
  C302     1.0000 0.58950  0.66480  0.59680  Biso   1.000  C
  C303     1.0000 0.74290  0.62710  0.61502  Biso   1.000  C
  H136     1.0000 0.77410  0.63790  0.60250  Biso   1.000  H
  C304     1.0000 0.79240  0.60440  0.63212  Biso   1.000  C
  H137     1.0000 0.85720  0.60080  0.63120  Biso   1.000  H
  C305     1.0000 0.85050  0.48440  0.67326  Biso   1.000  C
  H138     1.0000 0.85740  0.44430  0.66190  Biso   1.000  H
  C306     1.0000 0.89020  0.46100  0.69238  Biso   1.000  C
  H139     1.0000 0.92250  0.40510  0.69390  Biso   1.000  H
  C307     1.0000 0.88140  0.52100  0.70905  Biso   1.000  C
  H140     1.0000 0.90810  0.50500  0.72180  Biso   1.000  H
  C308     1.0000 0.59880  0.57050  0.67185  Biso   1.000  C
  Sm15     1.0000 0.77694  0.52019  0.31202  Biso   1.000  Sm
  O127     1.0000 0.95970  0.87110  0.17877  Biso   1.000  O
  O128     1.0000 0.78180  0.61610  0.28172  Biso   1.000  O
  O129     1.0000 0.63150  0.59440  0.28439  Biso   1.000  O
  O130     1.0000 0.87400  0.90350  0.22050  Biso   1.000  O
  O131     1.0000 0.90500  0.75440  0.21395  Biso   1.000  O
  O132     1.0000 0.86920  0.81990  0.07949  Biso   1.000  O
  O133     1.0000 0.99470  0.82100  0.09865  Biso   1.000  O
  O134     1.0000 0.92660  0.49140  0.29916  Biso   1.000  O
  O135     1.0000 0.88610  0.00510  0.18044  Biso   1.000  O
  C309     1.0000 0.70080  0.63330  0.27549  Biso   1.000  C
  C310     1.0000 0.68750  0.70100  0.25788  Biso   1.000  C
  C311     1.0000 0.76610  0.72580  0.24663  Biso   1.000  C
  H141     1.0000 0.82300  0.69770  0.24980  Biso   1.000  H
  C312     1.0000 0.76260  0.79110  0.23075  Biso   1.000  C
  C313     1.0000 0.85470  0.81860  0.22056  Biso   1.000  C
  C314     1.0000 0.67660  0.82930  0.22542  Biso   1.000  C
  C315     1.0000 0.59770  0.80230  0.23654  Biso   1.000  C
  H142     1.0000 0.53990  0.82780  0.23310  Biso   1.000  H
  C316     1.0000 0.60390  0.73710  0.25294  Biso   1.000  C
  H143     1.0000 0.55070  0.71920  0.26030  Biso   1.000  H
  C317     1.0000 0.66680  0.89450  0.20726  Biso   1.000  C
  C318     1.0000 0.70790  0.87320  0.18752  Biso   1.000  C
  H144     1.0000 0.74100  0.81780  0.18580  Biso   1.000  H
  C319     1.0000 0.69910  0.93390  0.17086  Biso   1.000  C
  C320     1.0000 0.75140  0.91390  0.15144  Biso   1.000  C
  C321     1.0000 0.84720  0.90620  0.15210  Biso   1.000  C
  C322     1.0000 0.89790  0.88110  0.13434  Biso   1.000  C
  H145     1.0000 0.96250  0.87500  0.13520  Biso   1.000  H
  C323     1.0000 0.85320  0.86510  0.11565  Biso   1.000  C
  C324     1.0000 0.91050  0.83520  0.09680  Biso   1.000  C
  C325     1.0000 0.75710  0.87290  0.11502  Biso   1.000  C
  H146     1.0000 0.72590  0.86210  0.10250  Biso   1.000  H
  C326     1.0000 0.70760  0.89560  0.13212  Biso   1.000  C
  H147     1.0000 0.64280  0.89920  0.13120  Biso   1.000  H
  C327     1.0000 0.64950  0.01560  0.17326  Biso   1.000  C
  H148     1.0000 0.64260  0.05570  0.16190  Biso   1.000  H
  C328     1.0000 0.60980  0.03900  0.19238  Biso   1.000  C
  H149     1.0000 0.57750  0.09490  0.19390  Biso   1.000  H
  C329     1.0000 0.61860  0.97900  0.20905  Biso   1.000  C
  H150     1.0000 0.59190  0.99500  0.22180  Biso   1.000  H
  C330     1.0000 0.90120  0.92950  0.17185  Biso   1.000  C
  Sm16     1.0000 0.27694  0.02019  0.81202  Biso   1.000  Sm
  O136     1.0000 0.45970  0.37110  0.67877  Biso   1.000  O
  O137     1.0000 0.28180  0.11610  0.78172  Biso   1.000  O
  O138     1.0000 0.13150  0.09440  0.78439  Biso   1.000  O
  O139     1.0000 0.37400  0.40350  0.72050  Biso   1.000  O
  O140     1.0000 0.40500  0.25440  0.71395  Biso   1.000  O
  O141     1.0000 0.36920  0.31990  0.57949  Biso   1.000  O
  O142     1.0000 0.49470  0.32100  0.59865  Biso   1.000  O
  O143     1.0000 0.42660  0.99140  0.79916  Biso   1.000  O
  O144     1.0000 0.38610  0.50510  0.68044  Biso   1.000  O
  C331     1.0000 0.20080  0.13330  0.77549  Biso   1.000  C
  C332     1.0000 0.18750  0.20100  0.75788  Biso   1.000  C
  C333     1.0000 0.26610  0.22580  0.74663  Biso   1.000  C
  H151     1.0000 0.32300  0.19770  0.74980  Biso   1.000  H
  C334     1.0000 0.26260  0.29110  0.73075  Biso   1.000  C
  C335     1.0000 0.35470  0.31860  0.72056  Biso   1.000  C
  C336     1.0000 0.17660  0.32930  0.72542  Biso   1.000  C
  C337     1.0000 0.09770  0.30230  0.73654  Biso   1.000  C
  H152     1.0000 0.03990  0.32780  0.73310  Biso   1.000  H
  C338     1.0000 0.10390  0.23710  0.75294  Biso   1.000  C
  H153     1.0000 0.05070  0.21920  0.76030  Biso   1.000  H
  C339     1.0000 0.16680  0.39450  0.70726  Biso   1.000  C
  C340     1.0000 0.20790  0.37320  0.68752  Biso   1.000  C
  H154     1.0000 0.24100  0.31780  0.68580  Biso   1.000  H
  C341     1.0000 0.19910  0.43390  0.67086  Biso   1.000  C
  C342     1.0000 0.25140  0.41390  0.65144  Biso   1.000  C
  C343     1.0000 0.34720  0.40620  0.65210  Biso   1.000  C
  C344     1.0000 0.39790  0.38110  0.63434  Biso   1.000  C
  H155     1.0000 0.46250  0.37500  0.63520  Biso   1.000  H
  C345     1.0000 0.35320  0.36510  0.61565  Biso   1.000  C
  C346     1.0000 0.41050  0.33520  0.59680  Biso   1.000  C
  C347     1.0000 0.25710  0.37290  0.61502  Biso   1.000  C
  H156     1.0000 0.22590  0.36210  0.60250  Biso   1.000  H
  C348     1.0000 0.20760  0.39560  0.63212  Biso   1.000  C
  H157     1.0000 0.14280  0.39920  0.63120  Biso   1.000  H
  C349     1.0000 0.14950  0.51560  0.67326  Biso   1.000  C
  H158     1.0000 0.14260  0.55570  0.66190  Biso   1.000  H
  C350     1.0000 0.10980  0.53900  0.69238  Biso   1.000  C
  H159     1.0000 0.07750  0.59490  0.69390  Biso   1.000  H
  C351     1.0000 0.11860  0.47900  0.70905  Biso   1.000  C
  H160     1.0000 0.09190  0.49500  0.72180  Biso   1.000  H
  C352     1.0000 0.40120  0.42950  0.67185  Biso   1.000  C
  Sm17     1.0000 0.00000  0.50000  0.45983  Biso   1.000  Sm
  Sm18     1.0000 0.50000  0.00000  0.95983  Biso   1.000  Sm
  Sm19     1.0000 0.50000  0.00000  0.54017  Biso   1.000  Sm
  Sm20     1.0000 0.00000  0.50000  0.04017  Biso   1.000  Sm
  Sm21     1.0000 0.50000  0.50000  0.29017  Biso   1.000  Sm
  Sm22     1.0000 0.00000  0.00000  0.79017  Biso   1.000  Sm
  Sm23     1.0000 0.00000  0.00000  0.20983  Biso   1.000  Sm
  Sm24     1.0000 0.50000  0.50000  0.70983  Biso   1.000  Sm
  C353     1.0000 0.50000  0.50000  0.55810  Biso   1.000  C
  H161     1.0000 0.50000  0.50000  0.57270  Biso   1.000  H
  C354     1.0000 0.00000  0.00000  0.05810  Biso   1.000  C
  H162     1.0000 0.00000  0.00000  0.07270  Biso   1.000  H
  C355     1.0000 0.50000  0.50000  0.44190  Biso   1.000  C
  H163     1.0000 0.50000  0.50000  0.42730  Biso   1.000  H
  C356     1.0000 0.00000  0.00000  0.94190  Biso   1.000  C
  H164     1.0000 0.00000  0.00000  0.92730  Biso   1.000  H
  C357     1.0000 0.00000  0.50000  0.19190  Biso   1.000  C
  H165     1.0000 0.00000  0.50000  0.17730  Biso   1.000  H
  C358     1.0000 0.50000  0.00000  0.69190  Biso   1.000  C
  H166     1.0000 0.50000  0.00000  0.67730  Biso   1.000  H
  C359     1.0000 0.00000  0.50000  0.30810  Biso   1.000  C
  H167     1.0000 0.00000  0.50000  0.32270  Biso   1.000  H
  C360     1.0000 0.50000  0.00000  0.80810  Biso   1.000  C
  H168     1.0000 0.50000  0.00000  0.82270  Biso   1.000  H
