data_image0
_cell_length_a       14.1545
_cell_length_b       14.1545
_cell_length_c       62.938
_cell_angle_alpha    90
_cell_angle_beta     90
_cell_angle_gamma    90

_symmetry_space_group_name_H-M    "P 1"
_symmetry_int_tables_number       1

loop_
  _symmetry_equiv_pos_as_xyz
  'x, y, z'

loop_
  _atom_site_label
  _atom_site_occupancy
  _atom_site_fract_x
  _atom_site_fract_y
  _atom_site_fract_z
  _atom_site_thermal_displace_type
  _atom_site_B_iso_or_equiv
  _atom_site_type_symbol
  Dy1      1.0000 0.72283  0.48884  0.43889  Biso   1.000  Dy
  O1       1.0000 0.75860  0.59600  0.46489  Biso   1.000  O
  O2       1.0000 0.91080  0.62740  0.47057  Biso   1.000  O
  O3       1.0000 0.61380  0.71760  0.53226  Biso   1.000  O
  O4       1.0000 0.59180  0.87020  0.53473  Biso   1.000  O
  O5       1.0000 0.82420  0.63760  0.32775  Biso   1.000  O
  O6       1.0000 0.82140  0.51020  0.34732  Biso   1.000  O
  O7       1.0000 0.86890  0.54470  0.42870  Biso   1.000  O
  O8       1.0000 0.00810  0.61040  0.42981  Biso   1.000  O
  O9       1.0000 0.56980  0.52550  0.45600  Biso   1.000  O
  C1       1.0000 0.82420  0.64720  0.47128  Biso   1.000  C
  C2       1.0000 0.79590  0.73900  0.48166  Biso   1.000  C
  C3       1.0000 0.72970  0.73410  0.49748  Biso   1.000  C
  H1       1.0000 0.70350  0.67580  0.50090  Biso   1.000  H
  C4       1.0000 0.70060  0.81340  0.50862  Biso   1.000  C
  C5       1.0000 0.73900  0.90060  0.50324  Biso   1.000  C
  H2       1.0000 0.72100  0.95450  0.51070  Biso   1.000  H
  C6       1.0000 0.80280  0.90740  0.48716  Biso   1.000  C
  H3       1.0000 0.82650  0.96640  0.48350  Biso   1.000  H
  C7       1.0000 0.83430  0.82550  0.47579  Biso   1.000  C
  C8       1.0000 0.63000  0.80010  0.52625  Biso   1.000  C
  C9       1.0000 0.90180  0.83580  0.45761  Biso   1.000  C
  C10      1.0000 0.98610  0.88260  0.45990  Biso   1.000  C
  H4       1.0000 0.00190  0.90920  0.47290  Biso   1.000  H
  C11      1.0000 0.04750  0.89040  0.44292  Biso   1.000  C
  H5       1.0000 0.10440  0.92240  0.44470  Biso   1.000  H
  C12      1.0000 0.02550  0.85140  0.42336  Biso   1.000  C
  H6       1.0000 0.06750  0.85650  0.41210  Biso   1.000  H
  C13      1.0000 0.94070  0.80480  0.42086  Biso   1.000  C
  C14      1.0000 0.87790  0.79810  0.43776  Biso   1.000  C
  H7       1.0000 0.81980  0.76850  0.43590  Biso   1.000  H
  C15      1.0000 0.91710  0.75380  0.40070  Biso   1.000  C
  C16      1.0000 0.90360  0.79780  0.38148  Biso   1.000  C
  H8       1.0000 0.91270  0.86280  0.38050  Biso   1.000  H
  C17      1.0000 0.87750  0.74950  0.36382  Biso   1.000  C
  H9       1.0000 0.86610  0.78170  0.35120  Biso   1.000  H
  C18      1.0000 0.86770  0.65270  0.36460  Biso   1.000  C
  C19      1.0000 0.87990  0.60650  0.38337  Biso   1.000  C
  H10      1.0000 0.87010  0.54160  0.38410  Biso   1.000  H
  C20      1.0000 0.90670  0.65570  0.40136  Biso   1.000  C
  C21      1.0000 0.83630  0.59740  0.34544  Biso   1.000  C
  C22      1.0000 0.92980  0.60170  0.42147  Biso   1.000  C
  Dy2      1.0000 0.22283  0.98884  0.93889  Biso   1.000  Dy
  O10      1.0000 0.25860  0.09600  0.96489  Biso   1.000  O
  O11      1.0000 0.41080  0.12740  0.97057  Biso   1.000  O
  O12      1.0000 0.11380  0.21760  0.03226  Biso   1.000  O
  O13      1.0000 0.09180  0.37020  0.03473  Biso   1.000  O
  O14      1.0000 0.32420  0.13760  0.82775  Biso   1.000  O
  O15      1.0000 0.32140  0.01020  0.84732  Biso   1.000  O
  O16      1.0000 0.36890  0.04470  0.92870  Biso   1.000  O
  O17      1.0000 0.50810  0.11040  0.92981  Biso   1.000  O
  O18      1.0000 0.06980  0.02550  0.95600  Biso   1.000  O
  C23      1.0000 0.32420  0.14720  0.97128  Biso   1.000  C
  C24      1.0000 0.29590  0.23900  0.98166  Biso   1.000  C
  C25      1.0000 0.22970  0.23410  0.99748  Biso   1.000  C
  H11      1.0000 0.20350  0.17580  0.00090  Biso   1.000  H
  C26      1.0000 0.20060  0.31340  0.00862  Biso   1.000  C
  C27      1.0000 0.23900  0.40060  0.00324  Biso   1.000  C
  H12      1.0000 0.22100  0.45450  0.01070  Biso   1.000  H
  C28      1.0000 0.30280  0.40740  0.98716  Biso   1.000  C
  H13      1.0000 0.32650  0.46640  0.98350  Biso   1.000  H
  C29      1.0000 0.33430  0.32550  0.97579  Biso   1.000  C
  C30      1.0000 0.13000  0.30010  0.02625  Biso   1.000  C
  C31      1.0000 0.40180  0.33580  0.95761  Biso   1.000  C
  C32      1.0000 0.48610  0.38260  0.95990  Biso   1.000  C
  H14      1.0000 0.50190  0.40920  0.97290  Biso   1.000  H
  C33      1.0000 0.54750  0.39040  0.94292  Biso   1.000  C
  H15      1.0000 0.60440  0.42240  0.94470  Biso   1.000  H
  C34      1.0000 0.52550  0.35140  0.92336  Biso   1.000  C
  H16      1.0000 0.56750  0.35650  0.91210  Biso   1.000  H
  C35      1.0000 0.44070  0.30480  0.92086  Biso   1.000  C
  C36      1.0000 0.37790  0.29810  0.93776  Biso   1.000  C
  H17      1.0000 0.31980  0.26850  0.93590  Biso   1.000  H
  C37      1.0000 0.41710  0.25380  0.90070  Biso   1.000  C
  C38      1.0000 0.40360  0.29780  0.88148  Biso   1.000  C
  H18      1.0000 0.41270  0.36280  0.88050  Biso   1.000  H
  C39      1.0000 0.37750  0.24950  0.86382  Biso   1.000  C
  H19      1.0000 0.36610  0.28170  0.85120  Biso   1.000  H
  C40      1.0000 0.36770  0.15270  0.86460  Biso   1.000  C
  C41      1.0000 0.37990  0.10650  0.88337  Biso   1.000  C
  H20      1.0000 0.37010  0.04160  0.88410  Biso   1.000  H
  C42      1.0000 0.40670  0.15570  0.90136  Biso   1.000  C
  C43      1.0000 0.33630  0.09740  0.84544  Biso   1.000  C
  C44      1.0000 0.42980  0.10170  0.92147  Biso   1.000  C
  Dy3      1.0000 0.27717  0.51116  0.43889  Biso   1.000  Dy
  O19      1.0000 0.24140  0.40400  0.46489  Biso   1.000  O
  O20      1.0000 0.08920  0.37260  0.47057  Biso   1.000  O
  O21      1.0000 0.38620  0.28240  0.53226  Biso   1.000  O
  O22      1.0000 0.40820  0.12980  0.53473  Biso   1.000  O
  O23      1.0000 0.17580  0.36240  0.32775  Biso   1.000  O
  O24      1.0000 0.17860  0.48980  0.34732  Biso   1.000  O
  O25      1.0000 0.13110  0.45530  0.42870  Biso   1.000  O
  O26      1.0000 0.99190  0.38960  0.42981  Biso   1.000  O
  O27      1.0000 0.43020  0.47450  0.45600  Biso   1.000  O
  C45      1.0000 0.17580  0.35280  0.47128  Biso   1.000  C
  C46      1.0000 0.20410  0.26100  0.48166  Biso   1.000  C
  C47      1.0000 0.27030  0.26590  0.49748  Biso   1.000  C
  H21      1.0000 0.29650  0.32420  0.50090  Biso   1.000  H
  C48      1.0000 0.29940  0.18660  0.50862  Biso   1.000  C
  C49      1.0000 0.26100  0.09940  0.50324  Biso   1.000  C
  H22      1.0000 0.27900  0.04550  0.51070  Biso   1.000  H
  C50      1.0000 0.19720  0.09260  0.48716  Biso   1.000  C
  H23      1.0000 0.17350  0.03360  0.48350  Biso   1.000  H
  C51      1.0000 0.16570  0.17450  0.47579  Biso   1.000  C
  C52      1.0000 0.37000  0.19990  0.52625  Biso   1.000  C
  C53      1.0000 0.09820  0.16420  0.45761  Biso   1.000  C
  C54      1.0000 0.01390  0.11740  0.45990  Biso   1.000  C
  H24      1.0000 0.99810  0.09080  0.47290  Biso   1.000  H
  C55      1.0000 0.95250  0.10960  0.44292  Biso   1.000  C
  H25      1.0000 0.89560  0.07760  0.44470  Biso   1.000  H
  C56      1.0000 0.97450  0.14860  0.42336  Biso   1.000  C
  H26      1.0000 0.93250  0.14350  0.41210  Biso   1.000  H
  C57      1.0000 0.05930  0.19520  0.42086  Biso   1.000  C
  C58      1.0000 0.12210  0.20190  0.43776  Biso   1.000  C
  H27      1.0000 0.18020  0.23150  0.43590  Biso   1.000  H
  C59      1.0000 0.08290  0.24620  0.40070  Biso   1.000  C
  C60      1.0000 0.09640  0.20220  0.38148  Biso   1.000  C
  H28      1.0000 0.08730  0.13720  0.38050  Biso   1.000  H
  C61      1.0000 0.12250  0.25050  0.36382  Biso   1.000  C
  H29      1.0000 0.13390  0.21830  0.35120  Biso   1.000  H
  C62      1.0000 0.13230  0.34730  0.36460  Biso   1.000  C
  C63      1.0000 0.12010  0.39350  0.38337  Biso   1.000  C
  H30      1.0000 0.12990  0.45840  0.38410  Biso   1.000  H
  C64      1.0000 0.09330  0.34430  0.40136  Biso   1.000  C
  C65      1.0000 0.16370  0.40260  0.34544  Biso   1.000  C
  C66      1.0000 0.07020  0.39830  0.42147  Biso   1.000  C
  Dy4      1.0000 0.77717  0.01116  0.93889  Biso   1.000  Dy
  O28      1.0000 0.74140  0.90400  0.96489  Biso   1.000  O
  O29      1.0000 0.58920  0.87260  0.97057  Biso   1.000  O
  O30      1.0000 0.88620  0.78240  0.03226  Biso   1.000  O
  O31      1.0000 0.90820  0.62980  0.03473  Biso   1.000  O
  O32      1.0000 0.67580  0.86240  0.82775  Biso   1.000  O
  O33      1.0000 0.67860  0.98980  0.84732  Biso   1.000  O
  O34      1.0000 0.63110  0.95530  0.92870  Biso   1.000  O
  O35      1.0000 0.49190  0.88960  0.92981  Biso   1.000  O
  O36      1.0000 0.93020  0.97450  0.95600  Biso   1.000  O
  C67      1.0000 0.67580  0.85280  0.97128  Biso   1.000  C
  C68      1.0000 0.70410  0.76100  0.98166  Biso   1.000  C
  C69      1.0000 0.77030  0.76590  0.99748  Biso   1.000  C
  H31      1.0000 0.79650  0.82420  0.00090  Biso   1.000  H
  C70      1.0000 0.79940  0.68660  0.00862  Biso   1.000  C
  C71      1.0000 0.76100  0.59940  0.00324  Biso   1.000  C
  H32      1.0000 0.77900  0.54550  0.01070  Biso   1.000  H
  C72      1.0000 0.69720  0.59260  0.98716  Biso   1.000  C
  H33      1.0000 0.67350  0.53360  0.98350  Biso   1.000  H
  C73      1.0000 0.66570  0.67450  0.97579  Biso   1.000  C
  C74      1.0000 0.87000  0.69990  0.02625  Biso   1.000  C
  C75      1.0000 0.59820  0.66420  0.95761  Biso   1.000  C
  C76      1.0000 0.51390  0.61740  0.95990  Biso   1.000  C
  H34      1.0000 0.49810  0.59080  0.97290  Biso   1.000  H
  C77      1.0000 0.45250  0.60960  0.94292  Biso   1.000  C
  H35      1.0000 0.39560  0.57760  0.94470  Biso   1.000  H
  C78      1.0000 0.47450  0.64860  0.92336  Biso   1.000  C
  H36      1.0000 0.43250  0.64350  0.91210  Biso   1.000  H
  C79      1.0000 0.55930  0.69520  0.92086  Biso   1.000  C
  C80      1.0000 0.62210  0.70190  0.93776  Biso   1.000  C
  H37      1.0000 0.68020  0.73150  0.93590  Biso   1.000  H
  C81      1.0000 0.58290  0.74620  0.90070  Biso   1.000  C
  C82      1.0000 0.59640  0.70220  0.88148  Biso   1.000  C
  H38      1.0000 0.58730  0.63720  0.88050  Biso   1.000  H
  C83      1.0000 0.62250  0.75050  0.86382  Biso   1.000  C
  H39      1.0000 0.63390  0.71830  0.85120  Biso   1.000  H
  C84      1.0000 0.63230  0.84730  0.86460  Biso   1.000  C
  C85      1.0000 0.62010  0.89350  0.88337  Biso   1.000  C
  H40      1.0000 0.62990  0.95840  0.88410  Biso   1.000  H
  C86      1.0000 0.59330  0.84430  0.90136  Biso   1.000  C
  C87      1.0000 0.66370  0.90260  0.84544  Biso   1.000  C
  C88      1.0000 0.57020  0.89830  0.92147  Biso   1.000  C
  Dy5      1.0000 0.48884  0.27717  0.56111  Biso   1.000  Dy
  O37      1.0000 0.59600  0.24140  0.53511  Biso   1.000  O
  O38      1.0000 0.62740  0.08920  0.52943  Biso   1.000  O
  O39      1.0000 0.71760  0.38620  0.46774  Biso   1.000  O
  O40      1.0000 0.87020  0.40820  0.46527  Biso   1.000  O
  O41      1.0000 0.63760  0.17580  0.67225  Biso   1.000  O
  O42      1.0000 0.51020  0.17860  0.65268  Biso   1.000  O
  O43      1.0000 0.54470  0.13110  0.57130  Biso   1.000  O
  O44      1.0000 0.61040  0.99190  0.57019  Biso   1.000  O
  O45      1.0000 0.52550  0.43020  0.54400  Biso   1.000  O
  C89      1.0000 0.64720  0.17580  0.52872  Biso   1.000  C
  C90      1.0000 0.73900  0.20410  0.51834  Biso   1.000  C
  C91      1.0000 0.73410  0.27030  0.50252  Biso   1.000  C
  H41      1.0000 0.67580  0.29650  0.49910  Biso   1.000  H
  C92      1.0000 0.81340  0.29940  0.49138  Biso   1.000  C
  C93      1.0000 0.90060  0.26100  0.49676  Biso   1.000  C
  H42      1.0000 0.95450  0.27900  0.48930  Biso   1.000  H
  C94      1.0000 0.90740  0.19720  0.51284  Biso   1.000  C
  H43      1.0000 0.96640  0.17350  0.51650  Biso   1.000  H
  C95      1.0000 0.82550  0.16570  0.52421  Biso   1.000  C
  C96      1.0000 0.80010  0.37000  0.47375  Biso   1.000  C
  C97      1.0000 0.83580  0.09820  0.54239  Biso   1.000  C
  C98      1.0000 0.88260  0.01390  0.54010  Biso   1.000  C
  H44      1.0000 0.90920  0.99810  0.52710  Biso   1.000  H
  C99      1.0000 0.89040  0.95250  0.55708  Biso   1.000  C
  H45      1.0000 0.92240  0.89560  0.55530  Biso   1.000  H
  C100     1.0000 0.85140  0.97450  0.57664  Biso   1.000  C
  H46      1.0000 0.85650  0.93250  0.58790  Biso   1.000  H
  C101     1.0000 0.80480  0.05930  0.57914  Biso   1.000  C
  C102     1.0000 0.79810  0.12210  0.56224  Biso   1.000  C
  H47      1.0000 0.76850  0.18020  0.56410  Biso   1.000  H
  C103     1.0000 0.75380  0.08290  0.59930  Biso   1.000  C
  C104     1.0000 0.79780  0.09640  0.61852  Biso   1.000  C
  H48      1.0000 0.86280  0.08730  0.61950  Biso   1.000  H
  C105     1.0000 0.74950  0.12250  0.63618  Biso   1.000  C
  H49      1.0000 0.78170  0.13390  0.64880  Biso   1.000  H
  C106     1.0000 0.65270  0.13230  0.63540  Biso   1.000  C
  C107     1.0000 0.60650  0.12010  0.61663  Biso   1.000  C
  H50      1.0000 0.54160  0.12990  0.61590  Biso   1.000  H
  C108     1.0000 0.65570  0.09330  0.59864  Biso   1.000  C
  C109     1.0000 0.59740  0.16370  0.65456  Biso   1.000  C
  C110     1.0000 0.60170  0.07020  0.57853  Biso   1.000  C
  Dy6      1.0000 0.98884  0.77717  0.06111  Biso   1.000  Dy
  O46      1.0000 0.09600  0.74140  0.03511  Biso   1.000  O
  O47      1.0000 0.12740  0.58920  0.02943  Biso   1.000  O
  O48      1.0000 0.21760  0.88620  0.96774  Biso   1.000  O
  O49      1.0000 0.37020  0.90820  0.96527  Biso   1.000  O
  O50      1.0000 0.13760  0.67580  0.17225  Biso   1.000  O
  O51      1.0000 0.01020  0.67860  0.15268  Biso   1.000  O
  O52      1.0000 0.04470  0.63110  0.07130  Biso   1.000  O
  O53      1.0000 0.11040  0.49190  0.07019  Biso   1.000  O
  O54      1.0000 0.02550  0.93020  0.04400  Biso   1.000  O
  C111     1.0000 0.14720  0.67580  0.02872  Biso   1.000  C
  C112     1.0000 0.23900  0.70410  0.01834  Biso   1.000  C
  C113     1.0000 0.23410  0.77030  0.00252  Biso   1.000  C
  H51      1.0000 0.17580  0.79650  0.99910  Biso   1.000  H
  C114     1.0000 0.31340  0.79940  0.99138  Biso   1.000  C
  C115     1.0000 0.40060  0.76100  0.99676  Biso   1.000  C
  H52      1.0000 0.45450  0.77900  0.98930  Biso   1.000  H
  C116     1.0000 0.40740  0.69720  0.01284  Biso   1.000  C
  H53      1.0000 0.46640  0.67350  0.01650  Biso   1.000  H
  C117     1.0000 0.32550  0.66570  0.02421  Biso   1.000  C
  C118     1.0000 0.30010  0.87000  0.97375  Biso   1.000  C
  C119     1.0000 0.33580  0.59820  0.04239  Biso   1.000  C
  C120     1.0000 0.38260  0.51390  0.04010  Biso   1.000  C
  H54      1.0000 0.40920  0.49810  0.02710  Biso   1.000  H
  C121     1.0000 0.39040  0.45250  0.05708  Biso   1.000  C
  H55      1.0000 0.42240  0.39560  0.05530  Biso   1.000  H
  C122     1.0000 0.35140  0.47450  0.07664  Biso   1.000  C
  H56      1.0000 0.35650  0.43250  0.08790  Biso   1.000  H
  C123     1.0000 0.30480  0.55930  0.07914  Biso   1.000  C
  C124     1.0000 0.29810  0.62210  0.06224  Biso   1.000  C
  H57      1.0000 0.26850  0.68020  0.06410  Biso   1.000  H
  C125     1.0000 0.25380  0.58290  0.09930  Biso   1.000  C
  C126     1.0000 0.29780  0.59640  0.11852  Biso   1.000  C
  H58      1.0000 0.36280  0.58730  0.11950  Biso   1.000  H
  C127     1.0000 0.24950  0.62250  0.13618  Biso   1.000  C
  H59      1.0000 0.28170  0.63390  0.14880  Biso   1.000  H
  C128     1.0000 0.15270  0.63230  0.13540  Biso   1.000  C
  C129     1.0000 0.10650  0.62010  0.11663  Biso   1.000  C
  H60      1.0000 0.04160  0.62990  0.11590  Biso   1.000  H
  C130     1.0000 0.15570  0.59330  0.09864  Biso   1.000  C
  C131     1.0000 0.09740  0.66370  0.15456  Biso   1.000  C
  C132     1.0000 0.10170  0.57020  0.07853  Biso   1.000  C
  Dy7      1.0000 0.51116  0.72283  0.56111  Biso   1.000  Dy
  O55      1.0000 0.40400  0.75860  0.53511  Biso   1.000  O
  O56      1.0000 0.37260  0.91080  0.52943  Biso   1.000  O
  O57      1.0000 0.28240  0.61380  0.46774  Biso   1.000  O
  O58      1.0000 0.12980  0.59180  0.46527  Biso   1.000  O
  O59      1.0000 0.36240  0.82420  0.67225  Biso   1.000  O
  O60      1.0000 0.48980  0.82140  0.65268  Biso   1.000  O
  O61      1.0000 0.45530  0.86890  0.57130  Biso   1.000  O
  O62      1.0000 0.38960  0.00810  0.57019  Biso   1.000  O
  O63      1.0000 0.47450  0.56980  0.54400  Biso   1.000  O
  C133     1.0000 0.35280  0.82420  0.52872  Biso   1.000  C
  C134     1.0000 0.26100  0.79590  0.51834  Biso   1.000  C
  C135     1.0000 0.26590  0.72970  0.50252  Biso   1.000  C
  H61      1.0000 0.32420  0.70350  0.49910  Biso   1.000  H
  C136     1.0000 0.18660  0.70060  0.49138  Biso   1.000  C
  C137     1.0000 0.09940  0.73900  0.49676  Biso   1.000  C
  H62      1.0000 0.04550  0.72100  0.48930  Biso   1.000  H
  C138     1.0000 0.09260  0.80280  0.51284  Biso   1.000  C
  H63      1.0000 0.03360  0.82650  0.51650  Biso   1.000  H
  C139     1.0000 0.17450  0.83430  0.52421  Biso   1.000  C
  C140     1.0000 0.19990  0.63000  0.47375  Biso   1.000  C
  C141     1.0000 0.16420  0.90180  0.54239  Biso   1.000  C
  C142     1.0000 0.11740  0.98610  0.54010  Biso   1.000  C
  H64      1.0000 0.09080  0.00190  0.52710  Biso   1.000  H
  C143     1.0000 0.10960  0.04750  0.55708  Biso   1.000  C
  H65      1.0000 0.07760  0.10440  0.55530  Biso   1.000  H
  C144     1.0000 0.14860  0.02550  0.57664  Biso   1.000  C
  H66      1.0000 0.14350  0.06750  0.58790  Biso   1.000  H
  C145     1.0000 0.19520  0.94070  0.57914  Biso   1.000  C
  C146     1.0000 0.20190  0.87790  0.56224  Biso   1.000  C
  H67      1.0000 0.23150  0.81980  0.56410  Biso   1.000  H
  C147     1.0000 0.24620  0.91710  0.59930  Biso   1.000  C
  C148     1.0000 0.20220  0.90360  0.61852  Biso   1.000  C
  H68      1.0000 0.13720  0.91270  0.61950  Biso   1.000  H
  C149     1.0000 0.25050  0.87750  0.63618  Biso   1.000  C
  H69      1.0000 0.21830  0.86610  0.64880  Biso   1.000  H
  C150     1.0000 0.34730  0.86770  0.63540  Biso   1.000  C
  C151     1.0000 0.39350  0.87990  0.61663  Biso   1.000  C
  H70      1.0000 0.45840  0.87010  0.61590  Biso   1.000  H
  C152     1.0000 0.34430  0.90670  0.59864  Biso   1.000  C
  C153     1.0000 0.40260  0.83630  0.65456  Biso   1.000  C
  C154     1.0000 0.39830  0.92980  0.57853  Biso   1.000  C
  Dy8      1.0000 0.01116  0.22283  0.06111  Biso   1.000  Dy
  O64      1.0000 0.90400  0.25860  0.03511  Biso   1.000  O
  O65      1.0000 0.87260  0.41080  0.02943  Biso   1.000  O
  O66      1.0000 0.78240  0.11380  0.96774  Biso   1.000  O
  O67      1.0000 0.62980  0.09180  0.96527  Biso   1.000  O
  O68      1.0000 0.86240  0.32420  0.17225  Biso   1.000  O
  O69      1.0000 0.98980  0.32140  0.15268  Biso   1.000  O
  O70      1.0000 0.95530  0.36890  0.07130  Biso   1.000  O
  O71      1.0000 0.88960  0.50810  0.07019  Biso   1.000  O
  O72      1.0000 0.97450  0.06980  0.04400  Biso   1.000  O
  C155     1.0000 0.85280  0.32420  0.02872  Biso   1.000  C
  C156     1.0000 0.76100  0.29590  0.01834  Biso   1.000  C
  C157     1.0000 0.76590  0.22970  0.00252  Biso   1.000  C
  H71      1.0000 0.82420  0.20350  0.99910  Biso   1.000  H
  C158     1.0000 0.68660  0.20060  0.99138  Biso   1.000  C
  C159     1.0000 0.59940  0.23900  0.99676  Biso   1.000  C
  H72      1.0000 0.54550  0.22100  0.98930  Biso   1.000  H
  C160     1.0000 0.59260  0.30280  0.01284  Biso   1.000  C
  H73      1.0000 0.53360  0.32650  0.01650  Biso   1.000  H
  C161     1.0000 0.67450  0.33430  0.02421  Biso   1.000  C
  C162     1.0000 0.69990  0.13000  0.97375  Biso   1.000  C
  C163     1.0000 0.66420  0.40180  0.04239  Biso   1.000  C
  C164     1.0000 0.61740  0.48610  0.04010  Biso   1.000  C
  H74      1.0000 0.59080  0.50190  0.02710  Biso   1.000  H
  C165     1.0000 0.60960  0.54750  0.05708  Biso   1.000  C
  H75      1.0000 0.57760  0.60440  0.05530  Biso   1.000  H
  C166     1.0000 0.64860  0.52550  0.07664  Biso   1.000  C
  H76      1.0000 0.64350  0.56750  0.08790  Biso   1.000  H
  C167     1.0000 0.69520  0.44070  0.07914  Biso   1.000  C
  C168     1.0000 0.70190  0.37790  0.06224  Biso   1.000  C
  H77      1.0000 0.73150  0.31980  0.06410  Biso   1.000  H
  C169     1.0000 0.74620  0.41710  0.09930  Biso   1.000  C
  C170     1.0000 0.70220  0.40360  0.11852  Biso   1.000  C
  H78      1.0000 0.63720  0.41270  0.11950  Biso   1.000  H
  C171     1.0000 0.75050  0.37750  0.13618  Biso   1.000  C
  H79      1.0000 0.71830  0.36610  0.14880  Biso   1.000  H
  C172     1.0000 0.84730  0.36770  0.13540  Biso   1.000  C
  C173     1.0000 0.89350  0.37990  0.11663  Biso   1.000  C
  H80      1.0000 0.95840  0.37010  0.11590  Biso   1.000  H
  C174     1.0000 0.84430  0.40670  0.09864  Biso   1.000  C
  C175     1.0000 0.90260  0.33630  0.15456  Biso   1.000  C
  C176     1.0000 0.89830  0.42980  0.07853  Biso   1.000  C
  Dy9      1.0000 0.77717  0.48884  0.31111  Biso   1.000  Dy
  O73      1.0000 0.74140  0.59600  0.28511  Biso   1.000  O
  O74      1.0000 0.58920  0.62740  0.27943  Biso   1.000  O
  O75      1.0000 0.88620  0.71760  0.21774  Biso   1.000  O
  O76      1.0000 0.90820  0.87020  0.21527  Biso   1.000  O
  O77      1.0000 0.67580  0.63760  0.42225  Biso   1.000  O
  O78      1.0000 0.67860  0.51020  0.40268  Biso   1.000  O
  O79      1.0000 0.63110  0.54470  0.32130  Biso   1.000  O
  O80      1.0000 0.49190  0.61040  0.32019  Biso   1.000  O
  O81      1.0000 0.93020  0.52550  0.29400  Biso   1.000  O
  C177     1.0000 0.67580  0.64720  0.27872  Biso   1.000  C
  C178     1.0000 0.70410  0.73900  0.26834  Biso   1.000  C
  C179     1.0000 0.77030  0.73410  0.25252  Biso   1.000  C
  H81      1.0000 0.79650  0.67580  0.24910  Biso   1.000  H
  C180     1.0000 0.79940  0.81340  0.24138  Biso   1.000  C
  C181     1.0000 0.76100  0.90060  0.24676  Biso   1.000  C
  H82      1.0000 0.77900  0.95450  0.23930  Biso   1.000  H
  C182     1.0000 0.69720  0.90740  0.26284  Biso   1.000  C
  H83      1.0000 0.67350  0.96640  0.26650  Biso   1.000  H
  C183     1.0000 0.66570  0.82550  0.27421  Biso   1.000  C
  C184     1.0000 0.87000  0.80010  0.22375  Biso   1.000  C
  C185     1.0000 0.59820  0.83580  0.29239  Biso   1.000  C
  C186     1.0000 0.51390  0.88260  0.29010  Biso   1.000  C
  H84      1.0000 0.49810  0.90920  0.27710  Biso   1.000  H
  C187     1.0000 0.45250  0.89040  0.30708  Biso   1.000  C
  H85      1.0000 0.39560  0.92240  0.30530  Biso   1.000  H
  C188     1.0000 0.47450  0.85140  0.32664  Biso   1.000  C
  H86      1.0000 0.43250  0.85650  0.33790  Biso   1.000  H
  C189     1.0000 0.55930  0.80480  0.32914  Biso   1.000  C
  C190     1.0000 0.62210  0.79810  0.31224  Biso   1.000  C
  H87      1.0000 0.68020  0.76850  0.31410  Biso   1.000  H
  C191     1.0000 0.58290  0.75380  0.34930  Biso   1.000  C
  C192     1.0000 0.59640  0.79780  0.36852  Biso   1.000  C
  H88      1.0000 0.58730  0.86280  0.36950  Biso   1.000  H
  C193     1.0000 0.62250  0.74950  0.38618  Biso   1.000  C
  H89      1.0000 0.63390  0.78170  0.39880  Biso   1.000  H
  C194     1.0000 0.63230  0.65270  0.38540  Biso   1.000  C
  C195     1.0000 0.62010  0.60650  0.36663  Biso   1.000  C
  H90      1.0000 0.62990  0.54160  0.36590  Biso   1.000  H
  C196     1.0000 0.59330  0.65570  0.34864  Biso   1.000  C
  C197     1.0000 0.66370  0.59740  0.40456  Biso   1.000  C
  C198     1.0000 0.57020  0.60170  0.32853  Biso   1.000  C
  Dy10     1.0000 0.27717  0.98884  0.81111  Biso   1.000  Dy
  O82      1.0000 0.24140  0.09600  0.78511  Biso   1.000  O
  O83      1.0000 0.08920  0.12740  0.77943  Biso   1.000  O
  O84      1.0000 0.38620  0.21760  0.71774  Biso   1.000  O
  O85      1.0000 0.40820  0.37020  0.71527  Biso   1.000  O
  O86      1.0000 0.17580  0.13760  0.92225  Biso   1.000  O
  O87      1.0000 0.17860  0.01020  0.90268  Biso   1.000  O
  O88      1.0000 0.13110  0.04470  0.82130  Biso   1.000  O
  O89      1.0000 0.99190  0.11040  0.82019  Biso   1.000  O
  O90      1.0000 0.43020  0.02550  0.79400  Biso   1.000  O
  C199     1.0000 0.17580  0.14720  0.77872  Biso   1.000  C
  C200     1.0000 0.20410  0.23900  0.76834  Biso   1.000  C
  C201     1.0000 0.27030  0.23410  0.75252  Biso   1.000  C
  H91      1.0000 0.29650  0.17580  0.74910  Biso   1.000  H
  C202     1.0000 0.29940  0.31340  0.74138  Biso   1.000  C
  C203     1.0000 0.26100  0.40060  0.74676  Biso   1.000  C
  H92      1.0000 0.27900  0.45450  0.73930  Biso   1.000  H
  C204     1.0000 0.19720  0.40740  0.76284  Biso   1.000  C
  H93      1.0000 0.17350  0.46640  0.76650  Biso   1.000  H
  C205     1.0000 0.16570  0.32550  0.77421  Biso   1.000  C
  C206     1.0000 0.37000  0.30010  0.72375  Biso   1.000  C
  C207     1.0000 0.09820  0.33580  0.79239  Biso   1.000  C
  C208     1.0000 0.01390  0.38260  0.79010  Biso   1.000  C
  H94      1.0000 0.99810  0.40920  0.77710  Biso   1.000  H
  C209     1.0000 0.95250  0.39040  0.80708  Biso   1.000  C
  H95      1.0000 0.89560  0.42240  0.80530  Biso   1.000  H
  C210     1.0000 0.97450  0.35140  0.82664  Biso   1.000  C
  H96      1.0000 0.93250  0.35650  0.83790  Biso   1.000  H
  C211     1.0000 0.05930  0.30480  0.82914  Biso   1.000  C
  C212     1.0000 0.12210  0.29810  0.81224  Biso   1.000  C
  H97      1.0000 0.18020  0.26850  0.81410  Biso   1.000  H
  C213     1.0000 0.08290  0.25380  0.84930  Biso   1.000  C
  C214     1.0000 0.09640  0.29780  0.86852  Biso   1.000  C
  H98      1.0000 0.08730  0.36280  0.86950  Biso   1.000  H
  C215     1.0000 0.12250  0.24950  0.88618  Biso   1.000  C
  H99      1.0000 0.13390  0.28170  0.89880  Biso   1.000  H
  C216     1.0000 0.13230  0.15270  0.88540  Biso   1.000  C
  C217     1.0000 0.12010  0.10650  0.86663  Biso   1.000  C
  H100     1.0000 0.12990  0.04160  0.86590  Biso   1.000  H
  C218     1.0000 0.09330  0.15570  0.84864  Biso   1.000  C
  C219     1.0000 0.16370  0.09740  0.90456  Biso   1.000  C
  C220     1.0000 0.07020  0.10170  0.82853  Biso   1.000  C
  Dy11     1.0000 0.22283  0.51116  0.31111  Biso   1.000  Dy
  O91      1.0000 0.25860  0.40400  0.28511  Biso   1.000  O
  O92      1.0000 0.41080  0.37260  0.27943  Biso   1.000  O
  O93      1.0000 0.11380  0.28240  0.21774  Biso   1.000  O
  O94      1.0000 0.09180  0.12980  0.21527  Biso   1.000  O
  O95      1.0000 0.32420  0.36240  0.42225  Biso   1.000  O
  O96      1.0000 0.32140  0.48980  0.40268  Biso   1.000  O
  O97      1.0000 0.36890  0.45530  0.32130  Biso   1.000  O
  O98      1.0000 0.50810  0.38960  0.32019  Biso   1.000  O
  O99      1.0000 0.06980  0.47450  0.29400  Biso   1.000  O
  C221     1.0000 0.32420  0.35280  0.27872  Biso   1.000  C
  C222     1.0000 0.29590  0.26100  0.26834  Biso   1.000  C
  C223     1.0000 0.22970  0.26590  0.25252  Biso   1.000  C
  H101     1.0000 0.20350  0.32420  0.24910  Biso   1.000  H
  C224     1.0000 0.20060  0.18660  0.24138  Biso   1.000  C
  C225     1.0000 0.23900  0.09940  0.24676  Biso   1.000  C
  H102     1.0000 0.22100  0.04550  0.23930  Biso   1.000  H
  C226     1.0000 0.30280  0.09260  0.26284  Biso   1.000  C
  H103     1.0000 0.32650  0.03360  0.26650  Biso   1.000  H
  C227     1.0000 0.33430  0.17450  0.27421  Biso   1.000  C
  C228     1.0000 0.13000  0.19990  0.22375  Biso   1.000  C
  C229     1.0000 0.40180  0.16420  0.29239  Biso   1.000  C
  C230     1.0000 0.48610  0.11740  0.29010  Biso   1.000  C
  H104     1.0000 0.50190  0.09080  0.27710  Biso   1.000  H
  C231     1.0000 0.54750  0.10960  0.30708  Biso   1.000  C
  H105     1.0000 0.60440  0.07760  0.30530  Biso   1.000  H
  C232     1.0000 0.52550  0.14860  0.32664  Biso   1.000  C
  H106     1.0000 0.56750  0.14350  0.33790  Biso   1.000  H
  C233     1.0000 0.44070  0.19520  0.32914  Biso   1.000  C
  C234     1.0000 0.37790  0.20190  0.31224  Biso   1.000  C
  H107     1.0000 0.31980  0.23150  0.31410  Biso   1.000  H
  C235     1.0000 0.41710  0.24620  0.34930  Biso   1.000  C
  C236     1.0000 0.40360  0.20220  0.36852  Biso   1.000  C
  H108     1.0000 0.41270  0.13720  0.36950  Biso   1.000  H
  C237     1.0000 0.37750  0.25050  0.38618  Biso   1.000  C
  H109     1.0000 0.36610  0.21830  0.39880  Biso   1.000  H
  C238     1.0000 0.36770  0.34730  0.38540  Biso   1.000  C
  C239     1.0000 0.37990  0.39350  0.36663  Biso   1.000  C
  H110     1.0000 0.37010  0.45840  0.36590  Biso   1.000  H
  C240     1.0000 0.40670  0.34430  0.34864  Biso   1.000  C
  C241     1.0000 0.33630  0.40260  0.40456  Biso   1.000  C
  C242     1.0000 0.42980  0.39830  0.32853  Biso   1.000  C
  Dy12     1.0000 0.72283  0.01116  0.81111  Biso   1.000  Dy
  O100     1.0000 0.75860  0.90400  0.78511  Biso   1.000  O
  O101     1.0000 0.91080  0.87260  0.77943  Biso   1.000  O
  O102     1.0000 0.61380  0.78240  0.71774  Biso   1.000  O
  O103     1.0000 0.59180  0.62980  0.71527  Biso   1.000  O
  O104     1.0000 0.82420  0.86240  0.92225  Biso   1.000  O
  O105     1.0000 0.82140  0.98980  0.90268  Biso   1.000  O
  O106     1.0000 0.86890  0.95530  0.82130  Biso   1.000  O
  O107     1.0000 0.00810  0.88960  0.82019  Biso   1.000  O
  O108     1.0000 0.56980  0.97450  0.79400  Biso   1.000  O
  C243     1.0000 0.82420  0.85280  0.77872  Biso   1.000  C
  C244     1.0000 0.79590  0.76100  0.76834  Biso   1.000  C
  C245     1.0000 0.72970  0.76590  0.75252  Biso   1.000  C
  H111     1.0000 0.70350  0.82420  0.74910  Biso   1.000  H
  C246     1.0000 0.70060  0.68660  0.74138  Biso   1.000  C
  C247     1.0000 0.73900  0.59940  0.74676  Biso   1.000  C
  H112     1.0000 0.72100  0.54550  0.73930  Biso   1.000  H
  C248     1.0000 0.80280  0.59260  0.76284  Biso   1.000  C
  H113     1.0000 0.82650  0.53360  0.76650  Biso   1.000  H
  C249     1.0000 0.83430  0.67450  0.77421  Biso   1.000  C
  C250     1.0000 0.63000  0.69990  0.72375  Biso   1.000  C
  C251     1.0000 0.90180  0.66420  0.79239  Biso   1.000  C
  C252     1.0000 0.98610  0.61740  0.79010  Biso   1.000  C
  H114     1.0000 0.00190  0.59080  0.77710  Biso   1.000  H
  C253     1.0000 0.04750  0.60960  0.80708  Biso   1.000  C
  H115     1.0000 0.10440  0.57760  0.80530  Biso   1.000  H
  C254     1.0000 0.02550  0.64860  0.82664  Biso   1.000  C
  H116     1.0000 0.06750  0.64350  0.83790  Biso   1.000  H
  C255     1.0000 0.94070  0.69520  0.82914  Biso   1.000  C
  C256     1.0000 0.87790  0.70190  0.81224  Biso   1.000  C
  H117     1.0000 0.81980  0.73150  0.81410  Biso   1.000  H
  C257     1.0000 0.91710  0.74620  0.84930  Biso   1.000  C
  C258     1.0000 0.90360  0.70220  0.86852  Biso   1.000  C
  H118     1.0000 0.91270  0.63720  0.86950  Biso   1.000  H
  C259     1.0000 0.87750  0.75050  0.88618  Biso   1.000  C
  H119     1.0000 0.86610  0.71830  0.89880  Biso   1.000  H
  C260     1.0000 0.86770  0.84730  0.88540  Biso   1.000  C
  C261     1.0000 0.87990  0.89350  0.86663  Biso   1.000  C
  H120     1.0000 0.87010  0.95840  0.86590  Biso   1.000  H
  C262     1.0000 0.90670  0.84430  0.84864  Biso   1.000  C
  C263     1.0000 0.83630  0.90260  0.90456  Biso   1.000  C
  C264     1.0000 0.92980  0.89830  0.82853  Biso   1.000  C
  Dy13     1.0000 0.01116  0.27717  0.18889  Biso   1.000  Dy
  O109     1.0000 0.90400  0.24140  0.21489  Biso   1.000  O
  O110     1.0000 0.87260  0.08920  0.22057  Biso   1.000  O
  O111     1.0000 0.78240  0.38620  0.28226  Biso   1.000  O
  O112     1.0000 0.62980  0.40820  0.28473  Biso   1.000  O
  O113     1.0000 0.86240  0.17580  0.07775  Biso   1.000  O
  O114     1.0000 0.98980  0.17860  0.09732  Biso   1.000  O
  O115     1.0000 0.95530  0.13110  0.17870  Biso   1.000  O
  O116     1.0000 0.88960  0.99190  0.17981  Biso   1.000  O
  O117     1.0000 0.97450  0.43020  0.20600  Biso   1.000  O
  C265     1.0000 0.85280  0.17580  0.22128  Biso   1.000  C
  C266     1.0000 0.76100  0.20410  0.23166  Biso   1.000  C
  C267     1.0000 0.76590  0.27030  0.24748  Biso   1.000  C
  H121     1.0000 0.82420  0.29650  0.25090  Biso   1.000  H
  C268     1.0000 0.68660  0.29940  0.25862  Biso   1.000  C
  C269     1.0000 0.59940  0.26100  0.25324  Biso   1.000  C
  H122     1.0000 0.54550  0.27900  0.26070  Biso   1.000  H
  C270     1.0000 0.59260  0.19720  0.23716  Biso   1.000  C
  H123     1.0000 0.53360  0.17350  0.23350  Biso   1.000  H
  C271     1.0000 0.67450  0.16570  0.22579  Biso   1.000  C
  C272     1.0000 0.69990  0.37000  0.27625  Biso   1.000  C
  C273     1.0000 0.66420  0.09820  0.20761  Biso   1.000  C
  C274     1.0000 0.61740  0.01390  0.20990  Biso   1.000  C
  H124     1.0000 0.59080  0.99810  0.22290  Biso   1.000  H
  C275     1.0000 0.60960  0.95250  0.19292  Biso   1.000  C
  H125     1.0000 0.57760  0.89560  0.19470  Biso   1.000  H
  C276     1.0000 0.64860  0.97450  0.17336  Biso   1.000  C
  H126     1.0000 0.64350  0.93250  0.16210  Biso   1.000  H
  C277     1.0000 0.69520  0.05930  0.17086  Biso   1.000  C
  C278     1.0000 0.70190  0.12210  0.18776  Biso   1.000  C
  H127     1.0000 0.73150  0.18020  0.18590  Biso   1.000  H
  C279     1.0000 0.74620  0.08290  0.15070  Biso   1.000  C
  C280     1.0000 0.70220  0.09640  0.13148  Biso   1.000  C
  H128     1.0000 0.63720  0.08730  0.13050  Biso   1.000  H
  C281     1.0000 0.75050  0.12250  0.11382  Biso   1.000  C
  H129     1.0000 0.71830  0.13390  0.10120  Biso   1.000  H
  C282     1.0000 0.84730  0.13230  0.11460  Biso   1.000  C
  C283     1.0000 0.89350  0.12010  0.13337  Biso   1.000  C
  H130     1.0000 0.95840  0.12990  0.13410  Biso   1.000  H
  C284     1.0000 0.84430  0.09330  0.15136  Biso   1.000  C
  C285     1.0000 0.90260  0.16370  0.09544  Biso   1.000  C
  C286     1.0000 0.89830  0.07020  0.17147  Biso   1.000  C
  Dy14     1.0000 0.51116  0.77717  0.68889  Biso   1.000  Dy
  O118     1.0000 0.40400  0.74140  0.71489  Biso   1.000  O
  O119     1.0000 0.37260  0.58920  0.72057  Biso   1.000  O
  O120     1.0000 0.28240  0.88620  0.78226  Biso   1.000  O
  O121     1.0000 0.12980  0.90820  0.78473  Biso   1.000  O
  O122     1.0000 0.36240  0.67580  0.57775  Biso   1.000  O
  O123     1.0000 0.48980  0.67860  0.59732  Biso   1.000  O
  O124     1.0000 0.45530  0.63110  0.67870  Biso   1.000  O
  O125     1.0000 0.38960  0.49190  0.67981  Biso   1.000  O
  O126     1.0000 0.47450  0.93020  0.70600  Biso   1.000  O
  C287     1.0000 0.35280  0.67580  0.72128  Biso   1.000  C
  C288     1.0000 0.26100  0.70410  0.73166  Biso   1.000  C
  C289     1.0000 0.26590  0.77030  0.74748  Biso   1.000  C
  H131     1.0000 0.32420  0.79650  0.75090  Biso   1.000  H
  C290     1.0000 0.18660  0.79940  0.75862  Biso   1.000  C
  C291     1.0000 0.09940  0.76100  0.75324  Biso   1.000  C
  H132     1.0000 0.04550  0.77900  0.76070  Biso   1.000  H
  C292     1.0000 0.09260  0.69720  0.73716  Biso   1.000  C
  H133     1.0000 0.03360  0.67350  0.73350  Biso   1.000  H
  C293     1.0000 0.17450  0.66570  0.72579  Biso   1.000  C
  C294     1.0000 0.19990  0.87000  0.77625  Biso   1.000  C
  C295     1.0000 0.16420  0.59820  0.70761  Biso   1.000  C
  C296     1.0000 0.11740  0.51390  0.70990  Biso   1.000  C
  H134     1.0000 0.09080  0.49810  0.72290  Biso   1.000  H
  C297     1.0000 0.10960  0.45250  0.69292  Biso   1.000  C
  H135     1.0000 0.07760  0.39560  0.69470  Biso   1.000  H
  C298     1.0000 0.14860  0.47450  0.67336  Biso   1.000  C
  H136     1.0000 0.14350  0.43250  0.66210  Biso   1.000  H
  C299     1.0000 0.19520  0.55930  0.67086  Biso   1.000  C
  C300     1.0000 0.20190  0.62210  0.68776  Biso   1.000  C
  H137     1.0000 0.23150  0.68020  0.68590  Biso   1.000  H
  C301     1.0000 0.24620  0.58290  0.65070  Biso   1.000  C
  C302     1.0000 0.20220  0.59640  0.63148  Biso   1.000  C
  H138     1.0000 0.13720  0.58730  0.63050  Biso   1.000  H
  C303     1.0000 0.25050  0.62250  0.61382  Biso   1.000  C
  H139     1.0000 0.21830  0.63390  0.60120  Biso   1.000  H
  C304     1.0000 0.34730  0.63230  0.61460  Biso   1.000  C
  C305     1.0000 0.39350  0.62010  0.63337  Biso   1.000  C
  H140     1.0000 0.45840  0.62990  0.63410  Biso   1.000  H
  C306     1.0000 0.34430  0.59330  0.65136  Biso   1.000  C
  C307     1.0000 0.40260  0.66370  0.59544  Biso   1.000  C
  C308     1.0000 0.39830  0.57020  0.67147  Biso   1.000  C
  Dy15     1.0000 0.98884  0.72283  0.18889  Biso   1.000  Dy
  O127     1.0000 0.09600  0.75860  0.21489  Biso   1.000  O
  O128     1.0000 0.12740  0.91080  0.22057  Biso   1.000  O
  O129     1.0000 0.21760  0.61380  0.28226  Biso   1.000  O
  O130     1.0000 0.37020  0.59180  0.28473  Biso   1.000  O
  O131     1.0000 0.13760  0.82420  0.07775  Biso   1.000  O
  O132     1.0000 0.01020  0.82140  0.09732  Biso   1.000  O
  O133     1.0000 0.04470  0.86890  0.17870  Biso   1.000  O
  O134     1.0000 0.11040  0.00810  0.17981  Biso   1.000  O
  O135     1.0000 0.02550  0.56980  0.20600  Biso   1.000  O
  C309     1.0000 0.14720  0.82420  0.22128  Biso   1.000  C
  C310     1.0000 0.23900  0.79590  0.23166  Biso   1.000  C
  C311     1.0000 0.23410  0.72970  0.24748  Biso   1.000  C
  H141     1.0000 0.17580  0.70350  0.25090  Biso   1.000  H
  C312     1.0000 0.31340  0.70060  0.25862  Biso   1.000  C
  C313     1.0000 0.40060  0.73900  0.25324  Biso   1.000  C
  H142     1.0000 0.45450  0.72100  0.26070  Biso   1.000  H
  C314     1.0000 0.40740  0.80280  0.23716  Biso   1.000  C
  H143     1.0000 0.46640  0.82650  0.23350  Biso   1.000  H
  C315     1.0000 0.32550  0.83430  0.22579  Biso   1.000  C
  C316     1.0000 0.30010  0.63000  0.27625  Biso   1.000  C
  C317     1.0000 0.33580  0.90180  0.20761  Biso   1.000  C
  C318     1.0000 0.38260  0.98610  0.20990  Biso   1.000  C
  H144     1.0000 0.40920  0.00190  0.22290  Biso   1.000  H
  C319     1.0000 0.39040  0.04750  0.19292  Biso   1.000  C
  H145     1.0000 0.42240  0.10440  0.19470  Biso   1.000  H
  C320     1.0000 0.35140  0.02550  0.17336  Biso   1.000  C
  H146     1.0000 0.35650  0.06750  0.16210  Biso   1.000  H
  C321     1.0000 0.30480  0.94070  0.17086  Biso   1.000  C
  C322     1.0000 0.29810  0.87790  0.18776  Biso   1.000  C
  H147     1.0000 0.26850  0.81980  0.18590  Biso   1.000  H
  C323     1.0000 0.25380  0.91710  0.15070  Biso   1.000  C
  C324     1.0000 0.29780  0.90360  0.13148  Biso   1.000  C
  H148     1.0000 0.36280  0.91270  0.13050  Biso   1.000  H
  C325     1.0000 0.24950  0.87750  0.11382  Biso   1.000  C
  H149     1.0000 0.28170  0.86610  0.10120  Biso   1.000  H
  C326     1.0000 0.15270  0.86770  0.11460  Biso   1.000  C
  C327     1.0000 0.10650  0.87990  0.13337  Biso   1.000  C
  H150     1.0000 0.04160  0.87010  0.13410  Biso   1.000  H
  C328     1.0000 0.15570  0.90670  0.15136  Biso   1.000  C
  C329     1.0000 0.09740  0.83630  0.09544  Biso   1.000  C
  C330     1.0000 0.10170  0.92980  0.17147  Biso   1.000  C
  Dy16     1.0000 0.48884  0.22283  0.68889  Biso   1.000  Dy
  O136     1.0000 0.59600  0.25860  0.71489  Biso   1.000  O
  O137     1.0000 0.62740  0.41080  0.72057  Biso   1.000  O
  O138     1.0000 0.71760  0.11380  0.78226  Biso   1.000  O
  O139     1.0000 0.87020  0.09180  0.78473  Biso   1.000  O
  O140     1.0000 0.63760  0.32420  0.57775  Biso   1.000  O
  O141     1.0000 0.51020  0.32140  0.59732  Biso   1.000  O
  O142     1.0000 0.54470  0.36890  0.67870  Biso   1.000  O
  O143     1.0000 0.61040  0.50810  0.67981  Biso   1.000  O
  O144     1.0000 0.52550  0.06980  0.70600  Biso   1.000  O
  C331     1.0000 0.64720  0.32420  0.72128  Biso   1.000  C
  C332     1.0000 0.73900  0.29590  0.73166  Biso   1.000  C
  C333     1.0000 0.73410  0.22970  0.74748  Biso   1.000  C
  H151     1.0000 0.67580  0.20350  0.75090  Biso   1.000  H
  C334     1.0000 0.81340  0.20060  0.75862  Biso   1.000  C
  C335     1.0000 0.90060  0.23900  0.75324  Biso   1.000  C
  H152     1.0000 0.95450  0.22100  0.76070  Biso   1.000  H
  C336     1.0000 0.90740  0.30280  0.73716  Biso   1.000  C
  H153     1.0000 0.96640  0.32650  0.73350  Biso   1.000  H
  C337     1.0000 0.82550  0.33430  0.72579  Biso   1.000  C
  C338     1.0000 0.80010  0.13000  0.77625  Biso   1.000  C
  C339     1.0000 0.83580  0.40180  0.70761  Biso   1.000  C
  C340     1.0000 0.88260  0.48610  0.70990  Biso   1.000  C
  H154     1.0000 0.90920  0.50190  0.72290  Biso   1.000  H
  C341     1.0000 0.89040  0.54750  0.69292  Biso   1.000  C
  H155     1.0000 0.92240  0.60440  0.69470  Biso   1.000  H
  C342     1.0000 0.85140  0.52550  0.67336  Biso   1.000  C
  H156     1.0000 0.85650  0.56750  0.66210  Biso   1.000  H
  C343     1.0000 0.80480  0.44070  0.67086  Biso   1.000  C
  C344     1.0000 0.79810  0.37790  0.68776  Biso   1.000  C
  H157     1.0000 0.76850  0.31980  0.68590  Biso   1.000  H
  C345     1.0000 0.75380  0.41710  0.65070  Biso   1.000  C
  C346     1.0000 0.79780  0.40360  0.63148  Biso   1.000  C
  H158     1.0000 0.86280  0.41270  0.63050  Biso   1.000  H
  C347     1.0000 0.74950  0.37750  0.61382  Biso   1.000  C
  H159     1.0000 0.78170  0.36610  0.60120  Biso   1.000  H
  C348     1.0000 0.65270  0.36770  0.61460  Biso   1.000  C
  C349     1.0000 0.60650  0.37990  0.63337  Biso   1.000  C
  H160     1.0000 0.54160  0.37010  0.63410  Biso   1.000  H
  C350     1.0000 0.65570  0.40670  0.65136  Biso   1.000  C
  C351     1.0000 0.59740  0.33630  0.59544  Biso   1.000  C
  C352     1.0000 0.60170  0.42980  0.67147  Biso   1.000  C
  Dy17     1.0000 0.00000  0.50000  0.45908  Biso   1.000  Dy
  Dy18     1.0000 0.50000  0.00000  0.95908  Biso   1.000  Dy
  Dy19     1.0000 0.50000  0.00000  0.54092  Biso   1.000  Dy
  Dy20     1.0000 0.00000  0.50000  0.04092  Biso   1.000  Dy
  Dy21     1.0000 0.50000  0.50000  0.29092  Biso   1.000  Dy
  Dy22     1.0000 0.00000  0.00000  0.79092  Biso   1.000  Dy
  Dy23     1.0000 0.00000  0.00000  0.20908  Biso   1.000  Dy
  Dy24     1.0000 0.50000  0.50000  0.70908  Biso   1.000  Dy
  C353     1.0000 0.50000  0.50000  0.44390  Biso   1.000  C
  H161     1.0000 0.50000  0.50000  0.42920  Biso   1.000  H
  C354     1.0000 0.00000  0.00000  0.94390  Biso   1.000  C
  H162     1.0000 0.00000  0.00000  0.92920  Biso   1.000  H
  C355     1.0000 0.50000  0.50000  0.55610  Biso   1.000  C
  H163     1.0000 0.50000  0.50000  0.57080  Biso   1.000  H
  C356     1.0000 0.00000  0.00000  0.05610  Biso   1.000  C
  H164     1.0000 0.00000  0.00000  0.07080  Biso   1.000  H
  C357     1.0000 0.00000  0.50000  0.30610  Biso   1.000  C
  H165     1.0000 0.00000  0.50000  0.32080  Biso   1.000  H
  C358     1.0000 0.50000  0.00000  0.80610  Biso   1.000  C
  H166     1.0000 0.50000  0.00000  0.82080  Biso   1.000  H
  C359     1.0000 0.00000  0.50000  0.19390  Biso   1.000  C
  H167     1.0000 0.00000  0.50000  0.17920  Biso   1.000  H
  C360     1.0000 0.50000  0.00000  0.69390  Biso   1.000  C
  H168     1.0000 0.50000  0.00000  0.67920  Biso   1.000  H
