data_image0
_cell_length_a       22.9094
_cell_length_b       22.9094
_cell_length_c       16.3322
_cell_angle_alpha    90
_cell_angle_beta     90
_cell_angle_gamma    90

_symmetry_space_group_name_H-M    "P 1"
_symmetry_int_tables_number       1

loop_
  _symmetry_equiv_pos_as_xyz
  'x, y, z'

loop_
  _atom_site_label
  _atom_site_occupancy
  _atom_site_fract_x
  _atom_site_fract_y
  _atom_site_fract_z
  _atom_site_thermal_displace_type
  _atom_site_B_iso_or_equiv
  _atom_site_type_symbol
  Si1      1.0000 0.22091  0.65497  0.76654  Biso   1.000  Si
  N1       1.0000 0.04733  0.70516  0.78490  Biso   1.000  N
  C1       1.0000 0.10510  0.69750  0.79440  Biso   1.000  C
  H1       1.0000 0.12320  0.71560  0.84010  Biso   1.000  H
  C2       1.0000 0.14070  0.66460  0.74180  Biso   1.000  C
  C3       1.0000 0.11250  0.64020  0.67410  Biso   1.000  C
  H2       1.0000 0.13440  0.61840  0.63530  Biso   1.000  H
  C4       1.0000 0.05310  0.64750  0.66310  Biso   1.000  C
  H3       1.0000 0.03400  0.63060  0.61720  Biso   1.000  H
  C5       1.0000 0.02200  0.67970  0.72000  Biso   1.000  C
  H4       1.0000 0.98110  0.68400  0.71270  Biso   1.000  H
  C6       1.0000 0.22740  0.64830  0.87940  Biso   1.000  C
  H5       1.0000 0.26850  0.64310  0.89430  Biso   1.000  H
  H6       1.0000 0.21220  0.68380  0.90540  Biso   1.000  H
  H7       1.0000 0.20480  0.61450  0.89820  Biso   1.000  H
  C7       1.0000 0.24750  0.58780  0.71520  Biso   1.000  C
  H8       1.0000 0.28900  0.58220  0.72760  Biso   1.000  H
  H9       1.0000 0.22520  0.55410  0.73510  Biso   1.000  H
  H10      1.0000 0.24230  0.59160  0.65590  Biso   1.000  H
  C8       1.0000 0.26030  0.72120  0.73020  Biso   1.000  C
  H11      1.0000 0.25540  0.72430  0.67010  Biso   1.000  H
  H12      1.0000 0.30250  0.71620  0.74140  Biso   1.000  H
  Si2      1.0000 0.72091  0.15497  0.26654  Biso   1.000  Si
  N2       1.0000 0.54733  0.20516  0.28490  Biso   1.000  N
  C9       1.0000 0.60510  0.19750  0.29440  Biso   1.000  C
  H13      1.0000 0.62320  0.21560  0.34010  Biso   1.000  H
  C10      1.0000 0.64070  0.16460  0.24180  Biso   1.000  C
  C11      1.0000 0.61250  0.14020  0.17410  Biso   1.000  C
  H14      1.0000 0.63440  0.11840  0.13530  Biso   1.000  H
  C12      1.0000 0.55310  0.14750  0.16310  Biso   1.000  C
  H15      1.0000 0.53400  0.13060  0.11720  Biso   1.000  H
  C13      1.0000 0.52200  0.17970  0.22000  Biso   1.000  C
  H16      1.0000 0.48110  0.18400  0.21270  Biso   1.000  H
  C14      1.0000 0.72740  0.14830  0.37940  Biso   1.000  C
  H17      1.0000 0.76850  0.14310  0.39430  Biso   1.000  H
  H18      1.0000 0.71220  0.18380  0.40540  Biso   1.000  H
  H19      1.0000 0.70480  0.11450  0.39820  Biso   1.000  H
  C15      1.0000 0.74750  0.08780  0.21520  Biso   1.000  C
  H20      1.0000 0.78900  0.08220  0.22760  Biso   1.000  H
  H21      1.0000 0.72520  0.05410  0.23510  Biso   1.000  H
  H22      1.0000 0.74230  0.09160  0.15590  Biso   1.000  H
  C16      1.0000 0.76030  0.22120  0.23020  Biso   1.000  C
  H23      1.0000 0.75540  0.22430  0.17010  Biso   1.000  H
  H24      1.0000 0.80250  0.21620  0.24140  Biso   1.000  H
  Si3      1.0000 0.27909  0.34503  0.26654  Biso   1.000  Si
  N3       1.0000 0.45267  0.29484  0.28490  Biso   1.000  N
  C17      1.0000 0.39490  0.30250  0.29440  Biso   1.000  C
  H25      1.0000 0.37680  0.28440  0.34010  Biso   1.000  H
  C18      1.0000 0.35930  0.33540  0.24180  Biso   1.000  C
  C19      1.0000 0.38750  0.35980  0.17410  Biso   1.000  C
  H26      1.0000 0.36560  0.38160  0.13530  Biso   1.000  H
  C20      1.0000 0.44690  0.35250  0.16310  Biso   1.000  C
  H27      1.0000 0.46600  0.36940  0.11720  Biso   1.000  H
  C21      1.0000 0.47800  0.32030  0.22000  Biso   1.000  C
  H28      1.0000 0.51890  0.31600  0.21270  Biso   1.000  H
  C22      1.0000 0.27260  0.35170  0.37940  Biso   1.000  C
  H29      1.0000 0.23150  0.35690  0.39430  Biso   1.000  H
  H30      1.0000 0.28780  0.31620  0.40540  Biso   1.000  H
  H31      1.0000 0.29520  0.38550  0.39820  Biso   1.000  H
  C23      1.0000 0.25250  0.41220  0.21520  Biso   1.000  C
  H32      1.0000 0.21100  0.41780  0.22760  Biso   1.000  H
  H33      1.0000 0.27480  0.44590  0.23510  Biso   1.000  H
  H34      1.0000 0.25770  0.40840  0.15590  Biso   1.000  H
  C24      1.0000 0.23970  0.27880  0.23020  Biso   1.000  C
  H35      1.0000 0.24460  0.27570  0.17010  Biso   1.000  H
  H36      1.0000 0.19750  0.28380  0.24140  Biso   1.000  H
  Si4      1.0000 0.77909  0.84503  0.76654  Biso   1.000  Si
  N4       1.0000 0.95267  0.79484  0.78490  Biso   1.000  N
  C25      1.0000 0.89490  0.80250  0.79440  Biso   1.000  C
  H37      1.0000 0.87680  0.78440  0.84010  Biso   1.000  H
  C26      1.0000 0.85930  0.83540  0.74180  Biso   1.000  C
  C27      1.0000 0.88750  0.85980  0.67410  Biso   1.000  C
  H38      1.0000 0.86560  0.88160  0.63530  Biso   1.000  H
  C28      1.0000 0.94690  0.85250  0.66310  Biso   1.000  C
  H39      1.0000 0.96600  0.86940  0.61720  Biso   1.000  H
  C29      1.0000 0.97800  0.82030  0.72000  Biso   1.000  C
  H40      1.0000 0.01890  0.81600  0.71270  Biso   1.000  H
  C30      1.0000 0.77260  0.85170  0.87940  Biso   1.000  C
  H41      1.0000 0.73150  0.85690  0.89430  Biso   1.000  H
  H42      1.0000 0.78780  0.81620  0.90540  Biso   1.000  H
  H43      1.0000 0.79520  0.88550  0.89820  Biso   1.000  H
  C31      1.0000 0.75250  0.91220  0.71520  Biso   1.000  C
  H44      1.0000 0.71100  0.91780  0.72760  Biso   1.000  H
  H45      1.0000 0.77480  0.94590  0.73510  Biso   1.000  H
  H46      1.0000 0.75770  0.90840  0.65590  Biso   1.000  H
  C32      1.0000 0.73970  0.77880  0.73020  Biso   1.000  C
  H47      1.0000 0.74460  0.77570  0.67010  Biso   1.000  H
  H48      1.0000 0.69750  0.78380  0.74140  Biso   1.000  H
  Si5      1.0000 0.90497  0.97091  0.98346  Biso   1.000  Si
  N5       1.0000 0.95516  0.79733  0.96510  Biso   1.000  N
  C33      1.0000 0.94750  0.85510  0.95560  Biso   1.000  C
  H49      1.0000 0.96560  0.87320  0.90990  Biso   1.000  H
  C34      1.0000 0.91460  0.89070  0.00820  Biso   1.000  C
  C35      1.0000 0.89020  0.86250  0.07590  Biso   1.000  C
  H50      1.0000 0.86840  0.88440  0.11470  Biso   1.000  H
  C36      1.0000 0.89750  0.80310  0.08690  Biso   1.000  C
  H51      1.0000 0.88060  0.78400  0.13280  Biso   1.000  H
  C37      1.0000 0.92970  0.77200  0.03000  Biso   1.000  C
  H52      1.0000 0.93400  0.73110  0.03730  Biso   1.000  H
  C38      1.0000 0.89830  0.97740  0.87060  Biso   1.000  C
  H53      1.0000 0.89310  0.01850  0.85570  Biso   1.000  H
  H54      1.0000 0.93380  0.96220  0.84460  Biso   1.000  H
  H55      1.0000 0.86450  0.95480  0.85180  Biso   1.000  H
  C39      1.0000 0.83780  0.99750  0.03480  Biso   1.000  C
  H56      1.0000 0.83220  0.03900  0.02240  Biso   1.000  H
  H57      1.0000 0.80410  0.97520  0.01490  Biso   1.000  H
  H58      1.0000 0.84160  0.99230  0.09410  Biso   1.000  H
  C40      1.0000 0.97120  0.01030  0.01980  Biso   1.000  C
  H59      1.0000 0.97430  0.00540  0.07990  Biso   1.000  H
  H60      1.0000 0.96620  0.05250  0.00860  Biso   1.000  H
  Si6      1.0000 0.40497  0.47091  0.48346  Biso   1.000  Si
  N6       1.0000 0.45516  0.29733  0.46510  Biso   1.000  N
  C41      1.0000 0.44750  0.35510  0.45560  Biso   1.000  C
  H61      1.0000 0.46560  0.37320  0.40990  Biso   1.000  H
  C42      1.0000 0.41460  0.39070  0.50820  Biso   1.000  C
  C43      1.0000 0.39020  0.36250  0.57590  Biso   1.000  C
  H62      1.0000 0.36840  0.38440  0.61470  Biso   1.000  H
  C44      1.0000 0.39750  0.30310  0.58690  Biso   1.000  C
  H63      1.0000 0.38060  0.28400  0.63280  Biso   1.000  H
  C45      1.0000 0.42970  0.27200  0.53000  Biso   1.000  C
  H64      1.0000 0.43400  0.23110  0.53730  Biso   1.000  H
  C46      1.0000 0.39830  0.47740  0.37060  Biso   1.000  C
  H65      1.0000 0.39310  0.51850  0.35570  Biso   1.000  H
  H66      1.0000 0.43380  0.46220  0.34460  Biso   1.000  H
  H67      1.0000 0.36450  0.45480  0.35180  Biso   1.000  H
  C47      1.0000 0.33780  0.49750  0.53480  Biso   1.000  C
  H68      1.0000 0.33220  0.53900  0.52240  Biso   1.000  H
  H69      1.0000 0.30410  0.47520  0.51490  Biso   1.000  H
  H70      1.0000 0.34160  0.49230  0.59410  Biso   1.000  H
  C48      1.0000 0.47120  0.51030  0.51980  Biso   1.000  C
  H71      1.0000 0.47430  0.50540  0.57990  Biso   1.000  H
  H72      1.0000 0.46620  0.55250  0.50860  Biso   1.000  H
  Si7      1.0000 0.59503  0.02909  0.48346  Biso   1.000  Si
  N7       1.0000 0.54484  0.20267  0.46510  Biso   1.000  N
  C49      1.0000 0.55250  0.14490  0.45560  Biso   1.000  C
  H73      1.0000 0.53440  0.12680  0.40990  Biso   1.000  H
  C50      1.0000 0.58540  0.10930  0.50820  Biso   1.000  C
  C51      1.0000 0.60980  0.13750  0.57590  Biso   1.000  C
  H74      1.0000 0.63160  0.11560  0.61470  Biso   1.000  H
  C52      1.0000 0.60250  0.19690  0.58690  Biso   1.000  C
  H75      1.0000 0.61940  0.21600  0.63280  Biso   1.000  H
  C53      1.0000 0.57030  0.22800  0.53000  Biso   1.000  C
  H76      1.0000 0.56600  0.26890  0.53730  Biso   1.000  H
  C54      1.0000 0.60170  0.02260  0.37060  Biso   1.000  C
  H77      1.0000 0.60690  0.98150  0.35570  Biso   1.000  H
  H78      1.0000 0.56620  0.03780  0.34460  Biso   1.000  H
  H79      1.0000 0.63550  0.04520  0.35180  Biso   1.000  H
  C55      1.0000 0.66220  0.00250  0.53480  Biso   1.000  C
  H80      1.0000 0.66780  0.96100  0.52240  Biso   1.000  H
  H81      1.0000 0.69590  0.02480  0.51490  Biso   1.000  H
  H82      1.0000 0.65840  0.00770  0.59410  Biso   1.000  H
  C56      1.0000 0.52880  0.98970  0.51980  Biso   1.000  C
  H83      1.0000 0.52570  0.99460  0.57990  Biso   1.000  H
  H84      1.0000 0.53380  0.94750  0.50860  Biso   1.000  H
  Si8      1.0000 0.09503  0.52909  0.98346  Biso   1.000  Si
  N8       1.0000 0.04484  0.70267  0.96510  Biso   1.000  N
  C57      1.0000 0.05250  0.64490  0.95560  Biso   1.000  C
  H85      1.0000 0.03440  0.62680  0.90990  Biso   1.000  H
  C58      1.0000 0.08540  0.60930  0.00820  Biso   1.000  C
  C59      1.0000 0.10980  0.63750  0.07590  Biso   1.000  C
  H86      1.0000 0.13160  0.61560  0.11470  Biso   1.000  H
  C60      1.0000 0.10250  0.69690  0.08690  Biso   1.000  C
  H87      1.0000 0.11940  0.71600  0.13280  Biso   1.000  H
  C61      1.0000 0.07030  0.72800  0.03000  Biso   1.000  C
  H88      1.0000 0.06600  0.76890  0.03730  Biso   1.000  H
  C62      1.0000 0.10170  0.52260  0.87060  Biso   1.000  C
  H89      1.0000 0.10690  0.48150  0.85570  Biso   1.000  H
  H90      1.0000 0.06620  0.53780  0.84460  Biso   1.000  H
  H91      1.0000 0.13550  0.54520  0.85180  Biso   1.000  H
  C63      1.0000 0.16220  0.50250  0.03480  Biso   1.000  C
  H92      1.0000 0.16780  0.46100  0.02240  Biso   1.000  H
  H93      1.0000 0.19590  0.52480  0.01490  Biso   1.000  H
  H94      1.0000 0.15840  0.50770  0.09410  Biso   1.000  H
  C64      1.0000 0.02880  0.48970  0.01980  Biso   1.000  C
  H95      1.0000 0.02570  0.49460  0.07990  Biso   1.000  H
  H96      1.0000 0.03380  0.44750  0.00860  Biso   1.000  H
  Si9      1.0000 0.77909  0.34503  0.23346  Biso   1.000  Si
  N9       1.0000 0.95267  0.29484  0.21510  Biso   1.000  N
  C65      1.0000 0.89490  0.30250  0.20560  Biso   1.000  C
  H97      1.0000 0.87680  0.28440  0.15990  Biso   1.000  H
  C66      1.0000 0.85930  0.33540  0.25820  Biso   1.000  C
  C67      1.0000 0.88750  0.35980  0.32590  Biso   1.000  C
  H98      1.0000 0.86560  0.38160  0.36470  Biso   1.000  H
  C68      1.0000 0.94690  0.35250  0.33690  Biso   1.000  C
  H99      1.0000 0.96600  0.36940  0.38280  Biso   1.000  H
  C69      1.0000 0.97800  0.32030  0.28000  Biso   1.000  C
  H100     1.0000 0.01890  0.31600  0.28730  Biso   1.000  H
  C70      1.0000 0.77260  0.35170  0.12060  Biso   1.000  C
  H101     1.0000 0.73150  0.35690  0.10570  Biso   1.000  H
  H102     1.0000 0.78780  0.31620  0.09460  Biso   1.000  H
  H103     1.0000 0.79520  0.38550  0.10180  Biso   1.000  H
  C71      1.0000 0.75250  0.41220  0.28480  Biso   1.000  C
  H104     1.0000 0.71100  0.41780  0.27240  Biso   1.000  H
  H105     1.0000 0.77480  0.44590  0.26490  Biso   1.000  H
  H106     1.0000 0.75770  0.40840  0.34410  Biso   1.000  H
  C72      1.0000 0.73970  0.27880  0.26980  Biso   1.000  C
  H107     1.0000 0.74460  0.27570  0.32990  Biso   1.000  H
  H108     1.0000 0.69750  0.28380  0.25860  Biso   1.000  H
  Si10     1.0000 0.27909  0.84503  0.73346  Biso   1.000  Si
  N10      1.0000 0.45267  0.79484  0.71510  Biso   1.000  N
  C73      1.0000 0.39490  0.80250  0.70560  Biso   1.000  C
  H109     1.0000 0.37680  0.78440  0.65990  Biso   1.000  H
  C74      1.0000 0.35930  0.83540  0.75820  Biso   1.000  C
  C75      1.0000 0.38750  0.85980  0.82590  Biso   1.000  C
  H110     1.0000 0.36560  0.88160  0.86470  Biso   1.000  H
  C76      1.0000 0.44690  0.85250  0.83690  Biso   1.000  C
  H111     1.0000 0.46600  0.86940  0.88280  Biso   1.000  H
  C77      1.0000 0.47800  0.82030  0.78000  Biso   1.000  C
  H112     1.0000 0.51890  0.81600  0.78730  Biso   1.000  H
  C78      1.0000 0.27260  0.85170  0.62060  Biso   1.000  C
  H113     1.0000 0.23150  0.85690  0.60570  Biso   1.000  H
  H114     1.0000 0.28780  0.81620  0.59460  Biso   1.000  H
  H115     1.0000 0.29520  0.88550  0.60180  Biso   1.000  H
  C79      1.0000 0.25250  0.91220  0.78480  Biso   1.000  C
  H116     1.0000 0.21100  0.91780  0.77240  Biso   1.000  H
  H117     1.0000 0.27480  0.94590  0.76490  Biso   1.000  H
  H118     1.0000 0.25770  0.90840  0.84410  Biso   1.000  H
  C80      1.0000 0.23970  0.77880  0.76980  Biso   1.000  C
  H119     1.0000 0.24460  0.77570  0.82990  Biso   1.000  H
  H120     1.0000 0.19750  0.78380  0.75860  Biso   1.000  H
  Si11     1.0000 0.72091  0.65497  0.73346  Biso   1.000  Si
  N11      1.0000 0.54733  0.70516  0.71510  Biso   1.000  N
  C81      1.0000 0.60510  0.69750  0.70560  Biso   1.000  C
  H121     1.0000 0.62320  0.71560  0.65990  Biso   1.000  H
  C82      1.0000 0.64070  0.66460  0.75820  Biso   1.000  C
  C83      1.0000 0.61250  0.64020  0.82590  Biso   1.000  C
  H122     1.0000 0.63440  0.61840  0.86470  Biso   1.000  H
  C84      1.0000 0.55310  0.64750  0.83690  Biso   1.000  C
  H123     1.0000 0.53400  0.63060  0.88280  Biso   1.000  H
  C85      1.0000 0.52200  0.67970  0.78000  Biso   1.000  C
  H124     1.0000 0.48110  0.68400  0.78730  Biso   1.000  H
  C86      1.0000 0.72740  0.64830  0.62060  Biso   1.000  C
  H125     1.0000 0.76850  0.64310  0.60570  Biso   1.000  H
  H126     1.0000 0.71220  0.68380  0.59460  Biso   1.000  H
  H127     1.0000 0.70480  0.61450  0.60180  Biso   1.000  H
  C87      1.0000 0.74750  0.58780  0.78480  Biso   1.000  C
  H128     1.0000 0.78900  0.58220  0.77240  Biso   1.000  H
  H129     1.0000 0.72520  0.55410  0.76490  Biso   1.000  H
  H130     1.0000 0.74230  0.59160  0.84410  Biso   1.000  H
  C88      1.0000 0.76030  0.72120  0.76980  Biso   1.000  C
  H131     1.0000 0.75540  0.72430  0.82990  Biso   1.000  H
  H132     1.0000 0.80250  0.71620  0.75860  Biso   1.000  H
  Si12     1.0000 0.22091  0.15497  0.23346  Biso   1.000  Si
  N12      1.0000 0.04733  0.20516  0.21510  Biso   1.000  N
  C89      1.0000 0.10510  0.19750  0.20560  Biso   1.000  C
  H133     1.0000 0.12320  0.21560  0.15990  Biso   1.000  H
  C90      1.0000 0.14070  0.16460  0.25820  Biso   1.000  C
  C91      1.0000 0.11250  0.14020  0.32590  Biso   1.000  C
  H134     1.0000 0.13440  0.11840  0.36470  Biso   1.000  H
  C92      1.0000 0.05310  0.14750  0.33690  Biso   1.000  C
  H135     1.0000 0.03400  0.13060  0.38280  Biso   1.000  H
  C93      1.0000 0.02200  0.17970  0.28000  Biso   1.000  C
  H136     1.0000 0.98110  0.18400  0.28730  Biso   1.000  H
  C94      1.0000 0.22740  0.14830  0.12060  Biso   1.000  C
  H137     1.0000 0.26850  0.14310  0.10570  Biso   1.000  H
  H138     1.0000 0.21220  0.18380  0.09460  Biso   1.000  H
  H139     1.0000 0.20480  0.11450  0.10180  Biso   1.000  H
  C95      1.0000 0.24750  0.08780  0.28480  Biso   1.000  C
  H140     1.0000 0.28900  0.08220  0.27240  Biso   1.000  H
  H141     1.0000 0.22520  0.05410  0.26490  Biso   1.000  H
  H142     1.0000 0.24230  0.09160  0.34410  Biso   1.000  H
  C96      1.0000 0.26030  0.22120  0.26980  Biso   1.000  C
  H143     1.0000 0.25540  0.22430  0.32990  Biso   1.000  H
  H144     1.0000 0.30250  0.21620  0.25860  Biso   1.000  H
  Si13     1.0000 0.09503  0.02909  0.01654  Biso   1.000  Si
  N13      1.0000 0.04484  0.20267  0.03490  Biso   1.000  N
  C97      1.0000 0.05250  0.14490  0.04440  Biso   1.000  C
  H145     1.0000 0.03440  0.12680  0.09010  Biso   1.000  H
  C98      1.0000 0.08540  0.10930  0.99180  Biso   1.000  C
  C99      1.0000 0.10980  0.13750  0.92410  Biso   1.000  C
  H146     1.0000 0.13160  0.11560  0.88530  Biso   1.000  H
  C100     1.0000 0.10250  0.19690  0.91310  Biso   1.000  C
  H147     1.0000 0.11940  0.21600  0.86720  Biso   1.000  H
  C101     1.0000 0.07030  0.22800  0.97000  Biso   1.000  C
  H148     1.0000 0.06600  0.26890  0.96270  Biso   1.000  H
  C102     1.0000 0.10170  0.02260  0.12940  Biso   1.000  C
  H149     1.0000 0.10690  0.98150  0.14430  Biso   1.000  H
  H150     1.0000 0.06620  0.03780  0.15540  Biso   1.000  H
  H151     1.0000 0.13550  0.04520  0.14820  Biso   1.000  H
  C103     1.0000 0.16220  0.00250  0.96520  Biso   1.000  C
  H152     1.0000 0.16780  0.96100  0.97760  Biso   1.000  H
  H153     1.0000 0.19590  0.02480  0.98510  Biso   1.000  H
  H154     1.0000 0.15840  0.00770  0.90590  Biso   1.000  H
  C104     1.0000 0.02880  0.98970  0.98020  Biso   1.000  C
  H155     1.0000 0.02570  0.99460  0.92010  Biso   1.000  H
  H156     1.0000 0.03380  0.94750  0.99140  Biso   1.000  H
  Si14     1.0000 0.59503  0.52909  0.51654  Biso   1.000  Si
  N14      1.0000 0.54484  0.70267  0.53490  Biso   1.000  N
  C105     1.0000 0.55250  0.64490  0.54440  Biso   1.000  C
  H157     1.0000 0.53440  0.62680  0.59010  Biso   1.000  H
  C106     1.0000 0.58540  0.60930  0.49180  Biso   1.000  C
  C107     1.0000 0.60980  0.63750  0.42410  Biso   1.000  C
  H158     1.0000 0.63160  0.61560  0.38530  Biso   1.000  H
  C108     1.0000 0.60250  0.69690  0.41310  Biso   1.000  C
  H159     1.0000 0.61940  0.71600  0.36720  Biso   1.000  H
  C109     1.0000 0.57030  0.72800  0.47000  Biso   1.000  C
  H160     1.0000 0.56600  0.76890  0.46270  Biso   1.000  H
  C110     1.0000 0.60170  0.52260  0.62940  Biso   1.000  C
  H161     1.0000 0.60690  0.48150  0.64430  Biso   1.000  H
  H162     1.0000 0.56620  0.53780  0.65540  Biso   1.000  H
  H163     1.0000 0.63550  0.54520  0.64820  Biso   1.000  H
  C111     1.0000 0.66220  0.50250  0.46520  Biso   1.000  C
  H164     1.0000 0.66780  0.46100  0.47760  Biso   1.000  H
  H165     1.0000 0.69590  0.52480  0.48510  Biso   1.000  H
  H166     1.0000 0.65840  0.50770  0.40590  Biso   1.000  H
  C112     1.0000 0.52880  0.48970  0.48020  Biso   1.000  C
  H167     1.0000 0.52570  0.49460  0.42010  Biso   1.000  H
  H168     1.0000 0.53380  0.44750  0.49140  Biso   1.000  H
  Si15     1.0000 0.40497  0.97091  0.51654  Biso   1.000  Si
  N15      1.0000 0.45516  0.79733  0.53490  Biso   1.000  N
  C113     1.0000 0.44750  0.85510  0.54440  Biso   1.000  C
  H169     1.0000 0.46560  0.87320  0.59010  Biso   1.000  H
  C114     1.0000 0.41460  0.89070  0.49180  Biso   1.000  C
  C115     1.0000 0.39020  0.86250  0.42410  Biso   1.000  C
  H170     1.0000 0.36840  0.88440  0.38530  Biso   1.000  H
  C116     1.0000 0.39750  0.80310  0.41310  Biso   1.000  C
  H171     1.0000 0.38060  0.78400  0.36720  Biso   1.000  H
  C117     1.0000 0.42970  0.77200  0.47000  Biso   1.000  C
  H172     1.0000 0.43400  0.73110  0.46270  Biso   1.000  H
  C118     1.0000 0.39830  0.97740  0.62940  Biso   1.000  C
  H173     1.0000 0.39310  0.01850  0.64430  Biso   1.000  H
  H174     1.0000 0.43380  0.96220  0.65540  Biso   1.000  H
  H175     1.0000 0.36450  0.95480  0.64820  Biso   1.000  H
  C119     1.0000 0.33780  0.99750  0.46520  Biso   1.000  C
  H176     1.0000 0.33220  0.03900  0.47760  Biso   1.000  H
  H177     1.0000 0.30410  0.97520  0.48510  Biso   1.000  H
  H178     1.0000 0.34160  0.99230  0.40590  Biso   1.000  H
  C120     1.0000 0.47120  0.01030  0.48020  Biso   1.000  C
  H179     1.0000 0.47430  0.00540  0.42010  Biso   1.000  H
  H180     1.0000 0.46620  0.05250  0.49140  Biso   1.000  H
  Si16     1.0000 0.90497  0.47091  0.01654  Biso   1.000  Si
  N16      1.0000 0.95516  0.29733  0.03490  Biso   1.000  N
  C121     1.0000 0.94750  0.35510  0.04440  Biso   1.000  C
  H181     1.0000 0.96560  0.37320  0.09010  Biso   1.000  H
  C122     1.0000 0.91460  0.39070  0.99180  Biso   1.000  C
  C123     1.0000 0.89020  0.36250  0.92410  Biso   1.000  C
  H182     1.0000 0.86840  0.38440  0.88530  Biso   1.000  H
  C124     1.0000 0.89750  0.30310  0.91310  Biso   1.000  C
  H183     1.0000 0.88060  0.28400  0.86720  Biso   1.000  H
  C125     1.0000 0.92970  0.27200  0.97000  Biso   1.000  C
  H184     1.0000 0.93400  0.23110  0.96270  Biso   1.000  H
  C126     1.0000 0.89830  0.47740  0.12940  Biso   1.000  C
  H185     1.0000 0.89310  0.51850  0.14430  Biso   1.000  H
  H186     1.0000 0.93380  0.46220  0.15540  Biso   1.000  H
  H187     1.0000 0.86450  0.45480  0.14820  Biso   1.000  H
  C127     1.0000 0.83780  0.49750  0.96520  Biso   1.000  C
  H188     1.0000 0.83220  0.53900  0.97760  Biso   1.000  H
  H189     1.0000 0.80410  0.47520  0.98510  Biso   1.000  H
  H190     1.0000 0.84160  0.49230  0.90590  Biso   1.000  H
  C128     1.0000 0.97120  0.51030  0.98020  Biso   1.000  C
  H191     1.0000 0.97430  0.50540  0.92010  Biso   1.000  H
  H192     1.0000 0.96620  0.55250  0.99140  Biso   1.000  H
  Ni1      1.0000 0.00000  0.75000  0.87500  Biso   1.000  Ni
  Ni2      1.0000 0.50000  0.25000  0.37500  Biso   1.000  Ni
  Ni3      1.0000 0.00000  0.25000  0.12500  Biso   1.000  Ni
  Ni4      1.0000 0.50000  0.75000  0.62500  Biso   1.000  Ni
  Si17     1.0000 0.59503  0.97091  0.01654  Biso   1.000  Si
  N17      1.0000 0.54484  0.79733  0.03490  Biso   1.000  N
  C129     1.0000 0.55250  0.85510  0.04440  Biso   1.000  C
  H193     1.0000 0.53440  0.87320  0.09010  Biso   1.000  H
  C130     1.0000 0.58540  0.89070  0.99180  Biso   1.000  C
  C131     1.0000 0.60980  0.86250  0.92410  Biso   1.000  C
  H194     1.0000 0.63160  0.88440  0.88530  Biso   1.000  H
  C132     1.0000 0.60250  0.80310  0.91310  Biso   1.000  C
  H195     1.0000 0.61940  0.78400  0.86720  Biso   1.000  H
  C133     1.0000 0.57030  0.77200  0.97000  Biso   1.000  C
  H196     1.0000 0.56600  0.73110  0.96270  Biso   1.000  H
  C134     1.0000 0.60170  0.97740  0.12940  Biso   1.000  C
  H197     1.0000 0.60690  0.01850  0.14430  Biso   1.000  H
  H198     1.0000 0.56620  0.96220  0.15540  Biso   1.000  H
  H199     1.0000 0.63550  0.95480  0.14820  Biso   1.000  H
  C135     1.0000 0.66220  0.99750  0.96520  Biso   1.000  C
  H200     1.0000 0.66780  0.03900  0.97760  Biso   1.000  H
  H201     1.0000 0.69590  0.97520  0.98510  Biso   1.000  H
  H202     1.0000 0.65840  0.99230  0.90590  Biso   1.000  H
  C136     1.0000 0.52880  0.01030  0.98020  Biso   1.000  C
  H203     1.0000 0.52570  0.00540  0.92010  Biso   1.000  H
  H204     1.0000 0.53380  0.05250  0.99140  Biso   1.000  H
  Si18     1.0000 0.09503  0.47091  0.51654  Biso   1.000  Si
  N18      1.0000 0.04484  0.29733  0.53490  Biso   1.000  N
  C137     1.0000 0.05250  0.35510  0.54440  Biso   1.000  C
  H205     1.0000 0.03440  0.37320  0.59010  Biso   1.000  H
  C138     1.0000 0.08540  0.39070  0.49180  Biso   1.000  C
  C139     1.0000 0.10980  0.36250  0.42410  Biso   1.000  C
  H206     1.0000 0.13160  0.38440  0.38530  Biso   1.000  H
  C140     1.0000 0.10250  0.30310  0.41310  Biso   1.000  C
  H207     1.0000 0.11940  0.28400  0.36720  Biso   1.000  H
  C141     1.0000 0.07030  0.27200  0.47000  Biso   1.000  C
  H208     1.0000 0.06600  0.23110  0.46270  Biso   1.000  H
  C142     1.0000 0.10170  0.47740  0.62940  Biso   1.000  C
  H209     1.0000 0.10690  0.51850  0.64430  Biso   1.000  H
  H210     1.0000 0.06620  0.46220  0.65540  Biso   1.000  H
  H211     1.0000 0.13550  0.45480  0.64820  Biso   1.000  H
  C143     1.0000 0.16220  0.49750  0.46520  Biso   1.000  C
  H212     1.0000 0.16780  0.53900  0.47760  Biso   1.000  H
  H213     1.0000 0.19590  0.47520  0.48510  Biso   1.000  H
  H214     1.0000 0.15840  0.49230  0.40590  Biso   1.000  H
  C144     1.0000 0.02880  0.51030  0.48020  Biso   1.000  C
  H215     1.0000 0.02570  0.50540  0.42010  Biso   1.000  H
  H216     1.0000 0.03380  0.55250  0.49140  Biso   1.000  H
  Si19     1.0000 0.90497  0.02909  0.51654  Biso   1.000  Si
  N19      1.0000 0.95516  0.20267  0.53490  Biso   1.000  N
  C145     1.0000 0.94750  0.14490  0.54440  Biso   1.000  C
  H217     1.0000 0.96560  0.12680  0.59010  Biso   1.000  H
  C146     1.0000 0.91460  0.10930  0.49180  Biso   1.000  C
  C147     1.0000 0.89020  0.13750  0.42410  Biso   1.000  C
  H218     1.0000 0.86840  0.11560  0.38530  Biso   1.000  H
  C148     1.0000 0.89750  0.19690  0.41310  Biso   1.000  C
  H219     1.0000 0.88060  0.21600  0.36720  Biso   1.000  H
  C149     1.0000 0.92970  0.22800  0.47000  Biso   1.000  C
  H220     1.0000 0.93400  0.26890  0.46270  Biso   1.000  H
  C150     1.0000 0.89830  0.02260  0.62940  Biso   1.000  C
  H221     1.0000 0.89310  0.98150  0.64430  Biso   1.000  H
  H222     1.0000 0.93380  0.03780  0.65540  Biso   1.000  H
  H223     1.0000 0.86450  0.04520  0.64820  Biso   1.000  H
  C151     1.0000 0.83780  0.00250  0.46520  Biso   1.000  C
  H224     1.0000 0.83220  0.96100  0.47760  Biso   1.000  H
  H225     1.0000 0.80410  0.02480  0.48510  Biso   1.000  H
  H226     1.0000 0.84160  0.00770  0.40590  Biso   1.000  H
  C152     1.0000 0.97120  0.98970  0.48020  Biso   1.000  C
  H227     1.0000 0.97430  0.99460  0.42010  Biso   1.000  H
  H228     1.0000 0.96620  0.94750  0.49140  Biso   1.000  H
  Si20     1.0000 0.40497  0.52909  0.01654  Biso   1.000  Si
  N20      1.0000 0.45516  0.70267  0.03490  Biso   1.000  N
  C153     1.0000 0.44750  0.64490  0.04440  Biso   1.000  C
  H229     1.0000 0.46560  0.62680  0.09010  Biso   1.000  H
  C154     1.0000 0.41460  0.60930  0.99180  Biso   1.000  C
  C155     1.0000 0.39020  0.63750  0.92410  Biso   1.000  C
  H230     1.0000 0.36840  0.61560  0.88530  Biso   1.000  H
  C156     1.0000 0.39750  0.69690  0.91310  Biso   1.000  C
  H231     1.0000 0.38060  0.71600  0.86720  Biso   1.000  H
  C157     1.0000 0.42970  0.72800  0.97000  Biso   1.000  C
  H232     1.0000 0.43400  0.76890  0.96270  Biso   1.000  H
  C158     1.0000 0.39830  0.52260  0.12940  Biso   1.000  C
  H233     1.0000 0.39310  0.48150  0.14430  Biso   1.000  H
  H234     1.0000 0.43380  0.53780  0.15540  Biso   1.000  H
  H235     1.0000 0.36450  0.54520  0.14820  Biso   1.000  H
  C159     1.0000 0.33780  0.50250  0.96520  Biso   1.000  C
  H236     1.0000 0.33220  0.46100  0.97760  Biso   1.000  H
  H237     1.0000 0.30410  0.52480  0.98510  Biso   1.000  H
  H238     1.0000 0.34160  0.50770  0.90590  Biso   1.000  H
  C160     1.0000 0.47120  0.48970  0.98020  Biso   1.000  C
  H239     1.0000 0.47430  0.49460  0.92010  Biso   1.000  H
  H240     1.0000 0.46620  0.44750  0.99140  Biso   1.000  H
  Si21     1.0000 0.27909  0.65497  0.23346  Biso   1.000  Si
  N21      1.0000 0.45267  0.70516  0.21510  Biso   1.000  N
  C161     1.0000 0.39490  0.69750  0.20560  Biso   1.000  C
  H241     1.0000 0.37680  0.71560  0.15990  Biso   1.000  H
  C162     1.0000 0.35930  0.66460  0.25820  Biso   1.000  C
  C163     1.0000 0.38750  0.64020  0.32590  Biso   1.000  C
  H242     1.0000 0.36560  0.61840  0.36470  Biso   1.000  H
  C164     1.0000 0.44690  0.64750  0.33690  Biso   1.000  C
  H243     1.0000 0.46600  0.63060  0.38280  Biso   1.000  H
  C165     1.0000 0.47800  0.67970  0.28000  Biso   1.000  C
  H244     1.0000 0.51890  0.68400  0.28730  Biso   1.000  H
  C166     1.0000 0.27260  0.64830  0.12060  Biso   1.000  C
  H245     1.0000 0.23150  0.64310  0.10570  Biso   1.000  H
  H246     1.0000 0.28780  0.68380  0.09460  Biso   1.000  H
  H247     1.0000 0.29520  0.61450  0.10180  Biso   1.000  H
  C167     1.0000 0.25250  0.58780  0.28480  Biso   1.000  C
  H248     1.0000 0.21100  0.58220  0.27240  Biso   1.000  H
  H249     1.0000 0.27480  0.55410  0.26490  Biso   1.000  H
  H250     1.0000 0.25770  0.59160  0.34410  Biso   1.000  H
  C168     1.0000 0.23970  0.72120  0.26980  Biso   1.000  C
  H251     1.0000 0.24460  0.72430  0.32990  Biso   1.000  H
  H252     1.0000 0.19750  0.71620  0.25860  Biso   1.000  H
  Si22     1.0000 0.77909  0.15497  0.73346  Biso   1.000  Si
  N22      1.0000 0.95267  0.20516  0.71510  Biso   1.000  N
  C169     1.0000 0.89490  0.19750  0.70560  Biso   1.000  C
  H253     1.0000 0.87680  0.21560  0.65990  Biso   1.000  H
  C170     1.0000 0.85930  0.16460  0.75820  Biso   1.000  C
  C171     1.0000 0.88750  0.14020  0.82590  Biso   1.000  C
  H254     1.0000 0.86560  0.11840  0.86470  Biso   1.000  H
  C172     1.0000 0.94690  0.14750  0.83690  Biso   1.000  C
  H255     1.0000 0.96600  0.13060  0.88280  Biso   1.000  H
  C173     1.0000 0.97800  0.17970  0.78000  Biso   1.000  C
  H256     1.0000 0.01890  0.18400  0.78730  Biso   1.000  H
  C174     1.0000 0.77260  0.14830  0.62060  Biso   1.000  C
  H257     1.0000 0.73150  0.14310  0.60570  Biso   1.000  H
  H258     1.0000 0.78780  0.18380  0.59460  Biso   1.000  H
  H259     1.0000 0.79520  0.11450  0.60180  Biso   1.000  H
  C175     1.0000 0.75250  0.08780  0.78480  Biso   1.000  C
  H260     1.0000 0.71100  0.08220  0.77240  Biso   1.000  H
  H261     1.0000 0.77480  0.05410  0.76490  Biso   1.000  H
  H262     1.0000 0.75770  0.09160  0.84410  Biso   1.000  H
  C176     1.0000 0.73970  0.22120  0.76980  Biso   1.000  C
  H263     1.0000 0.74460  0.22430  0.82990  Biso   1.000  H
  H264     1.0000 0.69750  0.21620  0.75860  Biso   1.000  H
  Si23     1.0000 0.22091  0.34503  0.73346  Biso   1.000  Si
  N23      1.0000 0.04733  0.29484  0.71510  Biso   1.000  N
  C177     1.0000 0.10510  0.30250  0.70560  Biso   1.000  C
  H265     1.0000 0.12320  0.28440  0.65990  Biso   1.000  H
  C178     1.0000 0.14070  0.33540  0.75820  Biso   1.000  C
  C179     1.0000 0.11250  0.35980  0.82590  Biso   1.000  C
  H266     1.0000 0.13440  0.38160  0.86470  Biso   1.000  H
  C180     1.0000 0.05310  0.35250  0.83690  Biso   1.000  C
  H267     1.0000 0.03400  0.36940  0.88280  Biso   1.000  H
  C181     1.0000 0.02200  0.32030  0.78000  Biso   1.000  C
  H268     1.0000 0.98110  0.31600  0.78730  Biso   1.000  H
  C182     1.0000 0.22740  0.35170  0.62060  Biso   1.000  C
  H269     1.0000 0.26850  0.35690  0.60570  Biso   1.000  H
  H270     1.0000 0.21220  0.31620  0.59460  Biso   1.000  H
  H271     1.0000 0.20480  0.38550  0.60180  Biso   1.000  H
  C183     1.0000 0.24750  0.41220  0.78480  Biso   1.000  C
  H272     1.0000 0.28900  0.41780  0.77240  Biso   1.000  H
  H273     1.0000 0.22520  0.44590  0.76490  Biso   1.000  H
  H274     1.0000 0.24230  0.40840  0.84410  Biso   1.000  H
  C184     1.0000 0.26030  0.27880  0.76980  Biso   1.000  C
  H275     1.0000 0.25540  0.27570  0.82990  Biso   1.000  H
  H276     1.0000 0.30250  0.28380  0.75860  Biso   1.000  H
  Si24     1.0000 0.72091  0.84503  0.23346  Biso   1.000  Si
  N24      1.0000 0.54733  0.79484  0.21510  Biso   1.000  N
  C185     1.0000 0.60510  0.80250  0.20560  Biso   1.000  C
  H277     1.0000 0.62320  0.78440  0.15990  Biso   1.000  H
  C186     1.0000 0.64070  0.83540  0.25820  Biso   1.000  C
  C187     1.0000 0.61250  0.85980  0.32590  Biso   1.000  C
  H278     1.0000 0.63440  0.88160  0.36470  Biso   1.000  H
  C188     1.0000 0.55310  0.85250  0.33690  Biso   1.000  C
  H279     1.0000 0.53400  0.86940  0.38280  Biso   1.000  H
  C189     1.0000 0.52200  0.82030  0.28000  Biso   1.000  C
  H280     1.0000 0.48110  0.81600  0.28730  Biso   1.000  H
  C190     1.0000 0.72740  0.85170  0.12060  Biso   1.000  C
  H281     1.0000 0.76850  0.85690  0.10570  Biso   1.000  H
  H282     1.0000 0.71220  0.81620  0.09460  Biso   1.000  H
  H283     1.0000 0.70480  0.88550  0.10180  Biso   1.000  H
  C191     1.0000 0.74750  0.91220  0.28480  Biso   1.000  C
  H284     1.0000 0.78900  0.91780  0.27240  Biso   1.000  H
  H285     1.0000 0.72520  0.94590  0.26490  Biso   1.000  H
  H286     1.0000 0.74230  0.90840  0.34410  Biso   1.000  H
  C192     1.0000 0.76030  0.77880  0.26980  Biso   1.000  C
  H287     1.0000 0.75540  0.77570  0.32990  Biso   1.000  H
  H288     1.0000 0.80250  0.78380  0.25860  Biso   1.000  H
  Si25     1.0000 0.40497  0.02909  0.98346  Biso   1.000  Si
  N25      1.0000 0.45516  0.20267  0.96510  Biso   1.000  N
  C193     1.0000 0.44750  0.14490  0.95560  Biso   1.000  C
  H289     1.0000 0.46560  0.12680  0.90990  Biso   1.000  H
  C194     1.0000 0.41460  0.10930  0.00820  Biso   1.000  C
  C195     1.0000 0.39020  0.13750  0.07590  Biso   1.000  C
  H290     1.0000 0.36840  0.11560  0.11470  Biso   1.000  H
  C196     1.0000 0.39750  0.19690  0.08690  Biso   1.000  C
  H291     1.0000 0.38060  0.21600  0.13280  Biso   1.000  H
  C197     1.0000 0.42970  0.22800  0.03000  Biso   1.000  C
  H292     1.0000 0.43400  0.26890  0.03730  Biso   1.000  H
  C198     1.0000 0.39830  0.02260  0.87060  Biso   1.000  C
  H293     1.0000 0.39310  0.98150  0.85570  Biso   1.000  H
  H294     1.0000 0.43380  0.03780  0.84460  Biso   1.000  H
  H295     1.0000 0.36450  0.04520  0.85180  Biso   1.000  H
  C199     1.0000 0.33780  0.00250  0.03480  Biso   1.000  C
  H296     1.0000 0.33220  0.96100  0.02240  Biso   1.000  H
  H297     1.0000 0.30410  0.02480  0.01490  Biso   1.000  H
  H298     1.0000 0.34160  0.00770  0.09410  Biso   1.000  H
  C200     1.0000 0.47120  0.98970  0.01980  Biso   1.000  C
  H299     1.0000 0.47430  0.99460  0.07990  Biso   1.000  H
  H300     1.0000 0.46620  0.94750  0.00860  Biso   1.000  H
  Si26     1.0000 0.90497  0.52909  0.48346  Biso   1.000  Si
  N26      1.0000 0.95516  0.70267  0.46510  Biso   1.000  N
  C201     1.0000 0.94750  0.64490  0.45560  Biso   1.000  C
  H301     1.0000 0.96560  0.62680  0.40990  Biso   1.000  H
  C202     1.0000 0.91460  0.60930  0.50820  Biso   1.000  C
  C203     1.0000 0.89020  0.63750  0.57590  Biso   1.000  C
  H302     1.0000 0.86840  0.61560  0.61470  Biso   1.000  H
  C204     1.0000 0.89750  0.69690  0.58690  Biso   1.000  C
  H303     1.0000 0.88060  0.71600  0.63280  Biso   1.000  H
  C205     1.0000 0.92970  0.72800  0.53000  Biso   1.000  C
  H304     1.0000 0.93400  0.76890  0.53730  Biso   1.000  H
  C206     1.0000 0.89830  0.52260  0.37060  Biso   1.000  C
  H305     1.0000 0.89310  0.48150  0.35570  Biso   1.000  H
  H306     1.0000 0.93380  0.53780  0.34460  Biso   1.000  H
  H307     1.0000 0.86450  0.54520  0.35180  Biso   1.000  H
  C207     1.0000 0.83780  0.50250  0.53480  Biso   1.000  C
  H308     1.0000 0.83220  0.46100  0.52240  Biso   1.000  H
  H309     1.0000 0.80410  0.52480  0.51490  Biso   1.000  H
  H310     1.0000 0.84160  0.50770  0.59410  Biso   1.000  H
  C208     1.0000 0.97120  0.48970  0.51980  Biso   1.000  C
  H311     1.0000 0.97430  0.49460  0.57990  Biso   1.000  H
  H312     1.0000 0.96620  0.44750  0.50860  Biso   1.000  H
  Si27     1.0000 0.09503  0.97091  0.48346  Biso   1.000  Si
  N27      1.0000 0.04484  0.79733  0.46510  Biso   1.000  N
  C209     1.0000 0.05250  0.85510  0.45560  Biso   1.000  C
  H313     1.0000 0.03440  0.87320  0.40990  Biso   1.000  H
  C210     1.0000 0.08540  0.89070  0.50820  Biso   1.000  C
  C211     1.0000 0.10980  0.86250  0.57590  Biso   1.000  C
  H314     1.0000 0.13160  0.88440  0.61470  Biso   1.000  H
  C212     1.0000 0.10250  0.80310  0.58690  Biso   1.000  C
  H315     1.0000 0.11940  0.78400  0.63280  Biso   1.000  H
  C213     1.0000 0.07030  0.77200  0.53000  Biso   1.000  C
  H316     1.0000 0.06600  0.73110  0.53730  Biso   1.000  H
  C214     1.0000 0.10170  0.97740  0.37060  Biso   1.000  C
  H317     1.0000 0.10690  0.01850  0.35570  Biso   1.000  H
  H318     1.0000 0.06620  0.96220  0.34460  Biso   1.000  H
  H319     1.0000 0.13550  0.95480  0.35180  Biso   1.000  H
  C215     1.0000 0.16220  0.99750  0.53480  Biso   1.000  C
  H320     1.0000 0.16780  0.03900  0.52240  Biso   1.000  H
  H321     1.0000 0.19590  0.97520  0.51490  Biso   1.000  H
  H322     1.0000 0.15840  0.99230  0.59410  Biso   1.000  H
  C216     1.0000 0.02880  0.01030  0.51980  Biso   1.000  C
  H323     1.0000 0.02570  0.00540  0.57990  Biso   1.000  H
  H324     1.0000 0.03380  0.05250  0.50860  Biso   1.000  H
  Si28     1.0000 0.59503  0.47091  0.98346  Biso   1.000  Si
  N28      1.0000 0.54484  0.29733  0.96510  Biso   1.000  N
  C217     1.0000 0.55250  0.35510  0.95560  Biso   1.000  C
  H325     1.0000 0.53440  0.37320  0.90990  Biso   1.000  H
  C218     1.0000 0.58540  0.39070  0.00820  Biso   1.000  C
  C219     1.0000 0.60980  0.36250  0.07590  Biso   1.000  C
  H326     1.0000 0.63160  0.38440  0.11470  Biso   1.000  H
  C220     1.0000 0.60250  0.30310  0.08690  Biso   1.000  C
  H327     1.0000 0.61940  0.28400  0.13280  Biso   1.000  H
  C221     1.0000 0.57030  0.27200  0.03000  Biso   1.000  C
  H328     1.0000 0.56600  0.23110  0.03730  Biso   1.000  H
  C222     1.0000 0.60170  0.47740  0.87060  Biso   1.000  C
  H329     1.0000 0.60690  0.51850  0.85570  Biso   1.000  H
  H330     1.0000 0.56620  0.46220  0.84460  Biso   1.000  H
  H331     1.0000 0.63550  0.45480  0.85180  Biso   1.000  H
  C223     1.0000 0.66220  0.49750  0.03480  Biso   1.000  C
  H332     1.0000 0.66780  0.53900  0.02240  Biso   1.000  H
  H333     1.0000 0.69590  0.47520  0.01490  Biso   1.000  H
  H334     1.0000 0.65840  0.49230  0.09410  Biso   1.000  H
  C224     1.0000 0.52880  0.51030  0.01980  Biso   1.000  C
  H335     1.0000 0.52570  0.50540  0.07990  Biso   1.000  H
  H336     1.0000 0.53380  0.55250  0.00860  Biso   1.000  H
  Si29     1.0000 0.72091  0.34503  0.76654  Biso   1.000  Si
  N29      1.0000 0.54733  0.29484  0.78490  Biso   1.000  N
  C225     1.0000 0.60510  0.30250  0.79440  Biso   1.000  C
  H337     1.0000 0.62320  0.28440  0.84010  Biso   1.000  H
  C226     1.0000 0.64070  0.33540  0.74180  Biso   1.000  C
  C227     1.0000 0.61250  0.35980  0.67410  Biso   1.000  C
  H338     1.0000 0.63440  0.38160  0.63530  Biso   1.000  H
  C228     1.0000 0.55310  0.35250  0.66310  Biso   1.000  C
  H339     1.0000 0.53400  0.36940  0.61720  Biso   1.000  H
  C229     1.0000 0.52200  0.32030  0.72000  Biso   1.000  C
  H340     1.0000 0.48110  0.31600  0.71270  Biso   1.000  H
  C230     1.0000 0.72740  0.35170  0.87940  Biso   1.000  C
  H341     1.0000 0.76850  0.35690  0.89430  Biso   1.000  H
  H342     1.0000 0.71220  0.31620  0.90540  Biso   1.000  H
  H343     1.0000 0.70480  0.38550  0.89820  Biso   1.000  H
  C231     1.0000 0.74750  0.41220  0.71520  Biso   1.000  C
  H344     1.0000 0.78900  0.41780  0.72760  Biso   1.000  H
  H345     1.0000 0.72520  0.44590  0.73510  Biso   1.000  H
  H346     1.0000 0.74230  0.40840  0.65590  Biso   1.000  H
  C232     1.0000 0.76030  0.27880  0.73020  Biso   1.000  C
  H347     1.0000 0.75540  0.27570  0.67010  Biso   1.000  H
  H348     1.0000 0.80250  0.28380  0.74140  Biso   1.000  H
  Si30     1.0000 0.22091  0.84503  0.26654  Biso   1.000  Si
  N30      1.0000 0.04733  0.79484  0.28490  Biso   1.000  N
  C233     1.0000 0.10510  0.80250  0.29440  Biso   1.000  C
  H349     1.0000 0.12320  0.78440  0.34010  Biso   1.000  H
  C234     1.0000 0.14070  0.83540  0.24180  Biso   1.000  C
  C235     1.0000 0.11250  0.85980  0.17410  Biso   1.000  C
  H350     1.0000 0.13440  0.88160  0.13530  Biso   1.000  H
  C236     1.0000 0.05310  0.85250  0.16310  Biso   1.000  C
  H351     1.0000 0.03400  0.86940  0.11720  Biso   1.000  H
  C237     1.0000 0.02200  0.82030  0.22000  Biso   1.000  C
  H352     1.0000 0.98110  0.81600  0.21270  Biso   1.000  H
  C238     1.0000 0.22740  0.85170  0.37940  Biso   1.000  C
  H353     1.0000 0.26850  0.85690  0.39430  Biso   1.000  H
  H354     1.0000 0.21220  0.81620  0.40540  Biso   1.000  H
  H355     1.0000 0.20480  0.88550  0.39820  Biso   1.000  H
  C239     1.0000 0.24750  0.91220  0.21520  Biso   1.000  C
  H356     1.0000 0.28900  0.91780  0.22760  Biso   1.000  H
  H357     1.0000 0.22520  0.94590  0.23510  Biso   1.000  H
  H358     1.0000 0.24230  0.90840  0.15590  Biso   1.000  H
  C240     1.0000 0.26030  0.77880  0.23020  Biso   1.000  C
  H359     1.0000 0.25540  0.77570  0.17010  Biso   1.000  H
  H360     1.0000 0.30250  0.78380  0.24140  Biso   1.000  H
  Si31     1.0000 0.77909  0.65497  0.26654  Biso   1.000  Si
  N31      1.0000 0.95267  0.70516  0.28490  Biso   1.000  N
  C241     1.0000 0.89490  0.69750  0.29440  Biso   1.000  C
  H361     1.0000 0.87680  0.71560  0.34010  Biso   1.000  H
  C242     1.0000 0.85930  0.66460  0.24180  Biso   1.000  C
  C243     1.0000 0.88750  0.64020  0.17410  Biso   1.000  C
  H362     1.0000 0.86560  0.61840  0.13530  Biso   1.000  H
  C244     1.0000 0.94690  0.64750  0.16310  Biso   1.000  C
  H363     1.0000 0.96600  0.63060  0.11720  Biso   1.000  H
  C245     1.0000 0.97800  0.67970  0.22000  Biso   1.000  C
  H364     1.0000 0.01890  0.68400  0.21270  Biso   1.000  H
  C246     1.0000 0.77260  0.64830  0.37940  Biso   1.000  C
  H365     1.0000 0.73150  0.64310  0.39430  Biso   1.000  H
  H366     1.0000 0.78780  0.68380  0.40540  Biso   1.000  H
  H367     1.0000 0.79520  0.61450  0.39820  Biso   1.000  H
  C247     1.0000 0.75250  0.58780  0.21520  Biso   1.000  C
  H368     1.0000 0.71100  0.58220  0.22760  Biso   1.000  H
  H369     1.0000 0.77480  0.55410  0.23510  Biso   1.000  H
  H370     1.0000 0.75770  0.59160  0.15590  Biso   1.000  H
  C248     1.0000 0.73970  0.72120  0.23020  Biso   1.000  C
  H371     1.0000 0.74460  0.72430  0.17010  Biso   1.000  H
  H372     1.0000 0.69750  0.71620  0.24140  Biso   1.000  H
  Si32     1.0000 0.27909  0.15497  0.76654  Biso   1.000  Si
  N32      1.0000 0.45267  0.20516  0.78490  Biso   1.000  N
  C249     1.0000 0.39490  0.19750  0.79440  Biso   1.000  C
  H373     1.0000 0.37680  0.21560  0.84010  Biso   1.000  H
  C250     1.0000 0.35930  0.16460  0.74180  Biso   1.000  C
  C251     1.0000 0.38750  0.14020  0.67410  Biso   1.000  C
  H374     1.0000 0.36560  0.11840  0.63530  Biso   1.000  H
  C252     1.0000 0.44690  0.14750  0.66310  Biso   1.000  C
  H375     1.0000 0.46600  0.13060  0.61720  Biso   1.000  H
  C253     1.0000 0.47800  0.17970  0.72000  Biso   1.000  C
  H376     1.0000 0.51890  0.18400  0.71270  Biso   1.000  H
  C254     1.0000 0.27260  0.14830  0.87940  Biso   1.000  C
  H377     1.0000 0.23150  0.14310  0.89430  Biso   1.000  H
  H378     1.0000 0.28780  0.18380  0.90540  Biso   1.000  H
  H379     1.0000 0.29520  0.11450  0.89820  Biso   1.000  H
  C255     1.0000 0.25250  0.08780  0.71520  Biso   1.000  C
  H380     1.0000 0.21100  0.08220  0.72760  Biso   1.000  H
  H381     1.0000 0.27480  0.05410  0.73510  Biso   1.000  H
  H382     1.0000 0.25770  0.09160  0.65590  Biso   1.000  H
  C256     1.0000 0.23970  0.22120  0.73020  Biso   1.000  C
  H383     1.0000 0.24460  0.22430  0.67010  Biso   1.000  H
  H384     1.0000 0.19750  0.21620  0.74140  Biso   1.000  H
  Ni5      1.0000 0.50000  0.75000  0.12500  Biso   1.000  Ni
  Ni6      1.0000 0.00000  0.25000  0.62500  Biso   1.000  Ni
  Ni7      1.0000 0.50000  0.25000  0.87500  Biso   1.000  Ni
  Ni8      1.0000 0.00000  0.75000  0.37500  Biso   1.000  Ni
