data_image0
_cell_length_a       44.964
_cell_length_b       12.4911
_cell_length_c       31.6821
_cell_angle_alpha    90
_cell_angle_beta     134.571
_cell_angle_gamma    90

_symmetry_space_group_name_H-M    "P 1"
_symmetry_int_tables_number       1

loop_
  _symmetry_equiv_pos_as_xyz
  'x, y, z'

loop_
  _atom_site_label
  _atom_site_occupancy
  _atom_site_fract_x
  _atom_site_fract_y
  _atom_site_fract_z
  _atom_site_thermal_displace_type
  _atom_site_B_iso_or_equiv
  _atom_site_type_symbol
  Cd1      1.0000 0.23810  0.50656  0.85208  Biso   1.000  Cd
  Cd2      1.0000 0.23766  0.22798  0.87750  Biso   1.000  Cd
  Cd3      1.0000 0.41341  0.47056  0.63851  Biso   1.000  Cd
  Cd4      1.0000 0.32167  0.53232  0.48094  Biso   1.000  Cd
  Cd5      1.0000 0.35755  0.72198  0.59909  Biso   1.000  Cd
  Cd6      1.0000 0.64603  0.90985  0.74490  Biso   1.000  Cd
  C1       1.0000 0.24650  0.63970  0.77080  Biso   1.000  C
  H1       1.0000 0.22330  0.59900  0.74040  Biso   1.000  H
  C2       1.0000 0.26230  0.70750  0.75730  Biso   1.000  C
  H2       1.0000 0.25080  0.71080  0.71890  Biso   1.000  H
  C3       1.0000 0.29570  0.77160  0.80120  Biso   1.000  C
  C4       1.0000 0.31150  0.76500  0.85750  Biso   1.000  C
  H3       1.0000 0.33370  0.80810  0.88780  Biso   1.000  H
  C5       1.0000 0.29390  0.69350  0.86820  Biso   1.000  C
  H4       1.0000 0.30410  0.69050  0.90580  Biso   1.000  H
  C6       1.0000 0.31600  0.84970  0.79310  Biso   1.000  C
  C7       1.0000 0.32490  0.00480  0.71100  Biso   1.000  C
  H5       1.0000 0.29510  0.01250  0.67650  Biso   1.000  H
  H6       1.0000 0.33690  0.07600  0.72440  Biso   1.000  H
  C8       1.0000 0.32540  0.89040  0.64640  Biso   1.000  C
  H7       1.0000 0.29710  0.87480  0.61650  Biso   1.000  H
  C9       1.0000 0.38900  0.90220  0.69860  Biso   1.000  C
  H8       1.0000 0.41490  0.89060  0.71210  Biso   1.000  H
  C10      1.0000 0.35830  0.96860  0.81630  Biso   1.000  C
  C11      1.0000 0.39170  0.04820  0.85360  Biso   1.000  C
  C12      1.0000 0.41620  0.09080  0.84520  Biso   1.000  C
  H9       1.0000 0.41150  0.07080  0.81260  Biso   1.000  H
  C13      1.0000 0.44780  0.16370  0.88670  Biso   1.000  C
  H10      1.0000 0.46330  0.19230  0.88010  Biso   1.000  H
  C14      1.0000 0.43480  0.14790  0.94360  Biso   1.000  C
  H11      1.0000 0.44270  0.16180  0.97910  Biso   1.000  H
  C15      1.0000 0.40160  0.08130  0.90380  Biso   1.000  C
  H12      1.0000 0.38560  0.05810  0.91060  Biso   1.000  H
  C16      1.0000 0.49150  0.79690  0.92440  Biso   1.000  C
  H13      1.0000 0.46450  0.77060  0.89970  Biso   1.000  H
  C17      1.0000 0.50030  0.87980  0.90550  Biso   1.000  C
  H14      1.0000 0.47850  0.91710  0.87110  Biso   1.000  H
  C18      1.0000 0.54020  0.90730  0.93650  Biso   1.000  C
  C19      1.0000 0.57200  0.86060  0.99180  Biso   1.000  C
  H15      1.0000 0.59980  0.88000  0.01520  Biso   1.000  H
  C20      1.0000 0.56140  0.78500  0.01070  Biso   1.000  C
  H16      1.0000 0.58250  0.75410  0.04770  Biso   1.000  H
  C21      1.0000 0.54670  0.99080  0.90990  Biso   1.000  C
  C22      1.0000 0.61990  0.95170  0.95300  Biso   1.000  C
  H17      1.0000 0.61720  0.88090  0.96250  Biso   1.000  H
  H18      1.0000 0.62560  0.94360  0.92880  Biso   1.000  H
  C23      1.0000 0.53410  0.12030  0.85740  Biso   1.000  C
  C24      1.0000 0.50950  0.20090  0.80990  Biso   1.000  C
  C25      1.0000 0.46750  0.20860  0.77470  Biso   1.000  C
  H19      1.0000 0.45470  0.16430  0.78170  Biso   1.000  H
  C26      1.0000 0.44430  0.27980  0.72980  Biso   1.000  C
  H20      1.0000 0.41560  0.28060  0.70530  Biso   1.000  H
  C27      1.0000 0.50150  0.34630  0.75350  Biso   1.000  C
  H21      1.0000 0.51360  0.39680  0.74770  Biso   1.000  H
  C28      1.0000 0.52770  0.27060  0.79870  Biso   1.000  C
  H22      1.0000 0.55590  0.26680  0.82030  Biso   1.000  H
  C29      1.0000 0.48060  0.50110  0.62660  Biso   1.000  C
  H23      1.0000 0.48220  0.57010  0.63910  Biso   1.000  H
  C30      1.0000 0.50560  0.47650  0.61730  Biso   1.000  C
  H24      1.0000 0.52290  0.52810  0.62260  Biso   1.000  H
  C31      1.0000 0.50450  0.37500  0.60000  Biso   1.000  C
  C32      1.0000 0.47780  0.30040  0.59290  Biso   1.000  C
  H25      1.0000 0.47640  0.23030  0.58170  Biso   1.000  H
  C33      1.0000 0.45380  0.33230  0.60270  Biso   1.000  C
  H26      1.0000 0.43620  0.28240  0.59790  Biso   1.000  H
  C34      1.0000 0.52790  0.34510  0.58580  Biso   1.000  C
  C35      1.0000 0.55639  0.16400  0.53620  Biso   1.000  C
  H27      1.0000 0.56530  0.18740  0.51730  Biso   1.000  H
  H28      1.0000 0.52920  0.13030  0.50700  Biso   1.000  H
  C36      1.0000 0.56646  0.35630  0.57090  Biso   1.000  C
  C37      1.0000 0.59241  0.39810  0.56200  Biso   1.000  C
  C38      1.0000 0.58413  0.48800  0.53660  Biso   1.000  C
  H29      1.0000 0.56300  0.53090  0.52620  Biso   1.000  H
  C39      1.0000 0.60660  0.52070  0.52460  Biso   1.000  C
  H30      1.0000 0.59770  0.58270  0.50220  Biso   1.000  H
  C40      1.0000 0.65090  0.38340  0.57340  Biso   1.000  C
  H31      1.0000 0.67490  0.34940  0.58770  Biso   1.000  H
  C41      1.0000 0.63100  0.33800  0.58650  Biso   1.000  C
  H32      1.0000 0.64020  0.27550  0.60850  Biso   1.000  H
  C42      1.0000 0.31820  0.45960  0.95980  Biso   1.000  C
  C43      1.0000 0.36350  0.44390  0.01110  Biso   1.000  C
  C44      1.0000 0.38860  0.54440  0.04710  Biso   1.000  C
  H33      1.0000 0.37690  0.60630  0.02120  Biso   1.000  H
  H34      1.0000 0.38780  0.55710  0.07650  Biso   1.000  H
  C45      1.0000 0.43330  0.52580  0.07710  Biso   1.000  C
  H35      1.0000 0.44350  0.58730  0.07180  Biso   1.000  H
  H36      1.0000 0.45140  0.51350  0.11920  Biso   1.000  H
  C46      1.0000 0.43170  0.42980  0.04800  Biso   1.000  C
  H37      1.0000 0.44170  0.36980  0.07510  Biso   1.000  H
  C47      1.0000 0.38690  0.40490  0.99240  Biso   1.000  C
  C48      1.0000 0.37290  0.47570  0.94240  Biso   1.000  C
  H38      1.0000 0.34430  0.46050  0.90730  Biso   1.000  H
  H39      1.0000 0.39000  0.46210  0.93510  Biso   1.000  H
  H40      1.0000 0.37560  0.54940  0.95320  Biso   1.000  H
  C49      1.0000 0.37730  0.28890  0.97230  Biso   1.000  C
  H41      1.0000 0.38580  0.24400  0.00380  Biso   1.000  H
  H42      1.0000 0.39220  0.26850  0.96200  Biso   1.000  H
  H43      1.0000 0.34780  0.28070  0.93830  Biso   1.000  H
  C50      1.0000 0.36750  0.35870  0.04940  Biso   1.000  C
  H44      1.0000 0.35160  0.29660  0.02580  Biso   1.000  H
  H45      1.0000 0.35700  0.38670  0.06510  Biso   1.000  H
  H46      1.0000 0.39630  0.33940  0.08150  Biso   1.000  H
  C51      1.0000 0.45930  0.43120  0.03530  Biso   1.000  C
  C52      1.0000 0.17650  0.65360  0.81050  Biso   1.000  C
  C53      1.0000 0.15190  0.75720  0.79750  Biso   1.000  C
  H47      1.0000 0.12420  0.75050  0.75700  Biso   1.000  H
  C54      1.0000 0.14500  0.77720  0.83510  Biso   1.000  C
  H48      1.0000 0.16540  0.73820  0.87200  Biso   1.000  H
  H49      1.0000 0.11740  0.75250  0.81560  Biso   1.000  H
  C55      1.0000 0.14880  0.89410  0.84740  Biso   1.000  C
  H50      1.0000 0.17360  0.90920  0.88870  Biso   1.000  H
  H51      1.0000 0.12450  0.92020  0.83840  Biso   1.000  H
  C56      1.0000 0.15180  0.94710  0.80580  Biso   1.000  C
  C57      1.0000 0.17250  0.85670  0.79830  Biso   1.000  C
  C58      1.0000 0.16680  0.86540  0.74590  Biso   1.000  C
  H52      1.0000 0.13750  0.86580  0.71020  Biso   1.000  H
  H53      1.0000 0.17990  0.80540  0.74540  Biso   1.000  H
  H54      1.0000 0.17930  0.93060  0.74850  Biso   1.000  H
  C59      1.0000 0.21970  0.85570  0.85200  Biso   1.000  C
  H55      1.0000 0.23160  0.92020  0.85240  Biso   1.000  H
  H56      1.0000 0.23160  0.79490  0.84960  Biso   1.000  H
  H57      1.0000 0.22580  0.85140  0.88760  Biso   1.000  H
  C60      1.0000 0.11070  0.98020  0.74880  Biso   1.000  C
  H58      1.0000 0.09250  0.91920  0.72960  Biso   1.000  H
  H59      1.0000 0.11370  0.00990  0.72400  Biso   1.000  H
  H60      1.0000 0.09900  0.03320  0.75570  Biso   1.000  H
  C61      1.0000 0.18040  0.04540  0.83710  Biso   1.000  C
  C62      1.0000 0.57410  0.51700  0.11580  Biso   1.000  C
  C63      1.0000 0.61170  0.51640  0.18370  Biso   1.000  C
  C64      1.0000 0.62340  0.40720  0.21280  Biso   1.000  C
  H61      1.0000 0.64190  0.37100  0.21170  Biso   1.000  H
  H62      1.0000 0.59840  0.36400  0.19120  Biso   1.000  H
  C65      1.0000 0.64530  0.41940  0.27790  Biso   1.000  C
  H63      1.0000 0.63470  0.36820  0.28770  Biso   1.000  H
  H64      1.0000 0.67530  0.41070  0.30520  Biso   1.000  H
  C66      1.0000 0.63420  0.52960  0.27850  Biso   1.000  C
  H65      1.0000 0.65950  0.57250  0.29960  Biso   1.000  H
  C67      1.0000 0.59990  0.58200  0.21640  Biso   1.000  C
  C68      1.0000 0.55850  0.55500  0.18750  Biso   1.000  C
  H66      1.0000 0.55610  0.47860  0.18770  Biso   1.000  H
  H67      1.0000 0.53920  0.58030  0.14740  Biso   1.000  H
  H68      1.0000 0.55240  0.58780  0.20810  Biso   1.000  H
  C69      1.0000 0.60680  0.69960  0.21810  Biso   1.000  C
  H69      1.0000 0.63490  0.71220  0.23680  Biso   1.000  H
  H70      1.0000 0.60240  0.73490  0.24030  Biso   1.000  H
  H71      1.0000 0.58760  0.72740  0.17850  Biso   1.000  H
  C70      1.0000 0.64630  0.57780  0.19850  Biso   1.000  C
  H72      1.0000 0.63580  0.64480  0.17770  Biso   1.000  H
  H73      1.0000 0.65780  0.53740  0.18710  Biso   1.000  H
  H74      1.0000 0.66760  0.59110  0.24040  Biso   1.000  H
  C71      1.0000 0.62210  0.54280  0.31330  Biso   1.000  C
  C72      1.0000 0.33920  0.30290  0.53100  Biso   1.000  C
  C73      1.0000 0.32280  0.19000  0.52340  Biso   1.000  C
  C74      1.0000 0.29760  0.18920  0.54180  Biso   1.000  C
  C75      1.0000 0.27000  0.08700  0.50720  Biso   1.000  C
  H75      1.0000 0.28580  0.02430  0.53250  Biso   1.000  H
  C76      1.0000 0.26420  0.07880  0.45620  Biso   1.000  C
  H76      1.0000 0.23510  0.09190  0.42050  Biso   1.000  H
  H77      1.0000 0.27110  0.00680  0.45390  Biso   1.000  H
  C77      1.0000 0.29130  0.15810  0.46000  Biso   1.000  C
  H78      1.0000 0.30450  0.12510  0.44890  Biso   1.000  H
  H79      1.0000 0.27510  0.21930  0.43450  Biso   1.000  H
  C78      1.0000 0.35810  0.11540  0.55510  Biso   1.000  C
  H80      1.0000 0.34880  0.04390  0.55160  Biso   1.000  H
  H81      1.0000 0.37940  0.13510  0.59620  Biso   1.000  H
  H82      1.0000 0.36930  0.11840  0.53820  Biso   1.000  H
  C79      1.0000 0.32480  0.17190  0.60720  Biso   1.000  C
  H83      1.0000 0.34210  0.23380  0.62870  Biso   1.000  H
  H84      1.0000 0.34220  0.11020  0.62010  Biso   1.000  H
  H85      1.0000 0.30750  0.16070  0.61430  Biso   1.000  H
  C80      1.0000 0.27290  0.28940  0.52290  Biso   1.000  C
  H86      1.0000 0.29160  0.34890  0.54520  Biso   1.000  H
  H87      1.0000 0.25550  0.28260  0.53000  Biso   1.000  H
  H88      1.0000 0.25590  0.30130  0.48150  Biso   1.000  H
  C81      1.0000 0.23120  0.09270  0.49310  Biso   1.000  C
  C82      1.0000 0.43120  0.87400  0.62880  Biso   1.000  C
  C83      1.0000 0.46960  0.93660  0.67050  Biso   1.000  C
  H89      1.0000 0.46150  0.01220  0.66110  Biso   1.000  H
  C84      1.0000 0.49510  0.92290  0.73550  Biso   1.000  C
  H90      1.0000 0.48910  0.98070  0.74910  Biso   1.000  H
  H91      1.0000 0.48790  0.85570  0.74200  Biso   1.000  H
  C85      1.0000 0.54060  0.92350  0.76970  Biso   1.000  C
  H92      1.0000 0.55200  0.85160  0.78160  Biso   1.000  H
  H93      1.0000 0.55630  0.96810  0.80470  Biso   1.000  H
  C86      1.0000 0.54150  0.97030  0.72540  Biso   1.000  C
  C87      1.0000 0.54070  0.08690  0.72000  Biso   1.000  C
  H94      1.0000 0.54180  0.10540  0.69170  Biso   1.000  H
  H95      1.0000 0.56430  0.11730  0.75780  Biso   1.000  H
  H96      1.0000 0.51540  0.11440  0.70690  Biso   1.000  H
  C88      1.0000 0.50240  0.91690  0.66640  Biso   1.000  C
  C89      1.0000 0.48790  0.96510  0.61000  Biso   1.000  C
  H97      1.0000 0.50820  0.95000  0.60870  Biso   1.000  H
  H98      1.0000 0.48480  0.04110  0.61000  Biso   1.000  H
  H99      1.0000 0.46160  0.93420  0.57590  Biso   1.000  H
  C90      1.0000 0.50660  0.79900  0.66490  Biso   1.000  C
  H100     1.0000 0.52640  0.78460  0.66250  Biso   1.000  H
  H101     1.0000 0.48000  0.76910  0.63090  Biso   1.000  H
  H102     1.0000 0.51620  0.76720  0.70020  Biso   1.000  H
  C91      1.0000 0.57980  0.94040  0.73860  Biso   1.000  C
  C92      1.0000 0.28200  0.65950  0.38290  Biso   1.000  C
  C93      1.0000 0.25820  0.73070  0.32860  Biso   1.000  C
  H103     1.0000 0.22870  0.71340  0.30380  Biso   1.000  H
  C94      1.0000 0.26130  0.84680  0.33850  Biso   1.000  C
  H104     1.0000 0.28860  0.86700  0.37620  Biso   1.000  H
  H105     1.0000 0.24010  0.87210  0.33690  Biso   1.000  H
  C95      1.0000 0.25350  0.89010  0.28490  Biso   1.000  C
  H106     1.0000 0.22880  0.93510  0.26010  Biso   1.000  H
  H107     1.0000 0.27710  0.93350  0.29960  Biso   1.000  H
  C96      1.0000 0.24780  0.80050  0.24900  Biso   1.000  C
  C97      1.0000 0.19830  0.78100  0.19630  Biso   1.000  C
  H108     1.0000 0.19300  0.72330  0.17170  Biso   1.000  H
  H109     1.0000 0.18510  0.84490  0.17300  Biso   1.000  H
  H110     1.0000 0.18740  0.76300  0.21270  Biso   1.000  H
  C98      1.0000 0.26680  0.70070  0.29080  Biso   1.000  C
  C99      1.0000 0.25040  0.58990  0.26140  Biso   1.000  C
  H111     1.0000 0.22070  0.58730  0.23590  Biso   1.000  H
  H112     1.0000 0.26340  0.53580  0.29140  Biso   1.000  H
  H113     1.0000 0.25670  0.57740  0.23850  Biso   1.000  H
  C100     1.0000 0.31330  0.69760  0.32940  Biso   1.000  C
  H114     1.0000 0.32520  0.63720  0.35550  Biso   1.000  H
  H115     1.0000 0.32580  0.76230  0.35220  Biso   1.000  H
  H116     1.0000 0.31850  0.69150  0.30480  Biso   1.000  H
  C101     1.0000 0.26240  0.81630  0.21830  Biso   1.000  C
  N1       1.0000 0.26220  0.62780  0.82520  Biso   1.000  N
  N2       1.0000 0.34930  0.90690  0.83950  Biso   1.000  N
  N3       1.0000 0.30390  0.87360  0.74180  Biso   1.000  N
  N4       1.0000 0.33126  0.95130  0.75740  Biso   1.000  N
  N5       1.0000 0.34310  0.94860  0.69420  Biso   1.000  N
  N6       1.0000 0.38480  0.95960  0.72700  Biso   1.000  N
  N7       1.0000 0.35370  0.85830  0.64760  Biso   1.000  N
  N8       1.0000 0.45690  0.19450  0.93460  Biso   1.000  N
  N9       1.0000 0.52260  0.75420  0.97880  Biso   1.000  N
  N10      1.0000 0.51730  0.05950  0.87130  Biso   1.000  N
  N11      1.0000 0.58086  0.01070  0.91980  Biso   1.000  N
  N12      1.0000 0.57270  0.09400  0.88560  Biso   1.000  N
  N13      1.0000 0.66205  0.00150  0.05589  Biso   1.000  N
  N14      1.0000 0.65388  0.00720  0.00658  Biso   1.000  N
  C102     1.0000 0.68178  0.07260  0.01685  Biso   1.000  C
  H117     1.0000 0.68330  0.09090  0.98990  Biso   1.000  H
  N15      1.0000 0.70719  0.10740  0.07250  Biso   1.000  N
  C103     1.0000 0.69499  0.06340  0.09663  Biso   1.000  C
  H118     1.0000 0.70730  0.07410  0.13510  Biso   1.000  H
  N16      1.0000 0.46120  0.34990  0.71900  Biso   1.000  N
  N17      1.0000 0.45460  0.43240  0.61890  Biso   1.000  N
  N18      1.0000 0.55140  0.41620  0.58620  Biso   1.000  N
  N19      1.0000 0.53020  0.24380  0.57420  Biso   1.000  N
  N20      1.0000 0.55620  0.25460  0.56710  Biso   1.000  N
  N21      1.0000 0.58870  0.08920  0.58890  Biso   1.000  N
  N22      1.0000 0.61810  0.05060  0.59390  Biso   1.000  N
  C104     1.0000 0.63920  0.98000  0.63680  Biso   1.000  C
  H119     1.0000 0.66190  0.94040  0.64970  Biso   1.000  H
  N23      1.0000 0.62280  0.97490  0.65820  Biso   1.000  N
  C105     1.0000 0.59150  0.04240  0.62860  Biso   1.000  C
  H120     1.0000 0.57440  0.05490  0.63470  Biso   1.000  H
  N24      1.0000 0.63950  0.47220  0.54190  Biso   1.000  N
  O1       1.0000 0.20510  0.62510  0.86340  Biso   1.000  O
  O2       1.0000 0.16900  0.60430  0.77030  Biso   1.000  O
  O3       1.0000 0.18410  0.10520  0.81140  Biso   1.000  O
  O4       1.0000 0.19820  0.07540  0.88450  Biso   1.000  O
  O5       1.0000 0.30210  0.55020  0.95470  Biso   1.000  O
  O6       1.0000 0.29500  0.39270  0.92090  Biso   1.000  O
  O7       1.0000 0.47019  0.34080  0.03200  Biso   1.000  O
  O8       1.0000 0.46922  0.51840  0.02970  Biso   1.000  O
  O9       1.0000 0.55791  0.43020  0.08960  Biso   1.000  O
  O10      1.0000 0.56065  0.60780  0.09150  Biso   1.000  O
  O11      1.0000 0.62000  0.46110  0.33310  Biso   1.000  O
  O12      1.0000 0.61250  0.63270  0.31690  Biso   1.000  O
  O13      1.0000 0.37230  0.33110  0.57860  Biso   1.000  O
  O14      1.0000 0.31560  0.36090  0.48610  Biso   1.000  O
  O15      1.0000 0.23030  0.06460  0.52800  Biso   1.000  O
  O16      1.0000 0.19940  0.13340  0.44500  Biso   1.000  O
  O17      1.0000 0.42370  0.79990  0.65080  Biso   1.000  O
  O18      1.0000 0.40530  0.90140  0.57450  Biso   1.000  O
  O19      1.0000 0.61000  0.91220  0.78780  Biso   1.000  O
  O20      1.0000 0.58310  0.94810  0.70540  Biso   1.000  O
  O21      1.0000 0.31394  0.69760  0.43380  Biso   1.000  O
  O22      1.0000 0.27040  0.56620  0.37830  Biso   1.000  O
  O23      1.0000 0.28160  0.90270  0.22760  Biso   1.000  O
  O24      1.0000 0.25610  0.74030  0.18700  Biso   1.000  O
  O25      1.0000 0.37814  0.59960  0.57030  Biso   1.000  O
  O26      1.0000 0.19832  0.37380  0.84060  Biso   1.000  O
  Cd7      1.0000 0.73810  0.00656  0.85208  Biso   1.000  Cd
  Cd8      1.0000 0.73766  0.72798  0.87750  Biso   1.000  Cd
  Cd9      1.0000 0.91341  0.97056  0.63851  Biso   1.000  Cd
  Cd10     1.0000 0.82167  0.03232  0.48094  Biso   1.000  Cd
  Cd11     1.0000 0.85755  0.22198  0.59909  Biso   1.000  Cd
  Cd12     1.0000 0.14603  0.40985  0.74490  Biso   1.000  Cd
  C106     1.0000 0.74650  0.13970  0.77080  Biso   1.000  C
  H121     1.0000 0.72330  0.09900  0.74040  Biso   1.000  H
  C107     1.0000 0.76230  0.20750  0.75730  Biso   1.000  C
  H122     1.0000 0.75080  0.21080  0.71890  Biso   1.000  H
  C108     1.0000 0.79570  0.27160  0.80120  Biso   1.000  C
  C109     1.0000 0.81150  0.26500  0.85750  Biso   1.000  C
  H123     1.0000 0.83370  0.30810  0.88780  Biso   1.000  H
  C110     1.0000 0.79390  0.19350  0.86820  Biso   1.000  C
  H124     1.0000 0.80410  0.19050  0.90580  Biso   1.000  H
  C111     1.0000 0.81600  0.34970  0.79310  Biso   1.000  C
  C112     1.0000 0.82490  0.50480  0.71100  Biso   1.000  C
  H125     1.0000 0.79510  0.51250  0.67650  Biso   1.000  H
  H126     1.0000 0.83690  0.57600  0.72440  Biso   1.000  H
  C113     1.0000 0.82540  0.39040  0.64640  Biso   1.000  C
  H127     1.0000 0.79710  0.37480  0.61650  Biso   1.000  H
  C114     1.0000 0.88900  0.40220  0.69860  Biso   1.000  C
  H128     1.0000 0.91490  0.39060  0.71210  Biso   1.000  H
  C115     1.0000 0.85830  0.46860  0.81630  Biso   1.000  C
  C116     1.0000 0.89170  0.54820  0.85360  Biso   1.000  C
  C117     1.0000 0.91620  0.59080  0.84520  Biso   1.000  C
  H129     1.0000 0.91150  0.57080  0.81260  Biso   1.000  H
  C118     1.0000 0.94780  0.66370  0.88670  Biso   1.000  C
  H130     1.0000 0.96330  0.69230  0.88010  Biso   1.000  H
  C119     1.0000 0.93480  0.64790  0.94360  Biso   1.000  C
  H131     1.0000 0.94270  0.66180  0.97910  Biso   1.000  H
  C120     1.0000 0.90160  0.58130  0.90380  Biso   1.000  C
  H132     1.0000 0.88560  0.55810  0.91060  Biso   1.000  H
  C121     1.0000 0.99150  0.29690  0.92440  Biso   1.000  C
  H133     1.0000 0.96450  0.27060  0.89970  Biso   1.000  H
  C122     1.0000 0.00030  0.37980  0.90550  Biso   1.000  C
  H134     1.0000 0.97850  0.41710  0.87110  Biso   1.000  H
  C123     1.0000 0.04020  0.40730  0.93650  Biso   1.000  C
  C124     1.0000 0.07200  0.36060  0.99180  Biso   1.000  C
  H135     1.0000 0.09980  0.38000  0.01520  Biso   1.000  H
  C125     1.0000 0.06140  0.28500  0.01070  Biso   1.000  C
  H136     1.0000 0.08250  0.25410  0.04770  Biso   1.000  H
  C126     1.0000 0.04670  0.49080  0.90990  Biso   1.000  C
  C127     1.0000 0.11990  0.45170  0.95300  Biso   1.000  C
  H137     1.0000 0.11720  0.38090  0.96250  Biso   1.000  H
  H138     1.0000 0.12560  0.44360  0.92880  Biso   1.000  H
  C128     1.0000 0.03410  0.62030  0.85740  Biso   1.000  C
  C129     1.0000 0.00950  0.70090  0.80990  Biso   1.000  C
  C130     1.0000 0.96750  0.70860  0.77470  Biso   1.000  C
  H139     1.0000 0.95470  0.66430  0.78170  Biso   1.000  H
  C131     1.0000 0.94430  0.77980  0.72980  Biso   1.000  C
  H140     1.0000 0.91560  0.78060  0.70530  Biso   1.000  H
  C132     1.0000 0.00150  0.84630  0.75350  Biso   1.000  C
  H141     1.0000 0.01360  0.89680  0.74770  Biso   1.000  H
  C133     1.0000 0.02770  0.77060  0.79870  Biso   1.000  C
  H142     1.0000 0.05590  0.76680  0.82030  Biso   1.000  H
  C134     1.0000 0.98060  0.00110  0.62660  Biso   1.000  C
  H143     1.0000 0.98220  0.07010  0.63910  Biso   1.000  H
  C135     1.0000 0.00560  0.97650  0.61730  Biso   1.000  C
  H144     1.0000 0.02290  0.02810  0.62260  Biso   1.000  H
  C136     1.0000 0.00450  0.87500  0.60000  Biso   1.000  C
  C137     1.0000 0.97780  0.80040  0.59290  Biso   1.000  C
  H145     1.0000 0.97640  0.73030  0.58170  Biso   1.000  H
  C138     1.0000 0.95380  0.83230  0.60270  Biso   1.000  C
  H146     1.0000 0.93620  0.78240  0.59790  Biso   1.000  H
  C139     1.0000 0.02790  0.84510  0.58580  Biso   1.000  C
  C140     1.0000 0.05639  0.66400  0.53620  Biso   1.000  C
  H147     1.0000 0.06530  0.68740  0.51730  Biso   1.000  H
  H148     1.0000 0.02920  0.63030  0.50700  Biso   1.000  H
  C141     1.0000 0.06646  0.85630  0.57090  Biso   1.000  C
  C142     1.0000 0.09241  0.89810  0.56200  Biso   1.000  C
  C143     1.0000 0.08413  0.98800  0.53660  Biso   1.000  C
  H149     1.0000 0.06300  0.03090  0.52620  Biso   1.000  H
  C144     1.0000 0.10660  0.02070  0.52460  Biso   1.000  C
  H150     1.0000 0.09770  0.08270  0.50220  Biso   1.000  H
  C145     1.0000 0.15090  0.88340  0.57340  Biso   1.000  C
  H151     1.0000 0.17490  0.84940  0.58770  Biso   1.000  H
  C146     1.0000 0.13100  0.83800  0.58650  Biso   1.000  C
  H152     1.0000 0.14020  0.77550  0.60850  Biso   1.000  H
  C147     1.0000 0.81820  0.95960  0.95980  Biso   1.000  C
  C148     1.0000 0.86350  0.94390  0.01110  Biso   1.000  C
  C149     1.0000 0.88860  0.04440  0.04710  Biso   1.000  C
  H153     1.0000 0.87690  0.10630  0.02120  Biso   1.000  H
  H154     1.0000 0.88780  0.05710  0.07650  Biso   1.000  H
  C150     1.0000 0.93330  0.02580  0.07710  Biso   1.000  C
  H155     1.0000 0.94350  0.08730  0.07180  Biso   1.000  H
  H156     1.0000 0.95140  0.01350  0.11920  Biso   1.000  H
  C151     1.0000 0.93170  0.92980  0.04800  Biso   1.000  C
  H157     1.0000 0.94170  0.86980  0.07510  Biso   1.000  H
  C152     1.0000 0.88690  0.90490  0.99240  Biso   1.000  C
  C153     1.0000 0.87290  0.97570  0.94240  Biso   1.000  C
  H158     1.0000 0.84430  0.96050  0.90730  Biso   1.000  H
  H159     1.0000 0.89000  0.96210  0.93510  Biso   1.000  H
  H160     1.0000 0.87560  0.04940  0.95320  Biso   1.000  H
  C154     1.0000 0.87730  0.78890  0.97230  Biso   1.000  C
  H161     1.0000 0.88580  0.74400  0.00380  Biso   1.000  H
  H162     1.0000 0.89220  0.76850  0.96200  Biso   1.000  H
  H163     1.0000 0.84780  0.78070  0.93830  Biso   1.000  H
  C155     1.0000 0.86750  0.85870  0.04940  Biso   1.000  C
  H164     1.0000 0.85160  0.79660  0.02580  Biso   1.000  H
  H165     1.0000 0.85700  0.88670  0.06510  Biso   1.000  H
  H166     1.0000 0.89630  0.83940  0.08150  Biso   1.000  H
  C156     1.0000 0.95930  0.93120  0.03530  Biso   1.000  C
  C157     1.0000 0.67650  0.15360  0.81050  Biso   1.000  C
  C158     1.0000 0.65190  0.25720  0.79750  Biso   1.000  C
  H167     1.0000 0.62420  0.25050  0.75700  Biso   1.000  H
  C159     1.0000 0.64500  0.27720  0.83510  Biso   1.000  C
  H168     1.0000 0.66540  0.23820  0.87200  Biso   1.000  H
  H169     1.0000 0.61740  0.25250  0.81560  Biso   1.000  H
  C160     1.0000 0.64880  0.39410  0.84740  Biso   1.000  C
  H170     1.0000 0.67360  0.40920  0.88870  Biso   1.000  H
  H171     1.0000 0.62450  0.42020  0.83840  Biso   1.000  H
  C161     1.0000 0.65180  0.44710  0.80580  Biso   1.000  C
  C162     1.0000 0.67250  0.35670  0.79830  Biso   1.000  C
  C163     1.0000 0.66680  0.36540  0.74590  Biso   1.000  C
  H172     1.0000 0.63750  0.36580  0.71020  Biso   1.000  H
  H173     1.0000 0.67990  0.30540  0.74540  Biso   1.000  H
  H174     1.0000 0.67930  0.43060  0.74850  Biso   1.000  H
  C164     1.0000 0.71970  0.35570  0.85200  Biso   1.000  C
  H175     1.0000 0.73160  0.42020  0.85240  Biso   1.000  H
  H176     1.0000 0.73160  0.29490  0.84960  Biso   1.000  H
  H177     1.0000 0.72580  0.35140  0.88760  Biso   1.000  H
  C165     1.0000 0.61070  0.48020  0.74880  Biso   1.000  C
  H178     1.0000 0.59250  0.41920  0.72960  Biso   1.000  H
  H179     1.0000 0.61370  0.50990  0.72400  Biso   1.000  H
  H180     1.0000 0.59900  0.53320  0.75570  Biso   1.000  H
  C166     1.0000 0.68040  0.54540  0.83710  Biso   1.000  C
  C167     1.0000 0.07410  0.01700  0.11580  Biso   1.000  C
  C168     1.0000 0.11170  0.01640  0.18370  Biso   1.000  C
  C169     1.0000 0.12340  0.90720  0.21280  Biso   1.000  C
  H181     1.0000 0.14190  0.87100  0.21170  Biso   1.000  H
  H182     1.0000 0.09840  0.86400  0.19120  Biso   1.000  H
  C170     1.0000 0.14530  0.91940  0.27790  Biso   1.000  C
  H183     1.0000 0.13470  0.86820  0.28770  Biso   1.000  H
  H184     1.0000 0.17530  0.91070  0.30520  Biso   1.000  H
  C171     1.0000 0.13420  0.02960  0.27850  Biso   1.000  C
  H185     1.0000 0.15950  0.07250  0.29960  Biso   1.000  H
  C172     1.0000 0.09990  0.08200  0.21640  Biso   1.000  C
  C173     1.0000 0.05850  0.05500  0.18750  Biso   1.000  C
  H186     1.0000 0.05610  0.97860  0.18770  Biso   1.000  H
  H187     1.0000 0.03920  0.08030  0.14740  Biso   1.000  H
  H188     1.0000 0.05240  0.08780  0.20810  Biso   1.000  H
  C174     1.0000 0.10680  0.19960  0.21810  Biso   1.000  C
  H189     1.0000 0.13490  0.21220  0.23680  Biso   1.000  H
  H190     1.0000 0.10240  0.23490  0.24030  Biso   1.000  H
  H191     1.0000 0.08760  0.22740  0.17850  Biso   1.000  H
  C175     1.0000 0.14630  0.07780  0.19850  Biso   1.000  C
  H192     1.0000 0.13580  0.14480  0.17770  Biso   1.000  H
  H193     1.0000 0.15780  0.03740  0.18710  Biso   1.000  H
  H194     1.0000 0.16760  0.09110  0.24040  Biso   1.000  H
  C176     1.0000 0.12210  0.04280  0.31330  Biso   1.000  C
  C177     1.0000 0.83920  0.80290  0.53100  Biso   1.000  C
  C178     1.0000 0.82280  0.69000  0.52340  Biso   1.000  C
  C179     1.0000 0.79760  0.68920  0.54180  Biso   1.000  C
  C180     1.0000 0.77000  0.58700  0.50720  Biso   1.000  C
  H195     1.0000 0.78580  0.52430  0.53250  Biso   1.000  H
  C181     1.0000 0.76420  0.57880  0.45620  Biso   1.000  C
  H196     1.0000 0.73510  0.59190  0.42050  Biso   1.000  H
  H197     1.0000 0.77110  0.50680  0.45390  Biso   1.000  H
  C182     1.0000 0.79130  0.65810  0.46000  Biso   1.000  C
  H198     1.0000 0.80450  0.62510  0.44890  Biso   1.000  H
  H199     1.0000 0.77510  0.71930  0.43450  Biso   1.000  H
  C183     1.0000 0.85810  0.61540  0.55510  Biso   1.000  C
  H200     1.0000 0.84880  0.54390  0.55160  Biso   1.000  H
  H201     1.0000 0.87940  0.63510  0.59620  Biso   1.000  H
  H202     1.0000 0.86930  0.61840  0.53820  Biso   1.000  H
  C184     1.0000 0.82480  0.67190  0.60720  Biso   1.000  C
  H203     1.0000 0.84210  0.73380  0.62870  Biso   1.000  H
  H204     1.0000 0.84220  0.61020  0.62010  Biso   1.000  H
  H205     1.0000 0.80750  0.66070  0.61430  Biso   1.000  H
  C185     1.0000 0.77290  0.78940  0.52290  Biso   1.000  C
  H206     1.0000 0.79160  0.84890  0.54520  Biso   1.000  H
  H207     1.0000 0.75550  0.78260  0.53000  Biso   1.000  H
  H208     1.0000 0.75590  0.80130  0.48150  Biso   1.000  H
  C186     1.0000 0.73120  0.59270  0.49310  Biso   1.000  C
  C187     1.0000 0.93120  0.37400  0.62880  Biso   1.000  C
  C188     1.0000 0.96960  0.43660  0.67050  Biso   1.000  C
  H209     1.0000 0.96150  0.51220  0.66110  Biso   1.000  H
  C189     1.0000 0.99510  0.42290  0.73550  Biso   1.000  C
  H210     1.0000 0.98910  0.48070  0.74910  Biso   1.000  H
  H211     1.0000 0.98790  0.35570  0.74200  Biso   1.000  H
  C190     1.0000 0.04060  0.42350  0.76970  Biso   1.000  C
  H212     1.0000 0.05200  0.35160  0.78160  Biso   1.000  H
  H213     1.0000 0.05630  0.46810  0.80470  Biso   1.000  H
  C191     1.0000 0.04150  0.47030  0.72540  Biso   1.000  C
  C192     1.0000 0.04070  0.58690  0.72000  Biso   1.000  C
  H214     1.0000 0.04180  0.60540  0.69170  Biso   1.000  H
  H215     1.0000 0.06430  0.61730  0.75780  Biso   1.000  H
  H216     1.0000 0.01540  0.61440  0.70690  Biso   1.000  H
  C193     1.0000 0.00240  0.41690  0.66640  Biso   1.000  C
  C194     1.0000 0.98790  0.46510  0.61000  Biso   1.000  C
  H217     1.0000 0.00820  0.45000  0.60870  Biso   1.000  H
  H218     1.0000 0.98480  0.54110  0.61000  Biso   1.000  H
  H219     1.0000 0.96160  0.43420  0.57590  Biso   1.000  H
  C195     1.0000 0.00660  0.29900  0.66490  Biso   1.000  C
  H220     1.0000 0.02640  0.28460  0.66250  Biso   1.000  H
  H221     1.0000 0.98000  0.26910  0.63090  Biso   1.000  H
  H222     1.0000 0.01620  0.26720  0.70020  Biso   1.000  H
  C196     1.0000 0.07980  0.44040  0.73860  Biso   1.000  C
  C197     1.0000 0.78200  0.15950  0.38290  Biso   1.000  C
  C198     1.0000 0.75820  0.23070  0.32860  Biso   1.000  C
  H223     1.0000 0.72870  0.21340  0.30380  Biso   1.000  H
  C199     1.0000 0.76130  0.34680  0.33850  Biso   1.000  C
  H224     1.0000 0.78860  0.36700  0.37620  Biso   1.000  H
  H225     1.0000 0.74010  0.37210  0.33690  Biso   1.000  H
  C200     1.0000 0.75350  0.39010  0.28490  Biso   1.000  C
  H226     1.0000 0.72880  0.43510  0.26010  Biso   1.000  H
  H227     1.0000 0.77710  0.43350  0.29960  Biso   1.000  H
  C201     1.0000 0.74780  0.30050  0.24900  Biso   1.000  C
  C202     1.0000 0.69830  0.28100  0.19630  Biso   1.000  C
  H228     1.0000 0.69300  0.22330  0.17170  Biso   1.000  H
  H229     1.0000 0.68510  0.34490  0.17300  Biso   1.000  H
  H230     1.0000 0.68740  0.26300  0.21270  Biso   1.000  H
  C203     1.0000 0.76680  0.20070  0.29080  Biso   1.000  C
  C204     1.0000 0.75040  0.08990  0.26140  Biso   1.000  C
  H231     1.0000 0.72070  0.08730  0.23590  Biso   1.000  H
  H232     1.0000 0.76340  0.03580  0.29140  Biso   1.000  H
  H233     1.0000 0.75670  0.07740  0.23850  Biso   1.000  H
  C205     1.0000 0.81330  0.19760  0.32940  Biso   1.000  C
  H234     1.0000 0.82520  0.13720  0.35550  Biso   1.000  H
  H235     1.0000 0.82580  0.26230  0.35220  Biso   1.000  H
  H236     1.0000 0.81850  0.19150  0.30480  Biso   1.000  H
  C206     1.0000 0.76240  0.31630  0.21830  Biso   1.000  C
  N25      1.0000 0.76220  0.12780  0.82520  Biso   1.000  N
  N26      1.0000 0.84930  0.40690  0.83950  Biso   1.000  N
  N27      1.0000 0.80390  0.37360  0.74180  Biso   1.000  N
  N28      1.0000 0.83126  0.45130  0.75740  Biso   1.000  N
  N29      1.0000 0.84310  0.44860  0.69420  Biso   1.000  N
  N30      1.0000 0.88480  0.45960  0.72700  Biso   1.000  N
  N31      1.0000 0.85370  0.35830  0.64760  Biso   1.000  N
  N32      1.0000 0.95690  0.69450  0.93460  Biso   1.000  N
  N33      1.0000 0.02260  0.25420  0.97880  Biso   1.000  N
  N34      1.0000 0.01730  0.55950  0.87130  Biso   1.000  N
  N35      1.0000 0.08086  0.51070  0.91980  Biso   1.000  N
  N36      1.0000 0.07270  0.59400  0.88560  Biso   1.000  N
  N37      1.0000 0.16205  0.50150  0.05589  Biso   1.000  N
  N38      1.0000 0.15388  0.50720  0.00658  Biso   1.000  N
  C207     1.0000 0.18178  0.57260  0.01685  Biso   1.000  C
  H237     1.0000 0.18330  0.59090  0.98990  Biso   1.000  H
  N39      1.0000 0.20719  0.60740  0.07250  Biso   1.000  N
  C208     1.0000 0.19499  0.56340  0.09663  Biso   1.000  C
  H238     1.0000 0.20730  0.57410  0.13510  Biso   1.000  H
  N40      1.0000 0.96120  0.84990  0.71900  Biso   1.000  N
  N41      1.0000 0.95460  0.93240  0.61890  Biso   1.000  N
  N42      1.0000 0.05140  0.91620  0.58620  Biso   1.000  N
  N43      1.0000 0.03020  0.74380  0.57420  Biso   1.000  N
  N44      1.0000 0.05620  0.75460  0.56710  Biso   1.000  N
  N45      1.0000 0.08870  0.58920  0.58890  Biso   1.000  N
  N46      1.0000 0.11810  0.55060  0.59390  Biso   1.000  N
  C209     1.0000 0.13920  0.48000  0.63680  Biso   1.000  C
  H239     1.0000 0.16190  0.44040  0.64970  Biso   1.000  H
  N47      1.0000 0.12280  0.47490  0.65820  Biso   1.000  N
  C210     1.0000 0.09150  0.54240  0.62860  Biso   1.000  C
  H240     1.0000 0.07440  0.55490  0.63470  Biso   1.000  H
  N48      1.0000 0.13950  0.97220  0.54190  Biso   1.000  N
  O27      1.0000 0.70510  0.12510  0.86340  Biso   1.000  O
  O28      1.0000 0.66900  0.10430  0.77030  Biso   1.000  O
  O29      1.0000 0.68410  0.60520  0.81140  Biso   1.000  O
  O30      1.0000 0.69820  0.57540  0.88450  Biso   1.000  O
  O31      1.0000 0.80210  0.05020  0.95470  Biso   1.000  O
  O32      1.0000 0.79500  0.89270  0.92090  Biso   1.000  O
  O33      1.0000 0.97019  0.84080  0.03200  Biso   1.000  O
  O34      1.0000 0.96922  0.01840  0.02970  Biso   1.000  O
  O35      1.0000 0.05791  0.93020  0.08960  Biso   1.000  O
  O36      1.0000 0.06065  0.10780  0.09150  Biso   1.000  O
  O37      1.0000 0.12000  0.96110  0.33310  Biso   1.000  O
  O38      1.0000 0.11250  0.13270  0.31690  Biso   1.000  O
  O39      1.0000 0.87230  0.83110  0.57860  Biso   1.000  O
  O40      1.0000 0.81560  0.86090  0.48610  Biso   1.000  O
  O41      1.0000 0.73030  0.56460  0.52800  Biso   1.000  O
  O42      1.0000 0.69940  0.63340  0.44500  Biso   1.000  O
  O43      1.0000 0.92370  0.29990  0.65080  Biso   1.000  O
  O44      1.0000 0.90530  0.40140  0.57450  Biso   1.000  O
  O45      1.0000 0.11000  0.41220  0.78780  Biso   1.000  O
  O46      1.0000 0.08310  0.44810  0.70540  Biso   1.000  O
  O47      1.0000 0.81394  0.19760  0.43380  Biso   1.000  O
  O48      1.0000 0.77040  0.06620  0.37830  Biso   1.000  O
  O49      1.0000 0.78160  0.40270  0.22760  Biso   1.000  O
  O50      1.0000 0.75610  0.24030  0.18700  Biso   1.000  O
  O51      1.0000 0.87814  0.09960  0.57030  Biso   1.000  O
  O52      1.0000 0.69832  0.87380  0.84060  Biso   1.000  O
  Cd13     1.0000 0.76190  0.50656  0.14792  Biso   1.000  Cd
  Cd14     1.0000 0.76234  0.22798  0.12250  Biso   1.000  Cd
  Cd15     1.0000 0.58659  0.47056  0.36149  Biso   1.000  Cd
  Cd16     1.0000 0.67833  0.53232  0.51906  Biso   1.000  Cd
  Cd17     1.0000 0.64245  0.72198  0.40091  Biso   1.000  Cd
  Cd18     1.0000 0.35397  0.90985  0.25510  Biso   1.000  Cd
  C211     1.0000 0.75350  0.63970  0.22920  Biso   1.000  C
  H241     1.0000 0.77670  0.59900  0.25960  Biso   1.000  H
  C212     1.0000 0.73770  0.70750  0.24270  Biso   1.000  C
  H242     1.0000 0.74920  0.71080  0.28110  Biso   1.000  H
  C213     1.0000 0.70430  0.77160  0.19880  Biso   1.000  C
  C214     1.0000 0.68850  0.76500  0.14250  Biso   1.000  C
  H243     1.0000 0.66630  0.80810  0.11220  Biso   1.000  H
  C215     1.0000 0.70610  0.69350  0.13180  Biso   1.000  C
  H244     1.0000 0.69590  0.69050  0.09420  Biso   1.000  H
  C216     1.0000 0.68400  0.84970  0.20690  Biso   1.000  C
  C217     1.0000 0.67510  0.00480  0.28900  Biso   1.000  C
  H245     1.0000 0.70490  0.01250  0.32350  Biso   1.000  H
  H246     1.0000 0.66310  0.07600  0.27560  Biso   1.000  H
  C218     1.0000 0.67460  0.89040  0.35360  Biso   1.000  C
  H247     1.0000 0.70290  0.87480  0.38350  Biso   1.000  H
  C219     1.0000 0.61100  0.90220  0.30140  Biso   1.000  C
  H248     1.0000 0.58510  0.89060  0.28790  Biso   1.000  H
  C220     1.0000 0.64170  0.96860  0.18370  Biso   1.000  C
  C221     1.0000 0.60830  0.04820  0.14640  Biso   1.000  C
  C222     1.0000 0.58380  0.09080  0.15480  Biso   1.000  C
  H249     1.0000 0.58850  0.07080  0.18740  Biso   1.000  H
  C223     1.0000 0.55220  0.16370  0.11330  Biso   1.000  C
  H250     1.0000 0.53670  0.19230  0.11990  Biso   1.000  H
  C224     1.0000 0.56520  0.14790  0.05640  Biso   1.000  C
  H251     1.0000 0.55730  0.16180  0.02090  Biso   1.000  H
  C225     1.0000 0.59840  0.08130  0.09620  Biso   1.000  C
  H252     1.0000 0.61440  0.05810  0.08940  Biso   1.000  H
  C226     1.0000 0.50850  0.79690  0.07560  Biso   1.000  C
  H253     1.0000 0.53550  0.77060  0.10030  Biso   1.000  H
  C227     1.0000 0.49970  0.87980  0.09450  Biso   1.000  C
  H254     1.0000 0.52150  0.91710  0.12890  Biso   1.000  H
  C228     1.0000 0.45980  0.90730  0.06350  Biso   1.000  C
  C229     1.0000 0.42800  0.86060  0.00820  Biso   1.000  C
  H255     1.0000 0.40020  0.88000  0.98480  Biso   1.000  H
  C230     1.0000 0.43860  0.78500  0.98930  Biso   1.000  C
  H256     1.0000 0.41750  0.75410  0.95230  Biso   1.000  H
  C231     1.0000 0.45330  0.99080  0.09010  Biso   1.000  C
  C232     1.0000 0.38010  0.95170  0.04700  Biso   1.000  C
  H257     1.0000 0.38280  0.88090  0.03750  Biso   1.000  H
  H258     1.0000 0.37440  0.94360  0.07120  Biso   1.000  H
  C233     1.0000 0.46590  0.12030  0.14260  Biso   1.000  C
  C234     1.0000 0.49050  0.20090  0.19010  Biso   1.000  C
  C235     1.0000 0.53250  0.20860  0.22530  Biso   1.000  C
  H259     1.0000 0.54530  0.16430  0.21830  Biso   1.000  H
  C236     1.0000 0.55570  0.27980  0.27020  Biso   1.000  C
  H260     1.0000 0.58440  0.28060  0.29470  Biso   1.000  H
  C237     1.0000 0.49850  0.34630  0.24650  Biso   1.000  C
  H261     1.0000 0.48640  0.39680  0.25230  Biso   1.000  H
  C238     1.0000 0.47230  0.27060  0.20130  Biso   1.000  C
  H262     1.0000 0.44410  0.26680  0.17970  Biso   1.000  H
  C239     1.0000 0.51940  0.50110  0.37340  Biso   1.000  C
  H263     1.0000 0.51780  0.57010  0.36090  Biso   1.000  H
  C240     1.0000 0.49440  0.47650  0.38270  Biso   1.000  C
  H264     1.0000 0.47710  0.52810  0.37740  Biso   1.000  H
  C241     1.0000 0.49550  0.37500  0.40000  Biso   1.000  C
  C242     1.0000 0.52220  0.30040  0.40710  Biso   1.000  C
  H265     1.0000 0.52360  0.23030  0.41830  Biso   1.000  H
  C243     1.0000 0.54620  0.33230  0.39730  Biso   1.000  C
  H266     1.0000 0.56380  0.28240  0.40210  Biso   1.000  H
  C244     1.0000 0.47210  0.34510  0.41420  Biso   1.000  C
  C245     1.0000 0.44361  0.16400  0.46380  Biso   1.000  C
  H267     1.0000 0.43470  0.18740  0.48270  Biso   1.000  H
  H268     1.0000 0.47080  0.13030  0.49300  Biso   1.000  H
  C246     1.0000 0.43354  0.35630  0.42910  Biso   1.000  C
  C247     1.0000 0.40759  0.39810  0.43800  Biso   1.000  C
  C248     1.0000 0.41587  0.48800  0.46340  Biso   1.000  C
  H269     1.0000 0.43700  0.53090  0.47380  Biso   1.000  H
  C249     1.0000 0.39340  0.52070  0.47540  Biso   1.000  C
  H270     1.0000 0.40230  0.58270  0.49780  Biso   1.000  H
  C250     1.0000 0.34910  0.38340  0.42660  Biso   1.000  C
  H271     1.0000 0.32510  0.34940  0.41230  Biso   1.000  H
  C251     1.0000 0.36900  0.33800  0.41350  Biso   1.000  C
  H272     1.0000 0.35980  0.27550  0.39150  Biso   1.000  H
  C252     1.0000 0.68180  0.45960  0.04020  Biso   1.000  C
  C253     1.0000 0.63650  0.44390  0.98890  Biso   1.000  C
  C254     1.0000 0.61140  0.54440  0.95290  Biso   1.000  C
  H273     1.0000 0.62310  0.60630  0.97880  Biso   1.000  H
  H274     1.0000 0.61220  0.55710  0.92350  Biso   1.000  H
  C255     1.0000 0.56670  0.52580  0.92290  Biso   1.000  C
  H275     1.0000 0.55650  0.58730  0.92820  Biso   1.000  H
  H276     1.0000 0.54860  0.51350  0.88080  Biso   1.000  H
  C256     1.0000 0.56830  0.42980  0.95200  Biso   1.000  C
  H277     1.0000 0.55830  0.36980  0.92490  Biso   1.000  H
  C257     1.0000 0.61310  0.40490  0.00760  Biso   1.000  C
  C258     1.0000 0.62710  0.47570  0.05760  Biso   1.000  C
  H278     1.0000 0.65570  0.46050  0.09270  Biso   1.000  H
  H279     1.0000 0.61000  0.46210  0.06490  Biso   1.000  H
  H280     1.0000 0.62440  0.54940  0.04680  Biso   1.000  H
  C259     1.0000 0.62270  0.28890  0.02770  Biso   1.000  C
  H281     1.0000 0.61420  0.24400  0.99620  Biso   1.000  H
  H282     1.0000 0.60780  0.26850  0.03800  Biso   1.000  H
  H283     1.0000 0.65220  0.28070  0.06170  Biso   1.000  H
  C260     1.0000 0.63250  0.35870  0.95060  Biso   1.000  C
  H284     1.0000 0.64840  0.29660  0.97420  Biso   1.000  H
  H285     1.0000 0.64300  0.38670  0.93490  Biso   1.000  H
  H286     1.0000 0.60370  0.33940  0.91850  Biso   1.000  H
  C261     1.0000 0.54070  0.43120  0.96470  Biso   1.000  C
  C262     1.0000 0.82350  0.65360  0.18950  Biso   1.000  C
  C263     1.0000 0.84810  0.75720  0.20250  Biso   1.000  C
  H287     1.0000 0.87580  0.75050  0.24300  Biso   1.000  H
  C264     1.0000 0.85500  0.77720  0.16490  Biso   1.000  C
  H288     1.0000 0.83460  0.73820  0.12800  Biso   1.000  H
  H289     1.0000 0.88260  0.75250  0.18440  Biso   1.000  H
  C265     1.0000 0.85120  0.89410  0.15260  Biso   1.000  C
  H290     1.0000 0.82640  0.90920  0.11130  Biso   1.000  H
  H291     1.0000 0.87550  0.92020  0.16160  Biso   1.000  H
  C266     1.0000 0.84820  0.94710  0.19420  Biso   1.000  C
  C267     1.0000 0.82750  0.85670  0.20170  Biso   1.000  C
  C268     1.0000 0.83320  0.86540  0.25410  Biso   1.000  C
  H292     1.0000 0.86250  0.86580  0.28980  Biso   1.000  H
  H293     1.0000 0.82010  0.80540  0.25460  Biso   1.000  H
  H294     1.0000 0.82070  0.93060  0.25150  Biso   1.000  H
  C269     1.0000 0.78030  0.85570  0.14800  Biso   1.000  C
  H295     1.0000 0.76840  0.92020  0.14760  Biso   1.000  H
  H296     1.0000 0.76840  0.79490  0.15040  Biso   1.000  H
  H297     1.0000 0.77420  0.85140  0.11240  Biso   1.000  H
  C270     1.0000 0.88930  0.98020  0.25120  Biso   1.000  C
  H298     1.0000 0.90750  0.91920  0.27040  Biso   1.000  H
  H299     1.0000 0.88630  0.00990  0.27600  Biso   1.000  H
  H300     1.0000 0.90100  0.03320  0.24430  Biso   1.000  H
  C271     1.0000 0.81960  0.04540  0.16290  Biso   1.000  C
  C272     1.0000 0.42590  0.51700  0.88420  Biso   1.000  C
  C273     1.0000 0.38830  0.51640  0.81630  Biso   1.000  C
  C274     1.0000 0.37660  0.40720  0.78720  Biso   1.000  C
  H301     1.0000 0.35810  0.37100  0.78830  Biso   1.000  H
  H302     1.0000 0.40160  0.36400  0.80880  Biso   1.000  H
  C275     1.0000 0.35470  0.41940  0.72210  Biso   1.000  C
  H303     1.0000 0.36530  0.36820  0.71230  Biso   1.000  H
  H304     1.0000 0.32470  0.41070  0.69480  Biso   1.000  H
  C276     1.0000 0.36580  0.52960  0.72150  Biso   1.000  C
  H305     1.0000 0.34050  0.57250  0.70040  Biso   1.000  H
  C277     1.0000 0.40010  0.58200  0.78360  Biso   1.000  C
  C278     1.0000 0.44150  0.55500  0.81250  Biso   1.000  C
  H306     1.0000 0.44390  0.47860  0.81230  Biso   1.000  H
  H307     1.0000 0.46080  0.58030  0.85260  Biso   1.000  H
  H308     1.0000 0.44760  0.58780  0.79190  Biso   1.000  H
  C279     1.0000 0.39320  0.69960  0.78190  Biso   1.000  C
  H309     1.0000 0.36510  0.71220  0.76320  Biso   1.000  H
  H310     1.0000 0.39760  0.73490  0.75970  Biso   1.000  H
  H311     1.0000 0.41240  0.72740  0.82150  Biso   1.000  H
  C280     1.0000 0.35370  0.57780  0.80150  Biso   1.000  C
  H312     1.0000 0.36420  0.64480  0.82230  Biso   1.000  H
  H313     1.0000 0.34220  0.53740  0.81290  Biso   1.000  H
  H314     1.0000 0.33240  0.59110  0.75960  Biso   1.000  H
  C281     1.0000 0.37790  0.54280  0.68670  Biso   1.000  C
  C282     1.0000 0.66080  0.30290  0.46900  Biso   1.000  C
  C283     1.0000 0.67720  0.19000  0.47660  Biso   1.000  C
  C284     1.0000 0.70240  0.18920  0.45820  Biso   1.000  C
  C285     1.0000 0.73000  0.08700  0.49280  Biso   1.000  C
  H315     1.0000 0.71420  0.02430  0.46750  Biso   1.000  H
  C286     1.0000 0.73580  0.07880  0.54380  Biso   1.000  C
  H316     1.0000 0.76490  0.09190  0.57950  Biso   1.000  H
  H317     1.0000 0.72890  0.00680  0.54610  Biso   1.000  H
  C287     1.0000 0.70870  0.15810  0.54000  Biso   1.000  C
  H318     1.0000 0.69550  0.12510  0.55110  Biso   1.000  H
  H319     1.0000 0.72490  0.21930  0.56550  Biso   1.000  H
  C288     1.0000 0.64190  0.11540  0.44490  Biso   1.000  C
  H320     1.0000 0.65120  0.04390  0.44840  Biso   1.000  H
  H321     1.0000 0.62060  0.13510  0.40380  Biso   1.000  H
  H322     1.0000 0.63070  0.11840  0.46180  Biso   1.000  H
  C289     1.0000 0.67520  0.17190  0.39280  Biso   1.000  C
  H323     1.0000 0.65790  0.23380  0.37130  Biso   1.000  H
  H324     1.0000 0.65780  0.11020  0.37990  Biso   1.000  H
  H325     1.0000 0.69250  0.16070  0.38570  Biso   1.000  H
  C290     1.0000 0.72710  0.28940  0.47710  Biso   1.000  C
  H326     1.0000 0.70840  0.34890  0.45480  Biso   1.000  H
  H327     1.0000 0.74450  0.28260  0.47000  Biso   1.000  H
  H328     1.0000 0.74410  0.30130  0.51850  Biso   1.000  H
  C291     1.0000 0.76880  0.09270  0.50690  Biso   1.000  C
  C292     1.0000 0.56880  0.87400  0.37120  Biso   1.000  C
  C293     1.0000 0.53040  0.93660  0.32950  Biso   1.000  C
  H329     1.0000 0.53850  0.01220  0.33890  Biso   1.000  H
  C294     1.0000 0.50490  0.92290  0.26450  Biso   1.000  C
  H330     1.0000 0.51090  0.98070  0.25090  Biso   1.000  H
  H331     1.0000 0.51210  0.85570  0.25800  Biso   1.000  H
  C295     1.0000 0.45940  0.92350  0.23030  Biso   1.000  C
  H332     1.0000 0.44800  0.85160  0.21840  Biso   1.000  H
  H333     1.0000 0.44370  0.96810  0.19530  Biso   1.000  H
  C296     1.0000 0.45850  0.97030  0.27460  Biso   1.000  C
  C297     1.0000 0.45930  0.08690  0.28000  Biso   1.000  C
  H334     1.0000 0.45820  0.10540  0.30830  Biso   1.000  H
  H335     1.0000 0.43570  0.11730  0.24220  Biso   1.000  H
  H336     1.0000 0.48460  0.11440  0.29310  Biso   1.000  H
  C298     1.0000 0.49760  0.91690  0.33360  Biso   1.000  C
  C299     1.0000 0.51210  0.96510  0.39000  Biso   1.000  C
  H337     1.0000 0.49180  0.95000  0.39130  Biso   1.000  H
  H338     1.0000 0.51520  0.04110  0.39000  Biso   1.000  H
  H339     1.0000 0.53840  0.93420  0.42410  Biso   1.000  H
  C300     1.0000 0.49340  0.79900  0.33510  Biso   1.000  C
  H340     1.0000 0.47360  0.78460  0.33750  Biso   1.000  H
  H341     1.0000 0.52000  0.76910  0.36910  Biso   1.000  H
  H342     1.0000 0.48380  0.76720  0.29980  Biso   1.000  H
  C301     1.0000 0.42020  0.94040  0.26140  Biso   1.000  C
  C302     1.0000 0.71800  0.65950  0.61710  Biso   1.000  C
  C303     1.0000 0.74180  0.73070  0.67140  Biso   1.000  C
  H343     1.0000 0.77130  0.71340  0.69620  Biso   1.000  H
  C304     1.0000 0.73870  0.84680  0.66150  Biso   1.000  C
  H344     1.0000 0.71140  0.86700  0.62380  Biso   1.000  H
  H345     1.0000 0.75990  0.87210  0.66310  Biso   1.000  H
  C305     1.0000 0.74650  0.89010  0.71510  Biso   1.000  C
  H346     1.0000 0.77120  0.93510  0.73990  Biso   1.000  H
  H347     1.0000 0.72290  0.93350  0.70040  Biso   1.000  H
  C306     1.0000 0.75220  0.80050  0.75100  Biso   1.000  C
  C307     1.0000 0.80170  0.78100  0.80370  Biso   1.000  C
  H348     1.0000 0.80700  0.72330  0.82830  Biso   1.000  H
  H349     1.0000 0.81490  0.84490  0.82700  Biso   1.000  H
  H350     1.0000 0.81260  0.76300  0.78730  Biso   1.000  H
  C308     1.0000 0.73320  0.70070  0.70920  Biso   1.000  C
  C309     1.0000 0.74960  0.58990  0.73860  Biso   1.000  C
  H351     1.0000 0.77930  0.58730  0.76410  Biso   1.000  H
  H352     1.0000 0.73660  0.53580  0.70860  Biso   1.000  H
  H353     1.0000 0.74330  0.57740  0.76150  Biso   1.000  H
  C310     1.0000 0.68670  0.69760  0.67060  Biso   1.000  C
  H354     1.0000 0.67480  0.63720  0.64450  Biso   1.000  H
  H355     1.0000 0.67420  0.76230  0.64780  Biso   1.000  H
  H356     1.0000 0.68150  0.69150  0.69520  Biso   1.000  H
  C311     1.0000 0.73760  0.81630  0.78170  Biso   1.000  C
  N49      1.0000 0.73780  0.62780  0.17480  Biso   1.000  N
  N50      1.0000 0.65070  0.90690  0.16050  Biso   1.000  N
  N51      1.0000 0.69610  0.87360  0.25820  Biso   1.000  N
  N52      1.0000 0.66874  0.95130  0.24260  Biso   1.000  N
  N53      1.0000 0.65690  0.94860  0.30580  Biso   1.000  N
  N54      1.0000 0.61520  0.95960  0.27300  Biso   1.000  N
  N55      1.0000 0.64630  0.85830  0.35240  Biso   1.000  N
  N56      1.0000 0.54310  0.19450  0.06540  Biso   1.000  N
  N57      1.0000 0.47740  0.75420  0.02120  Biso   1.000  N
  N58      1.0000 0.48270  0.05950  0.12870  Biso   1.000  N
  N59      1.0000 0.41914  0.01070  0.08020  Biso   1.000  N
  N60      1.0000 0.42730  0.09400  0.11440  Biso   1.000  N
  N61      1.0000 0.33795  0.00150  0.94411  Biso   1.000  N
  N62      1.0000 0.34612  0.00720  0.99342  Biso   1.000  N
  C312     1.0000 0.31822  0.07260  0.98315  Biso   1.000  C
  H357     1.0000 0.31670  0.09090  0.01010  Biso   1.000  H
  N63      1.0000 0.29281  0.10740  0.92750  Biso   1.000  N
  C313     1.0000 0.30501  0.06340  0.90337  Biso   1.000  C
  H358     1.0000 0.29270  0.07410  0.86490  Biso   1.000  H
  N64      1.0000 0.53880  0.34990  0.28100  Biso   1.000  N
  N65      1.0000 0.54540  0.43240  0.38110  Biso   1.000  N
  N66      1.0000 0.44860  0.41620  0.41380  Biso   1.000  N
  N67      1.0000 0.46980  0.24380  0.42580  Biso   1.000  N
  N68      1.0000 0.44380  0.25460  0.43290  Biso   1.000  N
  N69      1.0000 0.41130  0.08920  0.41110  Biso   1.000  N
  N70      1.0000 0.38190  0.05060  0.40610  Biso   1.000  N
  C314     1.0000 0.36080  0.98000  0.36320  Biso   1.000  C
  H359     1.0000 0.33810  0.94040  0.35030  Biso   1.000  H
  N71      1.0000 0.37720  0.97490  0.34180  Biso   1.000  N
  C315     1.0000 0.40850  0.04240  0.37140  Biso   1.000  C
  H360     1.0000 0.42560  0.05490  0.36530  Biso   1.000  H
  N72      1.0000 0.36050  0.47220  0.45810  Biso   1.000  N
  O53      1.0000 0.79490  0.62510  0.13660  Biso   1.000  O
  O54      1.0000 0.83100  0.60430  0.22970  Biso   1.000  O
  O55      1.0000 0.81590  0.10520  0.18860  Biso   1.000  O
  O56      1.0000 0.80180  0.07540  0.11550  Biso   1.000  O
  O57      1.0000 0.69790  0.55020  0.04530  Biso   1.000  O
  O58      1.0000 0.70500  0.39270  0.07910  Biso   1.000  O
  O59      1.0000 0.52981  0.34080  0.96800  Biso   1.000  O
  O60      1.0000 0.53078  0.51840  0.97030  Biso   1.000  O
  O61      1.0000 0.44209  0.43020  0.91040  Biso   1.000  O
  O62      1.0000 0.43935  0.60780  0.90850  Biso   1.000  O
  O63      1.0000 0.38000  0.46110  0.66690  Biso   1.000  O
  O64      1.0000 0.38750  0.63270  0.68310  Biso   1.000  O
  O65      1.0000 0.62770  0.33110  0.42140  Biso   1.000  O
  O66      1.0000 0.68440  0.36090  0.51390  Biso   1.000  O
  O67      1.0000 0.76970  0.06460  0.47200  Biso   1.000  O
  O68      1.0000 0.80060  0.13340  0.55500  Biso   1.000  O
  O69      1.0000 0.57630  0.79990  0.34920  Biso   1.000  O
  O70      1.0000 0.59470  0.90140  0.42550  Biso   1.000  O
  O71      1.0000 0.39000  0.91220  0.21220  Biso   1.000  O
  O72      1.0000 0.41690  0.94810  0.29460  Biso   1.000  O
  O73      1.0000 0.68606  0.69760  0.56620  Biso   1.000  O
  O74      1.0000 0.72960  0.56620  0.62170  Biso   1.000  O
  O75      1.0000 0.71840  0.90270  0.77240  Biso   1.000  O
  O76      1.0000 0.74390  0.74030  0.81300  Biso   1.000  O
  O77      1.0000 0.62186  0.59960  0.42970  Biso   1.000  O
  O78      1.0000 0.80168  0.37380  0.15940  Biso   1.000  O
  Cd19     1.0000 0.26190  0.00656  0.14792  Biso   1.000  Cd
  Cd20     1.0000 0.26234  0.72798  0.12250  Biso   1.000  Cd
  Cd21     1.0000 0.08659  0.97056  0.36149  Biso   1.000  Cd
  Cd22     1.0000 0.17833  0.03232  0.51906  Biso   1.000  Cd
  Cd23     1.0000 0.14245  0.22198  0.40091  Biso   1.000  Cd
  Cd24     1.0000 0.85397  0.40985  0.25510  Biso   1.000  Cd
  C316     1.0000 0.25350  0.13970  0.22920  Biso   1.000  C
  H361     1.0000 0.27670  0.09900  0.25960  Biso   1.000  H
  C317     1.0000 0.23770  0.20750  0.24270  Biso   1.000  C
  H362     1.0000 0.24920  0.21080  0.28110  Biso   1.000  H
  C318     1.0000 0.20430  0.27160  0.19880  Biso   1.000  C
  C319     1.0000 0.18850  0.26500  0.14250  Biso   1.000  C
  H363     1.0000 0.16630  0.30810  0.11220  Biso   1.000  H
  C320     1.0000 0.20610  0.19350  0.13180  Biso   1.000  C
  H364     1.0000 0.19590  0.19050  0.09420  Biso   1.000  H
  C321     1.0000 0.18400  0.34970  0.20690  Biso   1.000  C
  C322     1.0000 0.17510  0.50480  0.28900  Biso   1.000  C
  H365     1.0000 0.20490  0.51250  0.32350  Biso   1.000  H
  H366     1.0000 0.16310  0.57600  0.27560  Biso   1.000  H
  C323     1.0000 0.17460  0.39040  0.35360  Biso   1.000  C
  H367     1.0000 0.20290  0.37480  0.38350  Biso   1.000  H
  C324     1.0000 0.11100  0.40220  0.30140  Biso   1.000  C
  H368     1.0000 0.08510  0.39060  0.28790  Biso   1.000  H
  C325     1.0000 0.14170  0.46860  0.18370  Biso   1.000  C
  C326     1.0000 0.10830  0.54820  0.14640  Biso   1.000  C
  C327     1.0000 0.08380  0.59080  0.15480  Biso   1.000  C
  H369     1.0000 0.08850  0.57080  0.18740  Biso   1.000  H
  C328     1.0000 0.05220  0.66370  0.11330  Biso   1.000  C
  H370     1.0000 0.03670  0.69230  0.11990  Biso   1.000  H
  C329     1.0000 0.06520  0.64790  0.05640  Biso   1.000  C
  H371     1.0000 0.05730  0.66180  0.02090  Biso   1.000  H
  C330     1.0000 0.09840  0.58130  0.09620  Biso   1.000  C
  H372     1.0000 0.11440  0.55810  0.08940  Biso   1.000  H
  C331     1.0000 0.00850  0.29690  0.07560  Biso   1.000  C
  H373     1.0000 0.03550  0.27060  0.10030  Biso   1.000  H
  C332     1.0000 0.99970  0.37980  0.09450  Biso   1.000  C
  H374     1.0000 0.02150  0.41710  0.12890  Biso   1.000  H
  C333     1.0000 0.95980  0.40730  0.06350  Biso   1.000  C
  C334     1.0000 0.92800  0.36060  0.00820  Biso   1.000  C
  H375     1.0000 0.90020  0.38000  0.98480  Biso   1.000  H
  C335     1.0000 0.93860  0.28500  0.98930  Biso   1.000  C
  H376     1.0000 0.91750  0.25410  0.95230  Biso   1.000  H
  C336     1.0000 0.95330  0.49080  0.09010  Biso   1.000  C
  C337     1.0000 0.88010  0.45170  0.04700  Biso   1.000  C
  H377     1.0000 0.88280  0.38090  0.03750  Biso   1.000  H
  H378     1.0000 0.87440  0.44360  0.07120  Biso   1.000  H
  C338     1.0000 0.96590  0.62030  0.14260  Biso   1.000  C
  C339     1.0000 0.99050  0.70090  0.19010  Biso   1.000  C
  C340     1.0000 0.03250  0.70860  0.22530  Biso   1.000  C
  H379     1.0000 0.04530  0.66430  0.21830  Biso   1.000  H
  C341     1.0000 0.05570  0.77980  0.27020  Biso   1.000  C
  H380     1.0000 0.08440  0.78060  0.29470  Biso   1.000  H
  C342     1.0000 0.99850  0.84630  0.24650  Biso   1.000  C
  H381     1.0000 0.98640  0.89680  0.25230  Biso   1.000  H
  C343     1.0000 0.97230  0.77060  0.20130  Biso   1.000  C
  H382     1.0000 0.94410  0.76680  0.17970  Biso   1.000  H
  C344     1.0000 0.01940  0.00110  0.37340  Biso   1.000  C
  H383     1.0000 0.01780  0.07010  0.36090  Biso   1.000  H
  C345     1.0000 0.99440  0.97650  0.38270  Biso   1.000  C
  H384     1.0000 0.97710  0.02810  0.37740  Biso   1.000  H
  C346     1.0000 0.99550  0.87500  0.40000  Biso   1.000  C
  C347     1.0000 0.02220  0.80040  0.40710  Biso   1.000  C
  H385     1.0000 0.02360  0.73030  0.41830  Biso   1.000  H
  C348     1.0000 0.04620  0.83230  0.39730  Biso   1.000  C
  H386     1.0000 0.06380  0.78240  0.40210  Biso   1.000  H
  C349     1.0000 0.97210  0.84510  0.41420  Biso   1.000  C
  C350     1.0000 0.94361  0.66400  0.46380  Biso   1.000  C
  H387     1.0000 0.93470  0.68740  0.48270  Biso   1.000  H
  H388     1.0000 0.97080  0.63030  0.49300  Biso   1.000  H
  C351     1.0000 0.93354  0.85630  0.42910  Biso   1.000  C
  C352     1.0000 0.90759  0.89810  0.43800  Biso   1.000  C
  C353     1.0000 0.91587  0.98800  0.46340  Biso   1.000  C
  H389     1.0000 0.93700  0.03090  0.47380  Biso   1.000  H
  C354     1.0000 0.89340  0.02070  0.47540  Biso   1.000  C
  H390     1.0000 0.90230  0.08270  0.49780  Biso   1.000  H
  C355     1.0000 0.84910  0.88340  0.42660  Biso   1.000  C
  H391     1.0000 0.82510  0.84940  0.41230  Biso   1.000  H
  C356     1.0000 0.86900  0.83800  0.41350  Biso   1.000  C
  H392     1.0000 0.85980  0.77550  0.39150  Biso   1.000  H
  C357     1.0000 0.18180  0.95960  0.04020  Biso   1.000  C
  C358     1.0000 0.13650  0.94390  0.98890  Biso   1.000  C
  C359     1.0000 0.11140  0.04440  0.95290  Biso   1.000  C
  H393     1.0000 0.12310  0.10630  0.97880  Biso   1.000  H
  H394     1.0000 0.11220  0.05710  0.92350  Biso   1.000  H
  C360     1.0000 0.06670  0.02580  0.92290  Biso   1.000  C
  H395     1.0000 0.05650  0.08730  0.92820  Biso   1.000  H
  H396     1.0000 0.04860  0.01350  0.88080  Biso   1.000  H
  C361     1.0000 0.06830  0.92980  0.95200  Biso   1.000  C
  H397     1.0000 0.05830  0.86980  0.92490  Biso   1.000  H
  C362     1.0000 0.11310  0.90490  0.00760  Biso   1.000  C
  C363     1.0000 0.12710  0.97570  0.05760  Biso   1.000  C
  H398     1.0000 0.15570  0.96050  0.09270  Biso   1.000  H
  H399     1.0000 0.11000  0.96210  0.06490  Biso   1.000  H
  H400     1.0000 0.12440  0.04940  0.04680  Biso   1.000  H
  C364     1.0000 0.12270  0.78890  0.02770  Biso   1.000  C
  H401     1.0000 0.11420  0.74400  0.99620  Biso   1.000  H
  H402     1.0000 0.10780  0.76850  0.03800  Biso   1.000  H
  H403     1.0000 0.15220  0.78070  0.06170  Biso   1.000  H
  C365     1.0000 0.13250  0.85870  0.95060  Biso   1.000  C
  H404     1.0000 0.14840  0.79660  0.97420  Biso   1.000  H
  H405     1.0000 0.14300  0.88670  0.93490  Biso   1.000  H
  H406     1.0000 0.10370  0.83940  0.91850  Biso   1.000  H
  C366     1.0000 0.04070  0.93120  0.96470  Biso   1.000  C
  C367     1.0000 0.32350  0.15360  0.18950  Biso   1.000  C
  C368     1.0000 0.34810  0.25720  0.20250  Biso   1.000  C
  H407     1.0000 0.37580  0.25050  0.24300  Biso   1.000  H
  C369     1.0000 0.35500  0.27720  0.16490  Biso   1.000  C
  H408     1.0000 0.33460  0.23820  0.12800  Biso   1.000  H
  H409     1.0000 0.38260  0.25250  0.18440  Biso   1.000  H
  C370     1.0000 0.35120  0.39410  0.15260  Biso   1.000  C
  H410     1.0000 0.32640  0.40920  0.11130  Biso   1.000  H
  H411     1.0000 0.37550  0.42020  0.16160  Biso   1.000  H
  C371     1.0000 0.34820  0.44710  0.19420  Biso   1.000  C
  C372     1.0000 0.32750  0.35670  0.20170  Biso   1.000  C
  C373     1.0000 0.33320  0.36540  0.25410  Biso   1.000  C
  H412     1.0000 0.36250  0.36580  0.28980  Biso   1.000  H
  H413     1.0000 0.32010  0.30540  0.25460  Biso   1.000  H
  H414     1.0000 0.32070  0.43060  0.25150  Biso   1.000  H
  C374     1.0000 0.28030  0.35570  0.14800  Biso   1.000  C
  H415     1.0000 0.26840  0.42020  0.14760  Biso   1.000  H
  H416     1.0000 0.26840  0.29490  0.15040  Biso   1.000  H
  H417     1.0000 0.27420  0.35140  0.11240  Biso   1.000  H
  C375     1.0000 0.38930  0.48020  0.25120  Biso   1.000  C
  H418     1.0000 0.40750  0.41920  0.27040  Biso   1.000  H
  H419     1.0000 0.38630  0.50990  0.27600  Biso   1.000  H
  H420     1.0000 0.40100  0.53320  0.24430  Biso   1.000  H
  C376     1.0000 0.31960  0.54540  0.16290  Biso   1.000  C
  C377     1.0000 0.92590  0.01700  0.88420  Biso   1.000  C
  C378     1.0000 0.88830  0.01640  0.81630  Biso   1.000  C
  C379     1.0000 0.87660  0.90720  0.78720  Biso   1.000  C
  H421     1.0000 0.85810  0.87100  0.78830  Biso   1.000  H
  H422     1.0000 0.90160  0.86400  0.80880  Biso   1.000  H
  C380     1.0000 0.85470  0.91940  0.72210  Biso   1.000  C
  H423     1.0000 0.86530  0.86820  0.71230  Biso   1.000  H
  H424     1.0000 0.82470  0.91070  0.69480  Biso   1.000  H
  C381     1.0000 0.86580  0.02960  0.72150  Biso   1.000  C
  H425     1.0000 0.84050  0.07250  0.70040  Biso   1.000  H
  C382     1.0000 0.90010  0.08200  0.78360  Biso   1.000  C
  C383     1.0000 0.94150  0.05500  0.81250  Biso   1.000  C
  H426     1.0000 0.94390  0.97860  0.81230  Biso   1.000  H
  H427     1.0000 0.96080  0.08030  0.85260  Biso   1.000  H
  H428     1.0000 0.94760  0.08780  0.79190  Biso   1.000  H
  C384     1.0000 0.89320  0.19960  0.78190  Biso   1.000  C
  H429     1.0000 0.86510  0.21220  0.76320  Biso   1.000  H
  H430     1.0000 0.89760  0.23490  0.75970  Biso   1.000  H
  H431     1.0000 0.91240  0.22740  0.82150  Biso   1.000  H
  C385     1.0000 0.85370  0.07780  0.80150  Biso   1.000  C
  H432     1.0000 0.86420  0.14480  0.82230  Biso   1.000  H
  H433     1.0000 0.84220  0.03740  0.81290  Biso   1.000  H
  H434     1.0000 0.83240  0.09110  0.75960  Biso   1.000  H
  C386     1.0000 0.87790  0.04280  0.68670  Biso   1.000  C
  C387     1.0000 0.16080  0.80290  0.46900  Biso   1.000  C
  C388     1.0000 0.17720  0.69000  0.47660  Biso   1.000  C
  C389     1.0000 0.20240  0.68920  0.45820  Biso   1.000  C
  C390     1.0000 0.23000  0.58700  0.49280  Biso   1.000  C
  H435     1.0000 0.21420  0.52430  0.46750  Biso   1.000  H
  C391     1.0000 0.23580  0.57880  0.54380  Biso   1.000  C
  H436     1.0000 0.26490  0.59190  0.57950  Biso   1.000  H
  H437     1.0000 0.22890  0.50680  0.54610  Biso   1.000  H
  C392     1.0000 0.20870  0.65810  0.54000  Biso   1.000  C
  H438     1.0000 0.19550  0.62510  0.55110  Biso   1.000  H
  H439     1.0000 0.22490  0.71930  0.56550  Biso   1.000  H
  C393     1.0000 0.14190  0.61540  0.44490  Biso   1.000  C
  H440     1.0000 0.15120  0.54390  0.44840  Biso   1.000  H
  H441     1.0000 0.12060  0.63510  0.40380  Biso   1.000  H
  H442     1.0000 0.13070  0.61840  0.46180  Biso   1.000  H
  C394     1.0000 0.17520  0.67190  0.39280  Biso   1.000  C
  H443     1.0000 0.15790  0.73380  0.37130  Biso   1.000  H
  H444     1.0000 0.15780  0.61020  0.37990  Biso   1.000  H
  H445     1.0000 0.19250  0.66070  0.38570  Biso   1.000  H
  C395     1.0000 0.22710  0.78940  0.47710  Biso   1.000  C
  H446     1.0000 0.20840  0.84890  0.45480  Biso   1.000  H
  H447     1.0000 0.24450  0.78260  0.47000  Biso   1.000  H
  H448     1.0000 0.24410  0.80130  0.51850  Biso   1.000  H
  C396     1.0000 0.26880  0.59270  0.50690  Biso   1.000  C
  C397     1.0000 0.06880  0.37400  0.37120  Biso   1.000  C
  C398     1.0000 0.03040  0.43660  0.32950  Biso   1.000  C
  H449     1.0000 0.03850  0.51220  0.33890  Biso   1.000  H
  C399     1.0000 0.00490  0.42290  0.26450  Biso   1.000  C
  H450     1.0000 0.01090  0.48070  0.25090  Biso   1.000  H
  H451     1.0000 0.01210  0.35570  0.25800  Biso   1.000  H
  C400     1.0000 0.95940  0.42350  0.23030  Biso   1.000  C
  H452     1.0000 0.94800  0.35160  0.21840  Biso   1.000  H
  H453     1.0000 0.94370  0.46810  0.19530  Biso   1.000  H
  C401     1.0000 0.95850  0.47030  0.27460  Biso   1.000  C
  C402     1.0000 0.95930  0.58690  0.28000  Biso   1.000  C
  H454     1.0000 0.95820  0.60540  0.30830  Biso   1.000  H
  H455     1.0000 0.93570  0.61730  0.24220  Biso   1.000  H
  H456     1.0000 0.98460  0.61440  0.29310  Biso   1.000  H
  C403     1.0000 0.99760  0.41690  0.33360  Biso   1.000  C
  C404     1.0000 0.01210  0.46510  0.39000  Biso   1.000  C
  H457     1.0000 0.99180  0.45000  0.39130  Biso   1.000  H
  H458     1.0000 0.01520  0.54110  0.39000  Biso   1.000  H
  H459     1.0000 0.03840  0.43420  0.42410  Biso   1.000  H
  C405     1.0000 0.99340  0.29900  0.33510  Biso   1.000  C
  H460     1.0000 0.97360  0.28460  0.33750  Biso   1.000  H
  H461     1.0000 0.02000  0.26910  0.36910  Biso   1.000  H
  H462     1.0000 0.98380  0.26720  0.29980  Biso   1.000  H
  C406     1.0000 0.92020  0.44040  0.26140  Biso   1.000  C
  C407     1.0000 0.21800  0.15950  0.61710  Biso   1.000  C
  C408     1.0000 0.24180  0.23070  0.67140  Biso   1.000  C
  H463     1.0000 0.27130  0.21340  0.69620  Biso   1.000  H
  C409     1.0000 0.23870  0.34680  0.66150  Biso   1.000  C
  H464     1.0000 0.21140  0.36700  0.62380  Biso   1.000  H
  H465     1.0000 0.25990  0.37210  0.66310  Biso   1.000  H
  C410     1.0000 0.24650  0.39010  0.71510  Biso   1.000  C
  H466     1.0000 0.27120  0.43510  0.73990  Biso   1.000  H
  H467     1.0000 0.22290  0.43350  0.70040  Biso   1.000  H
  C411     1.0000 0.25220  0.30050  0.75100  Biso   1.000  C
  C412     1.0000 0.30170  0.28100  0.80370  Biso   1.000  C
  H468     1.0000 0.30700  0.22330  0.82830  Biso   1.000  H
  H469     1.0000 0.31490  0.34490  0.82700  Biso   1.000  H
  H470     1.0000 0.31260  0.26300  0.78730  Biso   1.000  H
  C413     1.0000 0.23320  0.20070  0.70920  Biso   1.000  C
  C414     1.0000 0.24960  0.08990  0.73860  Biso   1.000  C
  H471     1.0000 0.27930  0.08730  0.76410  Biso   1.000  H
  H472     1.0000 0.23660  0.03580  0.70860  Biso   1.000  H
  H473     1.0000 0.24330  0.07740  0.76150  Biso   1.000  H
  C415     1.0000 0.18670  0.19760  0.67060  Biso   1.000  C
  H474     1.0000 0.17480  0.13720  0.64450  Biso   1.000  H
  H475     1.0000 0.17420  0.26230  0.64780  Biso   1.000  H
  H476     1.0000 0.18150  0.19150  0.69520  Biso   1.000  H
  C416     1.0000 0.23760  0.31630  0.78170  Biso   1.000  C
  N73      1.0000 0.23780  0.12780  0.17480  Biso   1.000  N
  N74      1.0000 0.15070  0.40690  0.16050  Biso   1.000  N
  N75      1.0000 0.19610  0.37360  0.25820  Biso   1.000  N
  N76      1.0000 0.16874  0.45130  0.24260  Biso   1.000  N
  N77      1.0000 0.15690  0.44860  0.30580  Biso   1.000  N
  N78      1.0000 0.11520  0.45960  0.27300  Biso   1.000  N
  N79      1.0000 0.14630  0.35830  0.35240  Biso   1.000  N
  N80      1.0000 0.04310  0.69450  0.06540  Biso   1.000  N
  N81      1.0000 0.97740  0.25420  0.02120  Biso   1.000  N
  N82      1.0000 0.98270  0.55950  0.12870  Biso   1.000  N
  N83      1.0000 0.91914  0.51070  0.08020  Biso   1.000  N
  N84      1.0000 0.92730  0.59400  0.11440  Biso   1.000  N
  N85      1.0000 0.83795  0.50150  0.94411  Biso   1.000  N
  N86      1.0000 0.84612  0.50720  0.99342  Biso   1.000  N
  C417     1.0000 0.81822  0.57260  0.98315  Biso   1.000  C
  H477     1.0000 0.81670  0.59090  0.01010  Biso   1.000  H
  N87      1.0000 0.79281  0.60740  0.92750  Biso   1.000  N
  C418     1.0000 0.80501  0.56340  0.90337  Biso   1.000  C
  H478     1.0000 0.79270  0.57410  0.86490  Biso   1.000  H
  N88      1.0000 0.03880  0.84990  0.28100  Biso   1.000  N
  N89      1.0000 0.04540  0.93240  0.38110  Biso   1.000  N
  N90      1.0000 0.94860  0.91620  0.41380  Biso   1.000  N
  N91      1.0000 0.96980  0.74380  0.42580  Biso   1.000  N
  N92      1.0000 0.94380  0.75460  0.43290  Biso   1.000  N
  N93      1.0000 0.91130  0.58920  0.41110  Biso   1.000  N
  N94      1.0000 0.88190  0.55060  0.40610  Biso   1.000  N
  C419     1.0000 0.86080  0.48000  0.36320  Biso   1.000  C
  H479     1.0000 0.83810  0.44040  0.35030  Biso   1.000  H
  N95      1.0000 0.87720  0.47490  0.34180  Biso   1.000  N
  C420     1.0000 0.90850  0.54240  0.37140  Biso   1.000  C
  H480     1.0000 0.92560  0.55490  0.36530  Biso   1.000  H
  N96      1.0000 0.86050  0.97220  0.45810  Biso   1.000  N
  O79      1.0000 0.29490  0.12510  0.13660  Biso   1.000  O
  O80      1.0000 0.33100  0.10430  0.22970  Biso   1.000  O
  O81      1.0000 0.31590  0.60520  0.18860  Biso   1.000  O
  O82      1.0000 0.30180  0.57540  0.11550  Biso   1.000  O
  O83      1.0000 0.19790  0.05020  0.04530  Biso   1.000  O
  O84      1.0000 0.20500  0.89270  0.07910  Biso   1.000  O
  O85      1.0000 0.02981  0.84080  0.96800  Biso   1.000  O
  O86      1.0000 0.03078  0.01840  0.97030  Biso   1.000  O
  O87      1.0000 0.94209  0.93020  0.91040  Biso   1.000  O
  O88      1.0000 0.93935  0.10780  0.90850  Biso   1.000  O
  O89      1.0000 0.88000  0.96110  0.66690  Biso   1.000  O
  O90      1.0000 0.88750  0.13270  0.68310  Biso   1.000  O
  O91      1.0000 0.12770  0.83110  0.42140  Biso   1.000  O
  O92      1.0000 0.18440  0.86090  0.51390  Biso   1.000  O
  O93      1.0000 0.26970  0.56460  0.47200  Biso   1.000  O
  O94      1.0000 0.30060  0.63340  0.55500  Biso   1.000  O
  O95      1.0000 0.07630  0.29990  0.34920  Biso   1.000  O
  O96      1.0000 0.09470  0.40140  0.42550  Biso   1.000  O
  O97      1.0000 0.89000  0.41220  0.21220  Biso   1.000  O
  O98      1.0000 0.91690  0.44810  0.29460  Biso   1.000  O
  O99      1.0000 0.18606  0.19760  0.56620  Biso   1.000  O
  O100     1.0000 0.22960  0.06620  0.62170  Biso   1.000  O
  O101     1.0000 0.21840  0.40270  0.77240  Biso   1.000  O
  O102     1.0000 0.24390  0.24030  0.81300  Biso   1.000  O
  O103     1.0000 0.12186  0.09960  0.42970  Biso   1.000  O
  O104     1.0000 0.30168  0.87380  0.15940  Biso   1.000  O
  Cd25     1.0000 0.50000  0.34274  0.00000  Biso   1.000  Cd
  Cd26     1.0000 0.50000  0.60308  0.00000  Biso   1.000  Cd
  Cd27     1.0000 0.00000  0.84274  0.00000  Biso   1.000  Cd
  Cd28     1.0000 0.00000  0.10308  0.00000  Biso   1.000  Cd
