data_ja403810k_si_002_clean
_audit_creation_date              2015-08-19
_audit_creation_method            'Materials Studio'
_symmetry_space_group_name_H-M    'P1'
_symmetry_Int_Tables_number       1
_symmetry_cell_setting            triclinic
loop_
_symmetry_equiv_pos_as_xyz
  x,y,z
_cell_length_a                    53.7275
_cell_length_b                    53.7274
_cell_length_c                    53.7274
_cell_angle_alpha                 109.4710
_cell_angle_beta                  109.4710
_cell_angle_gamma                 109.4710
loop_
_atom_site_label
_atom_site_type_symbol
_atom_site_fract_x
_atom_site_fract_y
_atom_site_fract_z
_atom_site_U_iso_or_equiv
_atom_site_adp_type
_atom_site_occupancy
Zn1    Zn    0.34507   0.65074   0.05398   0.01267  Uiso   1.00
Zn2    Zn    0.05398   0.90324   0.20891   0.01267  Uiso   1.00
Zn3    Zn    0.30567   0.70891   0.15493   0.01267  Uiso   1.00
Zn4    Zn    0.70891   0.05398   0.40324   0.01267  Uiso   1.00
Zn5    Zn    0.20891   0.40324   0.05398   0.01267  Uiso   1.00
Zn6    Zn    0.23896   0.42451   0.20860   0.01267  Uiso   1.00
Zn7    Zn    0.90324   0.70891   0.55398   0.01267  Uiso   1.00
Zn8    Zn    0.84507   0.79109   0.69433   0.01267  Uiso   1.00
Zn9    Zn    0.07549   0.81445   0.28409   0.01267  Uiso   1.00
Zn10   Zn    0.59676   0.44602   0.29109   0.01267  Uiso   1.00
Zn11   Zn    0.71591   0.68555   0.92451   0.01267  Uiso   1.00
Zn12   Zn    0.34926   0.90324   0.69433   0.01267  Uiso   1.00
Zn13   Zn    0.21591   0.29140   0.03036   0.01267  Uiso   1.00
Zn14   Zn    0.78409   0.07549   0.31445   0.01267  Uiso   1.00
Zn15   Zn    0.94602   0.09676   0.79109   0.01267  Uiso   1.00
Zn16   Zn    0.73896   0.20860   0.42451   0.01267  Uiso   1.00
Zn17   Zn    0.70860   0.23896   0.92451   0.01267  Uiso   1.00
Zn18   Zn    0.80567   0.15493   0.70891   0.01267  Uiso   1.00
Zn19   Zn    0.03036   0.79140   0.21591   0.01267  Uiso   1.00
Zn20   Zn    0.84926   0.15493   0.44602   0.01267  Uiso   1.00
Zn21   Zn    0.29140   0.53036   0.71591   0.01267  Uiso   1.00
Zn22   Zn    0.73896   0.53036   0.81445   0.01267  Uiso   1.00
Zn23   Zn    0.15074   0.30567   0.09676   0.01267  Uiso   1.00
Zn24   Zn    0.20891   0.80567   0.65493   0.01267  Uiso   1.00
Zn25   Zn    0.92451   0.73896   0.70860   0.01267  Uiso   1.00
Zn26   Zn    0.05398   0.15074   0.34507   0.01267  Uiso   1.00
Zn27   Zn    0.96964   0.76104   0.68555   0.01267  Uiso   1.00
Zn28   Zn    0.69433   0.29109   0.84507   0.01267  Uiso   1.00
Zn29   Zn    0.46964   0.78409   0.20860   0.01267  Uiso   1.00
Zn30   Zn    0.42451   0.70860   0.73896   0.01267  Uiso   1.00
Zn31   Zn    0.65074   0.09676   0.30567   0.01267  Uiso   1.00
Zn32   Zn    0.57549   0.28409   0.81445   0.01267  Uiso   1.00
Zn33   Zn    0.42451   0.71591   0.18555   0.01267  Uiso   1.00
Zn34   Zn    0.29109   0.34507   0.19433   0.01267  Uiso   1.00
Zn35   Zn    0.28409   0.96964   0.70860   0.01267  Uiso   1.00
Zn36   Zn    0.18555   0.96964   0.26104   0.01267  Uiso   1.00
Zn37   Zn    0.20860   0.92451   0.23896   0.01267  Uiso   1.00
Zn38   Zn    0.34926   0.44602   0.15493   0.01267  Uiso   1.00
Zn39   Zn    0.21591   0.92451   0.68555   0.01267  Uiso   1.00
Zn40   Zn    0.69433   0.40324   0.34926   0.01267  Uiso   1.00
Zn41   Zn    0.79140   0.71591   0.53036   0.01267  Uiso   1.00
Zn42   Zn    0.15493   0.94602   0.34926   0.01267  Uiso   1.00
Zn43   Zn    0.40324   0.84926   0.19433   0.01267  Uiso   1.00
Zn44   Zn    0.70860   0.46964   0.28409   0.01267  Uiso   1.00
Zn45   Zn    0.15074   0.84507   0.55398   0.01267  Uiso   1.00
Zn46   Zn    0.90324   0.19433   0.84926   0.01267  Uiso   1.00
Zn47   Zn    0.79109   0.19433   0.34507   0.01267  Uiso   1.00
Zn48   Zn    0.29140   0.76104   0.07549   0.01267  Uiso   1.00
Zn49   Zn    0.65074   0.55398   0.84507   0.01267  Uiso   1.00
Zn50   Zn    0.70891   0.65493   0.80567   0.01267  Uiso   1.00
Zn51   Zn    0.57549   0.29140   0.26104   0.01267  Uiso   1.00
Zn52   Zn    0.81445   0.03036   0.73896   0.01267  Uiso   1.00
Zn53   Zn    0.80567   0.65074   0.59676   0.01267  Uiso   1.00
Zn54   Zn    0.46964   0.68555   0.76104   0.01267  Uiso   1.00
Zn55   Zn    0.81445   0.78409   0.57549   0.01267  Uiso   1.00
Zn56   Zn    0.44602   0.79109   0.09676   0.01267  Uiso   1.00
Zn57   Zn    0.68555   0.42451   0.21591   0.01267  Uiso   1.00
Zn58   Zn    0.03036   0.23896   0.31445   0.01267  Uiso   1.00
Zn59   Zn    0.71591   0.03036   0.29140   0.01267  Uiso   1.00
Zn60   Zn    0.09676   0.80567   0.15074   0.01267  Uiso   1.00
Zn61   Zn    0.26104   0.46964   0.18555   0.01267  Uiso   1.00
Zn62   Zn    0.84926   0.69433   0.90324   0.01267  Uiso   1.00
Zn63   Zn    0.55398   0.20891   0.90324   0.01267  Uiso   1.00
Zn64   Zn    0.19433   0.34926   0.40324   0.01267  Uiso   1.00
Zn65   Zn    0.79140   0.07549   0.76104   0.01267  Uiso   1.00
Zn66   Zn    0.30567   0.59676   0.65074   0.01267  Uiso   1.00
Zn67   Zn    0.76104   0.18555   0.46964   0.01267  Uiso   1.00
Zn68   Zn    0.31445   0.57549   0.78409   0.01267  Uiso   1.00
Zn69   Zn    0.09676   0.29109   0.44602   0.01267  Uiso   1.00
Zn70   Zn    0.44602   0.65493   0.84926   0.01267  Uiso   1.00
Zn71   Zn    0.68555   0.26104   0.96964   0.01267  Uiso   1.00
Zn72   Zn    0.65493   0.34926   0.94602   0.01267  Uiso   1.00
Zn73   Zn    0.18555   0.21591   0.42451   0.01267  Uiso   1.00
Zn74   Zn    0.96964   0.20860   0.78409   0.01267  Uiso   1.00
Zn75   Zn    0.15493   0.20891   0.30567   0.01267  Uiso   1.00
Zn76   Zn    0.55398   0.34507   0.15074   0.01267  Uiso   1.00
Zn77   Zn    0.78409   0.70860   0.96964   0.01267  Uiso   1.00
Zn78   Zn    0.65493   0.30567   0.20891   0.01267  Uiso   1.00
Zn79   Zn    0.79109   0.59676   0.94602   0.01267  Uiso   1.00
Zn80   Zn    0.20860   0.28409   0.46964   0.01267  Uiso   1.00
Zn81   Zn    0.53036   0.31445   0.23896   0.01267  Uiso   1.00
Zn82   Zn    0.26104   0.79140   0.57549   0.01267  Uiso   1.00
Zn83   Zn    0.40324   0.55398   0.70891   0.01267  Uiso   1.00
Zn84   Zn    0.94602   0.84926   0.65493   0.01267  Uiso   1.00
Zn85   Zn    0.53036   0.21591   0.79140   0.01267  Uiso   1.00
Zn86   Zn    0.34507   0.69433   0.79109   0.01267  Uiso   1.00
Zn87   Zn    0.29109   0.94602   0.59676   0.01267  Uiso   1.00
Zn88   Zn    0.84507   0.05398   0.65074   0.01267  Uiso   1.00
Zn89   Zn    0.59676   0.15074   0.80567   0.01267  Uiso   1.00
Zn90   Zn    0.76104   0.57549   0.79140   0.01267  Uiso   1.00
Zn91   Zn    0.23896   0.81445   0.53036   0.01267  Uiso   1.00
Zn92   Zn    0.19433   0.84507   0.29109   0.01267  Uiso   1.00
Zn93   Zn    0.28409   0.31445   0.07549   0.01267  Uiso   1.00
Zn94   Zn    0.07549   0.26104   0.29140   0.01267  Uiso   1.00
Zn95   Zn    0.92451   0.18555   0.71591   0.01267  Uiso   1.00
Zn96   Zn    0.31445   0.73896   0.03036   0.01267  Uiso   1.00
H1     H     0.21840   0.28450   0.20130   0.01267  Uiso   1.00
H2     H     0.28750   0.63530   0.57720   0.01267  Uiso   1.00
H3     H     0.67910   0.48580   0.94030   0.01267  Uiso   1.00
H4     H     0.47550   0.67450   0.81480   0.01267  Uiso   1.00
H5     H     0.71030   0.28750   0.15220   0.01267  Uiso   1.00
H6     H     0.73260   0.11620   0.44480   0.01267  Uiso   1.00
H7     H     0.72010   0.43300   0.79290   0.01267  Uiso   1.00
H8     H     0.75910   0.60920   0.47230   0.01267  Uiso   1.00
H9     H     0.13170   0.06180   0.33130   0.01267  Uiso   1.00
H10    H     0.30670   0.82090   0.26120   0.01267  Uiso   1.00
H11    H     0.71550   0.29870   0.28160   0.01267  Uiso   1.00
H12    H     0.15220   0.36470   0.94190   0.01267  Uiso   1.00
H13    H     0.31020   0.64960   0.69300   0.01267  Uiso   1.00
H14    H     0.63690   0.35010   0.10920   0.01267  Uiso   1.00
H15    H     0.95660   0.80700   0.61720   0.01267  Uiso   1.00
H16    H     0.60510   0.71310   0.93860   0.01267  Uiso   1.00
H17    H     0.80670   0.54550   0.48580   0.01267  Uiso   1.00
H18    H     0.43860   0.83350   0.72550   0.01267  Uiso   1.00
H19    H     0.42720   0.64010   0.20710   0.01267  Uiso   1.00
H20    H     0.33930   0.81480   0.14030   0.01267  Uiso   1.00
H21    H     0.44160   0.59360   0.77440   0.01267  Uiso   1.00
H22    H     0.71550   0.41680   0.93390   0.01267  Uiso   1.00
H23    H     0.72560   0.55840   0.90640   0.01267  Uiso   1.00
H24    H     0.07280   0.79290   0.35990   0.01267  Uiso   1.00
H25    H     0.06140   0.78690   0.39490   0.01267  Uiso   1.00
H26    H     0.44480   0.82860   0.21220   0.01267  Uiso   1.00
H27    H     0.13530   0.78750   0.07720   0.01267  Uiso   1.00
H28    H     0.26740   0.38360   0.21220   0.01267  Uiso   1.00
H29    H     0.78380   0.49680   0.93720   0.01267  Uiso   1.00
H30    H     0.80040   0.13170   0.56990   0.01267  Uiso   1.00
H31    H     0.55960   0.56280   0.84660   0.01267  Uiso   1.00
H32    H     0.71300   0.15340   0.71620   0.01267  Uiso   1.00
H33    H     0.05840   0.83280   0.15200   0.01267  Uiso   1.00
H34    H     0.43860   0.60510   0.21310   0.01267  Uiso   1.00
H35    H     0.71310   0.27450   0.10800   0.01267  Uiso   1.00
H36    H     0.56140   0.39490   0.78690   0.01267  Uiso   1.00
H37    H     0.80670   0.26120   0.82090   0.01267  Uiso   1.00
H38    H     0.42280   0.86470   0.71250   0.01267  Uiso   1.00
H39    H     0.89200   0.66650   0.10510   0.01267  Uiso   1.00
H40    H     0.04550   0.73880   0.55970   0.01267  Uiso   1.00
H41    H     0.81830   0.61710   0.47720   0.01267  Uiso   1.00
H42    H     0.61620   0.23260   0.94480   0.01267  Uiso   1.00
H43    H     0.54340   0.16060   0.85040   0.01267  Uiso   1.00
H44    H     0.94190   0.07720   0.28970   0.01267  Uiso   1.00
H45    H     0.85970   0.68520   0.66070   0.01267  Uiso   1.00
H46    H     0.67450   0.31480   0.97550   0.01267  Uiso   1.00
H47    H     0.58320   0.01710   0.29870   0.01267  Uiso   1.00
H48    H     0.35990   0.29290   0.07280   0.01267  Uiso   1.00
H49    H     0.89080   0.74090   0.02770   0.01267  Uiso   1.00
H50    H     0.65200   0.59360   0.81920   0.01267  Uiso   1.00
H51    H     0.02280   0.18170   0.88290   0.01267  Uiso   1.00
H52    H     0.79870   0.58320   0.51710   0.01267  Uiso   1.00
H53    H     0.79290   0.93300   0.72010   0.01267  Uiso   1.00
H54    H     0.24090   0.85010   0.21320   0.01267  Uiso   1.00
H55    H     0.43820   0.36830   0.16870   0.01267  Uiso   1.00
H56    H     0.52770   0.63690   0.78680   0.01267  Uiso   1.00
H57    H     0.86470   0.65220   0.44190   0.01267  Uiso   1.00
H58    H     0.94190   0.86470   0.15220   0.01267  Uiso   1.00
H59    H     0.71290   0.07280   0.77990   0.01267  Uiso   1.00
H60    H     0.51420   0.95450   0.19330   0.01267  Uiso   1.00
H61    H     0.89080   0.14990   0.36310   0.01267  Uiso   1.00
H62    H     0.18170   0.38290   0.52280   0.01267  Uiso   1.00
H63    H     0.06610   0.08320   0.28450   0.01267  Uiso   1.00
H64    H     0.29880   0.61710   0.13990   0.01267  Uiso   1.00
H65    H     0.13170   0.06990   0.30040   0.01267  Uiso   1.00
H66    H     0.85010   0.71320   0.74090   0.01267  Uiso   1.00
H67    H     0.56180   0.93010   0.23050   0.01267  Uiso   1.00
H68    H     0.04550   0.30670   0.98580   0.01267  Uiso   1.00
H69    H     0.71250   0.36470   0.42280   0.01267  Uiso   1.00
H70    H     0.02770   0.24090   0.89080   0.01267  Uiso   1.00
H71    H     0.43390   0.71840   0.01710   0.01267  Uiso   1.00
H72    H     0.98290   0.20130   0.91680   0.01267  Uiso   1.00
H73    H     0.38290   0.36010   0.20120   0.01267  Uiso   1.00
H74    H     0.21550   0.93390   0.41680   0.01267  Uiso   1.00
H75    H     0.66720   0.22560   0.81920   0.01267  Uiso   1.00
H76    H     0.94480   0.21220   0.82860   0.01267  Uiso   1.00
H77    H     0.73880   0.67910   0.69330   0.01267  Uiso   1.00
H78    H     0.57720   0.44190   0.78970   0.01267  Uiso   1.00
H79    H     0.11710   0.79880   0.63990   0.01267  Uiso   1.00
H80    H     0.21030   0.05810   0.42280   0.01267  Uiso   1.00
H81    H     0.38360   0.71220   0.76740   0.01267  Uiso   1.00
H82    H     0.66060   0.61720   0.81020   0.01267  Uiso   1.00
H83    H     0.83130   0.13170   0.56180   0.01267  Uiso   1.00
H84    H     0.11720   0.16060   0.31020   0.01267  Uiso   1.00
H85    H     0.17450   0.97550   0.31480   0.01267  Uiso   1.00
H86    H     0.69960   0.26950   0.33130   0.01267  Uiso   1.00
H87    H     0.48580   0.44030   0.17910   0.01267  Uiso   1.00
H88    H     0.34660   0.78700   0.78380   0.01267  Uiso   1.00
H89    H     0.77440   0.68080   0.83280   0.01267  Uiso   1.00
H90    H     0.22560   0.31920   0.16720   0.01267  Uiso   1.00
H91    H     0.64030   0.33930   0.31480   0.01267  Uiso   1.00
H92    H     0.19300   0.31020   0.14960   0.01267  Uiso   1.00
H93    H     0.22010   0.42720   0.28710   0.01267  Uiso   1.00
H94    H     0.55520   0.17140   0.78780   0.01267  Uiso   1.00
H95    H     0.54340   0.38280   0.19300   0.01267  Uiso   1.00
H96    H     0.26120   0.94030   0.45450   0.01267  Uiso   1.00
H97    H     0.56610   0.28450   0.08320   0.01267  Uiso   1.00
H98    H     0.31830   0.84110   0.20120   0.01267  Uiso   1.00
H99    H     0.92280   0.21030   0.55810   0.01267  Uiso   1.00
H100   H     0.06610   0.98290   0.28160   0.01267  Uiso   1.00
H101   H     0.27440   0.44160   0.09360   0.01267  Uiso   1.00
H102   H     0.74090   0.21320   0.85010   0.01267  Uiso   1.00
H103   H     0.44030   0.67910   0.98580   0.01267  Uiso   1.00
H104   H     0.86470   0.21250   0.92280   0.01267  Uiso   1.00
H105   H     0.61720   0.30700   0.95660   0.01267  Uiso   1.00
H106   H     0.82090   0.76120   0.80670   0.01267  Uiso   1.00
H107   H     0.51710   0.43390   0.21840   0.01267  Uiso   1.00
H108   H     0.52450   0.32550   0.18520   0.01267  Uiso   1.00
H109   H     0.93390   0.91680   0.71550   0.01267  Uiso   1.00
H110   H     0.81480   0.64030   0.83930   0.01267  Uiso   1.00
H111   H     0.69300   0.54340   0.88280   0.01267  Uiso   1.00
H112   H     0.56700   0.85990   0.28710   0.01267  Uiso   1.00
H113   H     0.14010   0.21290   0.93300   0.01267  Uiso   1.00
H114   H     0.09360   0.15200   0.31920   0.01267  Uiso   1.00
H115   H     0.93860   0.21310   0.60510   0.01267  Uiso   1.00
H116   H     0.10510   0.16650   0.89200   0.01267  Uiso   1.00
H117   H     0.40640   0.72560   0.05840   0.01267  Uiso   1.00
H118   H     0.78970   0.94190   0.57720   0.01267  Uiso   1.00
H119   H     0.33280   0.77440   0.18080   0.01267  Uiso   1.00
H120   H     0.63170   0.33130   0.06180   0.01267  Uiso   1.00
H121   H     0.05960   0.21300   0.99680   0.01267  Uiso   1.00
H122   H     0.38280   0.68980   0.83940   0.01267  Uiso   1.00
H123   H     0.18980   0.30700   0.35040   0.01267  Uiso   1.00
H124   H     0.64010   0.70710   0.92720   0.01267  Uiso   1.00
H125   H     0.54550   0.55970   0.73880   0.01267  Uiso   1.00
H126   H     0.30100   0.32550   0.14030   0.01267  Uiso   1.00
H127   H     0.78450   0.71840   0.70130   0.01267  Uiso   1.00
H128   H     0.64990   0.39080   0.86310   0.01267  Uiso   1.00
H129   H     0.71290   0.64010   0.43300   0.01267  Uiso   1.00
H130   H     0.83930   0.69900   0.52450   0.01267  Uiso   1.00
H131   H     0.26950   0.83130   0.19960   0.01267  Uiso   1.00
H132   H     0.28970   0.71250   0.84780   0.01267  Uiso   1.00
H133   H     0.21290   0.43300   0.64010   0.01267  Uiso   1.00
H134   H     0.95450   0.69330   0.01420   0.01267  Uiso   1.00
H135   H     0.16070   0.30100   0.47550   0.01267  Uiso   1.00
H136   H     0.56280   0.34660   0.05960   0.01267  Uiso   1.00
H137   H     0.11620   0.17140   0.38360   0.01267  Uiso   1.00
H138   H     0.68080   0.33280   0.27440   0.01267  Uiso   1.00
H139   H     0.81920   0.09360   0.65200   0.01267  Uiso   1.00
H140   H     0.83940   0.18980   0.38280   0.01267  Uiso   1.00
H141   H     0.31920   0.66720   0.72560   0.01267  Uiso   1.00
H142   H     0.70130   0.48290   0.41680   0.01267  Uiso   1.00
H143   H     0.72010   0.28710   0.42720   0.01267  Uiso   1.00
H144   H     0.78710   0.56700   0.35990   0.01267  Uiso   1.00
H145   H     0.93860   0.72550   0.83350   0.01267  Uiso   1.00
H146   H     0.94030   0.95450   0.76120   0.01267  Uiso   1.00
H147   H     0.31920   0.65200   0.09360   0.01267  Uiso   1.00
H148   H     0.98580   0.17910   0.44030   0.01267  Uiso   1.00
H149   H     0.06990   0.26950   0.93820   0.01267  Uiso   1.00
H150   H     0.22010   0.79290   0.43300   0.01267  Uiso   1.00
H151   H     0.68980   0.33940   0.88280   0.01267  Uiso   1.00
H152   H     0.56610   0.28160   0.98290   0.01267  Uiso   1.00
H153   H     0.61640   0.28780   0.23260   0.01267  Uiso   1.00
H154   H     0.89490   0.06140   0.28690   0.01267  Uiso   1.00
H155   H     0.93820   0.76950   0.06990   0.01267  Uiso   1.00
H156   H     0.56990   0.63170   0.80040   0.01267  Uiso   1.00
H157   H     0.81830   0.20120   0.84110   0.01267  Uiso   1.00
H158   H     0.80700   0.68980   0.85040   0.01267  Uiso   1.00
H159   H     0.15220   0.78750   0.71030   0.01267  Uiso   1.00
H160   H     0.33280   0.55840   0.65200   0.01267  Uiso   1.00
H161   H     0.13530   0.34780   0.55810   0.01267  Uiso   1.00
H162   H     0.79870   0.21550   0.78160   0.01267  Uiso   1.00
H163   H     0.28680   0.52770   0.13690   0.01267  Uiso   1.00
H164   H     0.39200   0.28690   0.22550   0.01267  Uiso   1.00
H165   H     0.57280   0.21290   0.27990   0.01267  Uiso   1.00
H166   H     0.50320   0.56280   0.71620   0.01267  Uiso   1.00
H167   H     0.43820   0.06990   0.76950   0.01267  Uiso   1.00
H168   H     0.06140   0.27450   0.16650   0.01267  Uiso   1.00
H169   H     0.31480   0.47550   0.17450   0.01267  Uiso   1.00
H170   H     0.13990   0.11710   0.29880   0.01267  Uiso   1.00
H171   H     0.28700   0.84660   0.28380   0.01267  Uiso   1.00
H172   H     0.90640   0.84800   0.68080   0.01267  Uiso   1.00
H173   H     0.18080   0.27440   0.33280   0.01267  Uiso   1.00
H174   H     0.93300   0.71290   0.14010   0.01267  Uiso   1.00
H175   H     0.57280   0.35990   0.79290   0.01267  Uiso   1.00
H176   H     0.20710   0.14010   0.42720   0.01267  Uiso   1.00
H177   H     0.51420   0.55970   0.82090   0.01267  Uiso   1.00
H178   H     0.84780   0.63530   0.05810   0.01267  Uiso   1.00
H179   H     0.65890   0.47720   0.86010   0.01267  Uiso   1.00
H180   H     0.16720   0.81920   0.22560   0.01267  Uiso   1.00
H181   H     0.68080   0.34800   0.90640   0.01267  Uiso   1.00
H182   H     0.85990   0.78710   0.06700   0.01267  Uiso   1.00
H183   H     0.82860   0.71220   0.94480   0.01267  Uiso   1.00
H184   H     0.09360   0.94160   0.27440   0.01267  Uiso   1.00
H185   H     0.73050   0.56180   0.43010   0.01267  Uiso   1.00
H186   H     0.28160   0.48290   0.06610   0.01267  Uiso   1.00
H187   H     0.44030   0.76120   0.95450   0.01267  Uiso   1.00
H188   H     0.21030   0.15220   0.28750   0.01267  Uiso   1.00
H189   H     0.57720   0.13530   0.28750   0.01267  Uiso   1.00
H190   H     0.68520   0.16070   0.35970   0.01267  Uiso   1.00
H191   H     0.33350   0.93860   0.22550   0.01267  Uiso   1.00
H192   H     0.17140   0.88360   0.61620   0.01267  Uiso   1.00
H193   H     0.38280   0.69300   0.04340   0.01267  Uiso   1.00
H194   H     0.16060   0.35040   0.04340   0.01267  Uiso   1.00
H195   H     0.56700   0.70710   0.77990   0.01267  Uiso   1.00
H196   H     0.05520   0.78780   0.17140   0.01267  Uiso   1.00
H197   H     0.13690   0.02770   0.28680   0.01267  Uiso   1.00
H198   H     0.06700   0.28710   0.85990   0.01267  Uiso   1.00
H199   H     0.77440   0.09360   0.44160   0.01267  Uiso   1.00
H200   H     0.48580   0.04550   0.80670   0.01267  Uiso   1.00
H201   H     0.26950   0.43820   0.56990   0.01267  Uiso   1.00
H202   H     0.32090   0.80670   0.76120   0.01267  Uiso   1.00
H203   H     0.21220   0.88360   0.26740   0.01267  Uiso   1.00
H204   H     0.27440   0.83280   0.68080   0.01267  Uiso   1.00
H205   H     0.06700   0.77990   0.70710   0.01267  Uiso   1.00
H206   H     0.86830   0.93820   0.66870   0.01267  Uiso   1.00
H207   H     0.78970   0.84780   0.71250   0.01267  Uiso   1.00
H208   H     0.78450   0.06610   0.58320   0.01267  Uiso   1.00
H209   H     0.64960   0.45660   0.33940   0.01267  Uiso   1.00
H210   H     0.91680   0.70130   0.98290   0.01267  Uiso   1.00
H211   H     0.16060   0.81020   0.61720   0.01267  Uiso   1.00
H212   H     0.20120   0.86010   0.38290   0.01267  Uiso   1.00
H213   H     0.86310   0.89080   0.64990   0.01267  Uiso   1.00
H214   H     0.95450   0.26120   0.44030   0.01267  Uiso   1.00
H215   H     0.34800   0.94160   0.66720   0.01267  Uiso   1.00
H216   H     0.19900   0.85970   0.67450   0.01267  Uiso   1.00
H217   H     0.28690   0.72550   0.89200   0.01267  Uiso   1.00
H218   H     0.08320   0.78450   0.56610   0.01267  Uiso   1.00
H219   H     0.82550   0.80100   0.64030   0.01267  Uiso   1.00
H220   H     0.94160   0.77440   0.59360   0.01267  Uiso   1.00
H221   H     0.34110   0.52280   0.13990   0.01267  Uiso   1.00
H222   H     0.34780   0.05810   0.63530   0.01267  Uiso   1.00
H223   H     0.71620   0.65340   0.71300   0.01267  Uiso   1.00
H224   H     0.40640   0.68080   0.84800   0.01267  Uiso   1.00
H225   H     0.97550   0.81480   0.67450   0.01267  Uiso   1.00
H226   H     0.06180   0.83130   0.63170   0.01267  Uiso   1.00
H227   H     0.25910   0.47230   0.60920   0.01267  Uiso   1.00
H228   H     0.15200   0.81920   0.59360   0.01267  Uiso   1.00
H229   H     0.85990   0.07280   0.29290   0.01267  Uiso   1.00
H230   H     0.21250   0.78970   0.34780   0.01267  Uiso   1.00
H231   H     0.78710   0.22010   0.92720   0.01267  Uiso   1.00
H232   H     0.79290   0.85990   0.57280   0.01267  Uiso   1.00
H233   H     0.35970   0.66070   0.68520   0.01267  Uiso   1.00
H234   H     0.14990   0.28680   0.25910   0.01267  Uiso   1.00
H235   H     0.21300   0.71620   0.15340   0.01267  Uiso   1.00
H236   H     0.32860   0.38380   0.11640   0.01267  Uiso   1.00
H237   H     0.19960   0.86830   0.43010   0.01267  Uiso   1.00
H238   H     0.30040   0.73050   0.66870   0.01267  Uiso   1.00
H239   H     0.06280   0.00320   0.21620   0.01267  Uiso   1.00
H240   H     0.78700   0.28380   0.84660   0.01267  Uiso   1.00
H241   H     0.15890   0.29880   0.18170   0.01267  Uiso   1.00
H242   H     0.07720   0.78970   0.44190   0.01267  Uiso   1.00
H243   H     0.98580   0.80670   0.04550   0.01267  Uiso   1.00
H244   H     0.55810   0.84780   0.13530   0.01267  Uiso   1.00
H245   H     0.04340   0.85040   0.16060   0.01267  Uiso   1.00
H246   H     0.78160   0.06610   0.48290   0.01267  Uiso   1.00
H247   H     0.84800   0.18080   0.40640   0.01267  Uiso   1.00
H248   H     0.80040   0.66870   0.73050   0.01267  Uiso   1.00
H249   H     0.58320   0.56610   0.78450   0.01267  Uiso   1.00
H250   H     0.76950   0.19960   0.83130   0.01267  Uiso   1.00
H251   H     0.59360   0.31920   0.15200   0.01267  Uiso   1.00
H252   H     0.63170   0.30040   0.06990   0.01267  Uiso   1.00
H253   H     0.27450   0.66650   0.56140   0.01267  Uiso   1.00
H254   H     0.48290   0.56610   0.78160   0.01267  Uiso   1.00
H255   H     0.84660   0.06280   0.55960   0.01267  Uiso   1.00
H256   H     0.55810   0.71030   0.92280   0.01267  Uiso   1.00
H257   H     0.44190   0.28970   0.07720   0.01267  Uiso   1.00
H258   H     0.69300   0.14960   0.31020   0.01267  Uiso   1.00
H259   H     0.34800   0.40640   0.18080   0.01267  Uiso   1.00
H260   H     0.64960   0.19300   0.81020   0.01267  Uiso   1.00
H261   H     0.05810   0.92280   0.71030   0.01267  Uiso   1.00
H262   H     0.14960   0.81020   0.19300   0.01267  Uiso   1.00
H263   H     0.19960   0.33130   0.26950   0.01267  Uiso   1.00
H264   H     0.65340   0.21300   0.21620   0.01267  Uiso   1.00
H265   H     0.93720   0.99680   0.78380   0.01267  Uiso   1.00
H266   H     0.14960   0.33940   0.45660   0.01267  Uiso   1.00
H267   H     0.05840   0.22560   0.40640   0.01267  Uiso   1.00
H268   H     0.59360   0.27440   0.94160   0.01267  Uiso   1.00
H269   H     0.93300   0.22010   0.29290   0.01267  Uiso   1.00
H270   H     0.85040   0.66060   0.54340   0.01267  Uiso   1.00
H271   H     0.18080   0.90640   0.34800   0.01267  Uiso   1.00
H272   H     0.29290   0.72010   0.93300   0.01267  Uiso   1.00
H273   H     0.88280   0.83940   0.68980   0.01267  Uiso   1.00
H274   H     0.14010   0.92720   0.70710   0.01267  Uiso   1.00
H275   H     0.63530   0.07720   0.78750   0.01267  Uiso   1.00
H276   H     0.28450   0.58320   0.06610   0.01267  Uiso   1.00
H277   H     0.36470   0.44190   0.65220   0.01267  Uiso   1.00
H278   H     0.19900   0.33930   0.02450   0.01267  Uiso   1.00
H279   H     0.99680   0.71300   0.05960   0.01267  Uiso   1.00
H280   H     0.36830   0.66870   0.93820   0.01267  Uiso   1.00
H281   H     0.35040   0.80700   0.18980   0.01267  Uiso   1.00
H282   H     0.51710   0.08320   0.79870   0.01267  Uiso   1.00
H283   H     0.28450   0.70130   0.71840   0.01267  Uiso   1.00
H284   H     0.28970   0.57720   0.94190   0.01267  Uiso   1.00
H285   H     0.94040   0.15340   0.43720   0.01267  Uiso   1.00
H286   H     0.65890   0.18170   0.29880   0.01267  Uiso   1.00
H287   H     0.07280   0.27990   0.21290   0.01267  Uiso   1.00
H288   H     0.21310   0.10510   0.43860   0.01267  Uiso   1.00
H289   H     0.17910   0.23880   0.19330   0.01267  Uiso   1.00
H290   H     0.38290   0.02280   0.68170   0.01267  Uiso   1.00
H291   H     0.44480   0.61620   0.73260   0.01267  Uiso   1.00
H292   H     0.13690   0.10920   0.35010   0.01267  Uiso   1.00
H293   H     0.02770   0.78680   0.63690   0.01267  Uiso   1.00
H294   H     0.71220   0.44480   0.32860   0.01267  Uiso   1.00
H295   H     0.77450   0.21310   0.60800   0.01267  Uiso   1.00
H296   H     0.67140   0.05520   0.28780   0.01267  Uiso   1.00
H297   H     0.99680   0.28380   0.43720   0.01267  Uiso   1.00
H298   H     0.45450   0.44030   0.26120   0.01267  Uiso   1.00
H299   H     0.71300   0.55960   0.49680   0.01267  Uiso   1.00
H300   H     0.70120   0.31830   0.34110   0.01267  Uiso   1.00
H301   H     0.20120   0.34110   0.31830   0.01267  Uiso   1.00
H302   H     0.31020   0.66060   0.11720   0.01267  Uiso   1.00
H303   H     0.76120   0.30670   0.32090   0.01267  Uiso   1.00
H304   H     0.18980   0.88280   0.33940   0.01267  Uiso   1.00
H305   H     0.70120   0.38290   0.86010   0.01267  Uiso   1.00
H306   H     0.64010   0.93300   0.21290   0.01267  Uiso   1.00
H307   H     0.23050   0.80040   0.16870   0.01267  Uiso   1.00
H308   H     0.71620   0.06280   0.50320   0.01267  Uiso   1.00
H309   H     0.77990   0.20710   0.56700   0.01267  Uiso   1.00
H310   H     0.78380   0.28700   0.34660   0.01267  Uiso   1.00
H311   H     0.27450   0.60800   0.21310   0.01267  Uiso   1.00
H312   H     0.94040   0.78700   0.00320   0.01267  Uiso   1.00
H313   H     0.30670   0.48580   0.54550   0.01267  Uiso   1.00
H314   H     0.88290   0.68170   0.02280   0.01267  Uiso   1.00
H315   H     0.76120   0.45450   0.94030   0.01267  Uiso   1.00
H316   H     0.25910   0.78680   0.14990   0.01267  Uiso   1.00
H317   H     0.29290   0.57280   0.85990   0.01267  Uiso   1.00
H318   H     0.08320   0.29870   0.01710   0.01267  Uiso   1.00
H319   H     0.14030   0.82550   0.30100   0.01267  Uiso   1.00
H320   H     0.78750   0.57720   0.63530   0.01267  Uiso   1.00
H321   H     0.69900   0.02450   0.33930   0.01267  Uiso   1.00
H322   H     0.10800   0.33350   0.89490   0.01267  Uiso   1.00
H323   H     0.22550   0.78690   0.39200   0.01267  Uiso   1.00
H324   H     0.11640   0.23260   0.28780   0.01267  Uiso   1.00
H325   H     0.65220   0.94190   0.36470   0.01267  Uiso   1.00
H326   H     0.28680   0.75910   0.64990   0.01267  Uiso   1.00
H327   H     0.19330   0.73880   0.17910   0.01267  Uiso   1.00
H328   H     0.21620   0.71300   0.65340   0.01267  Uiso   1.00
H329   H     0.30700   0.85040   0.68980   0.01267  Uiso   1.00
H330   H     0.60800   0.89490   0.33350   0.01267  Uiso   1.00
H331   H     0.45660   0.83940   0.14960   0.01267  Uiso   1.00
H332   H     0.23880   0.69330   0.67910   0.01267  Uiso   1.00
H333   H     0.83930   0.14030   0.81480   0.01267  Uiso   1.00
H334   H     0.16870   0.86830   0.43820   0.01267  Uiso   1.00
H335   H     0.05960   0.84660   0.56280   0.01267  Uiso   1.00
H336   H     0.28780   0.55520   0.67140   0.01267  Uiso   1.00
H337   H     0.78700   0.50320   0.44040   0.01267  Uiso   1.00
H338   H     0.60800   0.71310   0.77450   0.01267  Uiso   1.00
H339   H     0.78680   0.13690   0.52770   0.01267  Uiso   1.00
H340   H     0.56140   0.16650   0.27450   0.01267  Uiso   1.00
H341   H     0.35970   0.69900   0.17450   0.01267  Uiso   1.00
H342   H     0.67450   0.35970   0.19900   0.01267  Uiso   1.00
H343   H     0.26120   0.32090   0.30670   0.01267  Uiso   1.00
H344   H     0.52770   0.89080   0.24090   0.01267  Uiso   1.00
H345   H     0.66870   0.23050   0.30040   0.01267  Uiso   1.00
H346   H     0.21620   0.50320   0.06280   0.01267  Uiso   1.00
H347   H     0.10800   0.77450   0.71310   0.01267  Uiso   1.00
H348   H     0.90640   0.05840   0.72560   0.01267  Uiso   1.00
H349   H     0.70710   0.27990   0.06700   0.01267  Uiso   1.00
H350   H     0.21320   0.35010   0.24090   0.01267  Uiso   1.00
H351   H     0.38380   0.76740   0.05520   0.01267  Uiso   1.00
H352   H     0.77990   0.57280   0.71290   0.01267  Uiso   1.00
H353   H     0.10920   0.85010   0.63690   0.01267  Uiso   1.00
H354   H     0.34780   0.28970   0.21250   0.01267  Uiso   1.00
H355   H     0.43720   0.78380   0.99680   0.01267  Uiso   1.00
H356   H     0.30040   0.56990   0.13170   0.01267  Uiso   1.00
H357   H     0.47720   0.36010   0.15890   0.01267  Uiso   1.00
H358   H     0.21290   0.77990   0.07280   0.01267  Uiso   1.00
H359   H     0.29870   0.78160   0.21550   0.01267  Uiso   1.00
H360   H     0.43390   0.71550   0.91680   0.01267  Uiso   1.00
H361   H     0.95660   0.14960   0.83940   0.01267  Uiso   1.00
H362   H     0.32550   0.64030   0.80100   0.01267  Uiso   1.00
H363   H     0.15340   0.93720   0.44040   0.01267  Uiso   1.00
H364   H     0.50320   0.94040   0.28700   0.01267  Uiso   1.00
H365   H     0.10920   0.25910   0.97230   0.01267  Uiso   1.00
H366   H     0.81020   0.11720   0.66060   0.01267  Uiso   1.00
H367   H     0.92720   0.72010   0.78710   0.01267  Uiso   1.00
H368   H     0.61640   0.32860   0.88380   0.01267  Uiso   1.00
H369   H     0.15890   0.86010   0.47720   0.01267  Uiso   1.00
H370   H     0.68170   0.52280   0.38290   0.01267  Uiso   1.00
H371   H     0.02450   0.18520   0.32550   0.01267  Uiso   1.00
H372   H     0.31480   0.83930   0.64030   0.01267  Uiso   1.00
H373   H     0.34110   0.81830   0.70120   0.01267  Uiso   1.00
H374   H     0.28700   0.44040   0.50320   0.01267  Uiso   1.00
H375   H     0.76740   0.55520   0.88380   0.01267  Uiso   1.00
H376   H     0.54550   0.98580   0.30670   0.01267  Uiso   1.00
H377   H     0.16720   0.34800   0.44160   0.01267  Uiso   1.00
H378   H     0.55520   0.38380   0.26740   0.01267  Uiso   1.00
H379   H     0.94030   0.98580   0.67910   0.01267  Uiso   1.00
H380   H     0.05970   0.04550   0.23880   0.01267  Uiso   1.00
H381   H     0.82860   0.11640   0.38380   0.01267  Uiso   1.00
H382   H     0.21550   0.28160   0.29870   0.01267  Uiso   1.00
H383   H     0.16650   0.77450   0.06140   0.01267  Uiso   1.00
H384   H     0.16870   0.30040   0.23050   0.01267  Uiso   1.00
H385   H     0.93820   0.16870   0.36830   0.01267  Uiso   1.00
H386   H     0.20130   0.41680   0.48290   0.01267  Uiso   1.00
H387   H     0.11640   0.88380   0.32860   0.01267  Uiso   1.00
H388   H     0.68520   0.52450   0.82550   0.01267  Uiso   1.00
H389   H     0.14990   0.86310   0.39080   0.01267  Uiso   1.00
H390   H     0.35990   0.06700   0.78710   0.01267  Uiso   1.00
H391   H     0.55970   0.32090   0.01420   0.01267  Uiso   1.00
H392   H     0.24090   0.39080   0.52770   0.01267  Uiso   1.00
H393   H     0.18520   0.82550   0.52450   0.01267  Uiso   1.00
H394   H     0.44040   0.43720   0.15340   0.01267  Uiso   1.00
H395   H     0.44190   0.15220   0.86470   0.01267  Uiso   1.00
H396   H     0.15200   0.33280   0.05840   0.01267  Uiso   1.00
H397   H     0.65340   0.44040   0.93720   0.01267  Uiso   1.00
H398   H     0.69900   0.67450   0.85970   0.01267  Uiso   1.00
H399   H     0.66070   0.47550   0.30100   0.01267  Uiso   1.00
H400   H     0.83940   0.64960   0.95660   0.01267  Uiso   1.00
H401   H     0.88380   0.05520   0.76740   0.01267  Uiso   1.00
H402   H     0.28710   0.35990   0.56700   0.01267  Uiso   1.00
H403   H     0.83350   0.60800   0.39490   0.01267  Uiso   1.00
H404   H     0.42720   0.78710   0.72010   0.01267  Uiso   1.00
H405   H     0.72550   0.39200   0.78690   0.01267  Uiso   1.00
H406   H     0.63530   0.55810   0.34780   0.01267  Uiso   1.00
H407   H     0.83350   0.22550   0.93860   0.01267  Uiso   1.00
H408   H     0.43300   0.14010   0.71290   0.01267  Uiso   1.00
H409   H     0.70130   0.21840   0.78450   0.01267  Uiso   1.00
H410   H     0.93720   0.94040   0.65340   0.01267  Uiso   1.00
H411   H     0.64990   0.25910   0.28680   0.01267  Uiso   1.00
H412   H     0.80100   0.14030   0.32550   0.01267  Uiso   1.00
H413   H     0.80700   0.11720   0.45660   0.01267  Uiso   1.00
H414   H     0.20130   0.78450   0.21840   0.01267  Uiso   1.00
H415   H     0.63990   0.29880   0.11710   0.01267  Uiso   1.00
H416   H     0.65200   0.05840   0.33280   0.01267  Uiso   1.00
H417   H     0.61720   0.31020   0.16060   0.01267  Uiso   1.00
H418   H     0.79880   0.65890   0.68170   0.01267  Uiso   1.00
H419   H     0.93390   0.01710   0.71840   0.01267  Uiso   1.00
H420   H     0.32550   0.68520   0.02450   0.01267  Uiso   1.00
H421   H     0.01420   0.82090   0.55970   0.01267  Uiso   1.00
H422   H     0.78690   0.89200   0.72550   0.01267  Uiso   1.00
H423   H     0.22560   0.90640   0.55840   0.01267  Uiso   1.00
H424   H     0.71840   0.51710   0.93390   0.01267  Uiso   1.00
H425   H     0.29880   0.68170   0.65890   0.01267  Uiso   1.00
H426   H     0.63990   0.34110   0.02280   0.01267  Uiso   1.00
H427   H     0.68980   0.35040   0.30700   0.01267  Uiso   1.00
H428   H     0.05520   0.26740   0.38380   0.01267  Uiso   1.00
H429   H     0.21310   0.10800   0.27450   0.01267  Uiso   1.00
H430   H     0.78690   0.89490   0.56140   0.01267  Uiso   1.00
H431   H     0.05810   0.13530   0.84780   0.01267  Uiso   1.00
H432   H     0.97230   0.21320   0.36310   0.01267  Uiso   1.00
H433   H     0.41680   0.43390   0.21550   0.01267  Uiso   1.00
H434   H     0.07720   0.28750   0.13530   0.01267  Uiso   1.00
H435   H     0.11710   0.31830   0.97720   0.01267  Uiso   1.00
H436   H     0.75910   0.14990   0.78680   0.01267  Uiso   1.00
H437   H     0.94480   0.73260   0.61620   0.01267  Uiso   1.00
H438   H     0.23050   0.43010   0.56180   0.01267  Uiso   1.00
H439   H     0.71310   0.43860   0.10510   0.01267  Uiso   1.00
H440   H     0.83280   0.18080   0.77440   0.01267  Uiso   1.00
H441   H     0.47230   0.10920   0.75910   0.01267  Uiso   1.00
H442   H     0.48290   0.91680   0.20130   0.01267  Uiso   1.00
H443   H     0.84110   0.13990   0.52280   0.01267  Uiso   1.00
H444   H     0.71030   0.42280   0.05810   0.01267  Uiso   1.00
H445   H     0.66650   0.06140   0.77450   0.01267  Uiso   1.00
H446   H     0.86310   0.97230   0.71320   0.01267  Uiso   1.00
H447   H     0.84660   0.78380   0.78700   0.01267  Uiso   1.00
H448   H     0.97720   0.81830   0.11710   0.01267  Uiso   1.00
H449   H     0.22550   0.43860   0.33350   0.01267  Uiso   1.00
H450   H     0.68170   0.15890   0.79880   0.01267  Uiso   1.00
H451   H     0.28750   0.65220   0.21030   0.01267  Uiso   1.00
H452   H     0.47550   0.80100   0.16070   0.01267  Uiso   1.00
H453   H     0.33930   0.52450   0.69900   0.01267  Uiso   1.00
H454   H     0.94160   0.16720   0.84800   0.01267  Uiso   1.00
H455   H     0.39080   0.02770   0.74090   0.01267  Uiso   1.00
H456   H     0.16070   0.85970   0.18520   0.01267  Uiso   1.00
H457   H     0.98290   0.78160   0.56610   0.01267  Uiso   1.00
H458   H     0.21220   0.32860   0.44480   0.01267  Uiso   1.00
H459   H     0.43010   0.06180   0.73050   0.01267  Uiso   1.00
H460   H     0.39490   0.28690   0.06140   0.01267  Uiso   1.00
H461   H     0.78780   0.11640   0.73260   0.01267  Uiso   1.00
H462   H     0.89200   0.22550   0.28690   0.01267  Uiso   1.00
H463   H     0.31830   0.47720   0.61710   0.01267  Uiso   1.00
H464   H     0.00320   0.71620   0.56280   0.01267  Uiso   1.00
H465   H     0.71250   0.34780   0.78970   0.01267  Uiso   1.00
H466   H     0.33940   0.38280   0.18980   0.01267  Uiso   1.00
H467   H     0.42280   0.55810   0.21030   0.01267  Uiso   1.00
H468   H     0.69330   0.51420   0.45450   0.01267  Uiso   1.00
H469   H     0.85970   0.17450   0.69900   0.01267  Uiso   1.00
H470   H     0.01710   0.21840   0.43390   0.01267  Uiso   1.00
H471   H     0.38360   0.67140   0.11620   0.01267  Uiso   1.00
H472   H     0.73050   0.16870   0.80040   0.01267  Uiso   1.00
H473   H     0.23260   0.44480   0.11620   0.01267  Uiso   1.00
H474   H     0.18170   0.79880   0.15890   0.01267  Uiso   1.00
H475   H     0.61620   0.38360   0.17140   0.01267  Uiso   1.00
H476   H     0.27990   0.71290   0.57280   0.01267  Uiso   1.00
H477   H     0.56990   0.93820   0.26950   0.01267  Uiso   1.00
H478   H     0.76740   0.21220   0.38360   0.01267  Uiso   1.00
H479   H     0.66650   0.60510   0.39200   0.01267  Uiso   1.00
H480   H     0.11620   0.94480   0.23260   0.01267  Uiso   1.00
H481   H     0.63690   0.28680   0.02770   0.01267  Uiso   1.00
H482   H     0.36310   0.64990   0.89080   0.01267  Uiso   1.00
H483   H     0.60510   0.89200   0.16650   0.01267  Uiso   1.00
H484   H     0.21250   0.42280   0.36470   0.01267  Uiso   1.00
H485   H     0.17910   0.94030   0.48580   0.01267  Uiso   1.00
H486   H     0.33130   0.56180   0.13170   0.01267  Uiso   1.00
H487   H     0.32860   0.94480   0.71220   0.01267  Uiso   1.00
H488   H     0.01710   0.79870   0.08320   0.01267  Uiso   1.00
H489   H     0.33350   0.39490   0.60800   0.01267  Uiso   1.00
H490   H     0.38380   0.61640   0.82860   0.01267  Uiso   1.00
H491   H     0.83280   0.65200   0.55840   0.01267  Uiso   1.00
H492   H     0.84110   0.70120   0.81830   0.01267  Uiso   1.00
H493   H     0.93010   0.73050   0.06180   0.01267  Uiso   1.00
H494   H     0.82550   0.02450   0.68520   0.01267  Uiso   1.00
H495   H     0.39490   0.10800   0.83350   0.01267  Uiso   1.00
H496   H     0.88360   0.11620   0.67140   0.01267  Uiso   1.00
H497   H     0.52280   0.88290   0.18170   0.01267  Uiso   1.00
H498   H     0.16650   0.39200   0.60510   0.01267  Uiso   1.00
H499   H     0.23880   0.54550   0.05970   0.01267  Uiso   1.00
H500   H     0.64030   0.30100   0.82550   0.01267  Uiso   1.00
H501   H     0.06990   0.80040   0.63170   0.01267  Uiso   1.00
H502   H     0.47720   0.11710   0.81830   0.01267  Uiso   1.00
H503   H     0.35040   0.54340   0.66060   0.01267  Uiso   1.00
H504   H     0.78680   0.64990   0.75910   0.01267  Uiso   1.00
H505   H     0.74090   0.52770   0.39080   0.01267  Uiso   1.00
H506   H     0.55970   0.23880   0.04550   0.01267  Uiso   1.00
H507   H     0.21300   0.49680   0.55960   0.01267  Uiso   1.00
H508   H     0.45450   0.01420   0.69330   0.01267  Uiso   1.00
H509   H     0.36830   0.69960   0.93010   0.01267  Uiso   1.00
H510   H     0.26740   0.88380   0.55520   0.01267  Uiso   1.00
H511   H     0.56180   0.63170   0.83130   0.01267  Uiso   1.00
H512   H     0.55840   0.40640   0.22560   0.01267  Uiso   1.00
H513   H     0.02450   0.83930   0.19900   0.01267  Uiso   1.00
H514   H     0.52280   0.63990   0.84110   0.01267  Uiso   1.00
H515   H     0.84800   0.66720   0.94160   0.01267  Uiso   1.00
H516   H     0.10510   0.93860   0.71310   0.01267  Uiso   1.00
H517   H     0.80100   0.66070   0.97550   0.01267  Uiso   1.00
H518   H     0.23260   0.78780   0.61640   0.01267  Uiso   1.00
H519   H     0.47230   0.36310   0.21320   0.01267  Uiso   1.00
H520   H     0.55960   0.99680   0.21300   0.01267  Uiso   1.00
H521   H     0.49680   0.43720   0.28380   0.01267  Uiso   1.00
H522   H     0.18520   0.35970   0.16070   0.01267  Uiso   1.00
H523   H     0.88360   0.76740   0.71220   0.01267  Uiso   1.00
H524   H     0.36010   0.65890   0.97720   0.01267  Uiso   1.00
H525   H     0.20710   0.06700   0.27990   0.01267  Uiso   1.00
H526   H     0.91680   0.21550   0.43390   0.01267  Uiso   1.00
H527   H     0.06280   0.05960   0.34660   0.01267  Uiso   1.00
H528   H     0.02280   0.84110   0.63990   0.01267  Uiso   1.00
H529   H     0.39080   0.36310   0.14990   0.01267  Uiso   1.00
H530   H     0.85040   0.18980   0.80700   0.01267  Uiso   1.00
H531   H     0.65220   0.71030   0.78750   0.01267  Uiso   1.00
H532   H     0.45660   0.61720   0.80700   0.01267  Uiso   1.00
H533   H     0.28380   0.93720   0.49680   0.01267  Uiso   1.00
H534   H     0.28380   0.34660   0.28700   0.01267  Uiso   1.00
H535   H     0.21840   0.93390   0.51710   0.01267  Uiso   1.00
H536   H     0.93010   0.19960   0.36830   0.01267  Uiso   1.00
H537   H     0.66060   0.04340   0.35040   0.01267  Uiso   1.00
H538   H     0.30700   0.45660   0.11720   0.01267  Uiso   1.00
H539   H     0.34660   0.55960   0.06280   0.01267  Uiso   1.00
H540   H     0.77450   0.56140   0.66650   0.01267  Uiso   1.00
H541   H     0.85010   0.13690   0.60920   0.01267  Uiso   1.00
H542   H     0.67140   0.61620   0.88360   0.01267  Uiso   1.00
H543   H     0.27990   0.56700   0.20710   0.01267  Uiso   1.00
H544   H     0.66870   0.43820   0.86830   0.01267  Uiso   1.00
H545   H     0.15340   0.21620   0.21300   0.01267  Uiso   1.00
H546   H     0.88290   0.20120   0.36010   0.01267  Uiso   1.00
H547   H     0.52450   0.19900   0.83930   0.01267  Uiso   1.00
H548   H     0.86010   0.88290   0.70120   0.01267  Uiso   1.00
H549   H     0.67910   0.19330   0.23880   0.01267  Uiso   1.00
H550   H     0.11720   0.95660   0.30700   0.01267  Uiso   1.00
H551   H     0.00320   0.28700   0.94040   0.01267  Uiso   1.00
H552   H     0.61710   0.97720   0.31830   0.01267  Uiso   1.00
H553   H     0.28160   0.79870   0.71550   0.01267  Uiso   1.00
H554   H     0.36310   0.71320   0.97230   0.01267  Uiso   1.00
H555   H     0.17450   0.19900   0.35970   0.01267  Uiso   1.00
H556   H     0.61710   0.63990   0.79880   0.01267  Uiso   1.00
H557   H     0.97550   0.16070   0.80100   0.01267  Uiso   1.00
H558   H     0.88380   0.82860   0.61640   0.01267  Uiso   1.00
H559   H     0.69960   0.43010   0.86830   0.01267  Uiso   1.00
H560   H     0.21320   0.86310   0.47230   0.01267  Uiso   1.00
H561   H     0.13990   0.02280   0.34110   0.01267  Uiso   1.00
H562   H     0.06180   0.23050   0.93010   0.01267  Uiso   1.00
H563   H     0.43720   0.65340   0.94040   0.01267  Uiso   1.00
H564   H     0.49680   0.05960   0.71300   0.01267  Uiso   1.00
H565   H     0.71840   0.20130   0.28450   0.01267  Uiso   1.00
H566   H     0.41680   0.98290   0.70130   0.01267  Uiso   1.00
H567   H     0.05970   0.01420   0.32090   0.01267  Uiso   1.00
H568   H     0.81920   0.72560   0.66720   0.01267  Uiso   1.00
H569   H     0.44160   0.84800   0.16720   0.01267  Uiso   1.00
H570   H     0.44040   0.00320   0.78700   0.01267  Uiso   1.00
H571   H     0.82090   0.05970   0.51420   0.01267  Uiso   1.00
H572   H     0.81020   0.69300   0.64960   0.01267  Uiso   1.00
H573   H     0.76950   0.56990   0.43820   0.01267  Uiso   1.00
H574   H     0.72560   0.16720   0.31920   0.01267  Uiso   1.00
H575   H     0.36010   0.70120   0.88290   0.01267  Uiso   1.00
H576   H     0.60920   0.63690   0.85010   0.01267  Uiso   1.00
H577   H     0.71320   0.24090   0.35010   0.01267  Uiso   1.00
H578   H     0.73880   0.05970   0.54550   0.01267  Uiso   1.00
H579   H     0.70710   0.42720   0.14010   0.01267  Uiso   1.00
H580   H     0.66720   0.44160   0.34800   0.01267  Uiso   1.00
H581   H     0.17140   0.28780   0.05520   0.01267  Uiso   1.00
H582   H     0.71220   0.26740   0.88360   0.01267  Uiso   1.00
H583   H     0.28690   0.56140   0.89490   0.01267  Uiso   1.00
H584   H     0.19330   0.45450   0.51420   0.01267  Uiso   1.00
H585   H     0.88280   0.04340   0.69300   0.01267  Uiso   1.00
H586   H     0.19300   0.88280   0.54340   0.01267  Uiso   1.00
H587   H     0.92280   0.71250   0.86470   0.01267  Uiso   1.00
H588   H     0.35010   0.60920   0.13690   0.01267  Uiso   1.00
H589   H     0.43010   0.36830   0.19960   0.01267  Uiso   1.00
H590   H     0.33130   0.76950   0.69960   0.01267  Uiso   1.00
H591   H     0.86830   0.93010   0.69960   0.01267  Uiso   1.00
H592   H     0.83130   0.69960   0.76950   0.01267  Uiso   1.00
H593   H     0.73260   0.61640   0.78780   0.01267  Uiso   1.00
H594   H     0.32090   0.51420   0.05970   0.01267  Uiso   1.00
H595   H     0.84780   0.21250   0.28970   0.01267  Uiso   1.00
H596   H     0.78160   0.71550   0.79870   0.01267  Uiso   1.00
H597   H     0.39200   0.10510   0.66650   0.01267  Uiso   1.00
H598   H     0.97230   0.75910   0.10920   0.01267  Uiso   1.00
H599   H     0.78780   0.67140   0.55520   0.01267  Uiso   1.00
H600   H     0.92720   0.20710   0.64010   0.01267  Uiso   1.00
H601   H     0.56280   0.21620   0.00320   0.01267  Uiso   1.00
H602   H     0.28780   0.73260   0.11640   0.01267  Uiso   1.00
H603   H     0.71320   0.47230   0.86310   0.01267  Uiso   1.00
H604   H     0.35010   0.74090   0.71320   0.01267  Uiso   1.00
H605   H     0.69330   0.17910   0.73880   0.01267  Uiso   1.00
H606   H     0.60920   0.97230   0.25910   0.01267  Uiso   1.00
H607   H     0.79880   0.13990   0.61710   0.01267  Uiso   1.00
H608   H     0.89490   0.83350   0.10800   0.01267  Uiso   1.00
H609   H     0.04340   0.19300   0.38280   0.01267  Uiso   1.00
H610   H     0.66070   0.18520   0.85970   0.01267  Uiso   1.00
H611   H     0.33940   0.95660   0.64960   0.01267  Uiso   1.00
H612   H     0.14030   0.31480   0.33930   0.01267  Uiso   1.00
H613   H     0.36470   0.92280   0.21250   0.01267  Uiso   1.00
H614   H     0.30100   0.97550   0.66070   0.01267  Uiso   1.00
H615   H     0.01420   0.19330   0.95450   0.01267  Uiso   1.00
H616   H     0.78750   0.21030   0.65220   0.01267  Uiso   1.00
H617   H     0.86010   0.97720   0.65890   0.01267  Uiso   1.00
H618   H     0.55840   0.15200   0.83280   0.01267  Uiso   1.00
H619   H     0.72550   0.33350   0.43860   0.01267  Uiso   1.00
H620   H     0.28710   0.92720   0.22010   0.01267  Uiso   1.00
H621   H     0.43300   0.29290   0.22010   0.01267  Uiso   1.00
H622   H     0.81480   0.17450   0.47550   0.01267  Uiso   1.00
H623   H     0.97720   0.15890   0.36010   0.01267  Uiso   1.00
H624   H     0.29870   0.51710   0.58320   0.01267  Uiso   1.00
C1     C     0.60300   0.34090   0.82810   0.01267  Uiso   1.00
C2     C     0.68884   0.14949   0.36895   0.01267  Uiso   1.00
C3     C     0.30010   0.71850   0.88960   0.01267  Uiso   1.00
C4     C     0.51280   0.67190   0.77490   0.01267  Uiso   1.00
C5     C     0.74243   0.25425   0.81766   0.01267  Uiso   1.00
C6     C     0.22425   0.43165   0.57620   0.01267  Uiso   1.00
C7     C     0.43254   0.73721   0.14129   0.01267  Uiso   1.00
C8     C     0.87499   0.68744   0.61243   0.01267  Uiso   1.00
C9     C     0.56948   0.56451   0.79165   0.01267  Uiso   1.00
C10    C     0.75215   0.28591   0.31358   0.01267  Uiso   1.00
C11    C     0.38012   0.84473   0.70697   0.01267  Uiso   1.00
C12    C     0.31358   0.52767   0.06143   0.01267  Uiso   1.00
C13    C     0.06254   0.00799   0.23439   0.01267  Uiso   1.00
C14    C     0.36895   0.64949   0.68884   0.01267  Uiso   1.00
C15    C     0.22217   0.79165   0.22714   0.01267  Uiso   1.00
C16    C     0.17315   0.03539   0.38012   0.01267  Uiso   1.00
C17    C     0.22462   0.93698   0.45886   0.01267  Uiso   1.00
C18    C     0.54114   0.56302   0.77538   0.01267  Uiso   1.00
C19    C     0.27360   0.82815   0.26561   0.01267  Uiso   1.00
C20    C     0.10828   0.27858   0.23630   0.01267  Uiso   1.00
C21    C     0.68861   0.07253   0.29342   0.01267  Uiso   1.00
C22    C     0.22089   0.42747   0.11608   0.01267  Uiso   1.00
C23    C     0.23744   0.31245   0.12501   0.01267  Uiso   1.00
C24    C     0.91840   0.19990   0.58950   0.01267  Uiso   1.00
C25    C     0.41840   0.82890   0.71850   0.01267  Uiso   1.00
C26    C     0.63023   0.50435   0.33288   0.01267  Uiso   1.00
C27    C     0.58160   0.41050   0.80010   0.01267  Uiso   1.00
C28    C     0.72217   0.49503   0.43052   0.01267  Uiso   1.00
C29    C     0.53539   0.67315   0.88012   0.01267  Uiso   1.00
C30    C     0.49201   0.43746   0.26561   0.01267  Uiso   1.00
C31    C     0.78610   0.14917   0.54407   0.01267  Uiso   1.00
C32    C     0.24785   0.53376   0.06143   0.01267  Uiso   1.00
C33    C     0.78120   0.59130   0.71530   0.01267  Uiso   1.00
C34    C     0.06254   0.05455   0.32815   0.01267  Uiso   1.00
C35    C     0.14455   0.07620   0.35195   0.01267  Uiso   1.00
C36    C     0.66461   0.39600   0.93663   0.01267  Uiso   1.00
C37    C     0.70584   0.38413   0.84519   0.01267  Uiso   1.00
C38    C     0.86065   0.70584   0.82171   0.01267  Uiso   1.00
C39    C     0.63776   0.67315   0.79303   0.01267  Uiso   1.00
C40    C     0.28120   0.71530   0.59130   0.01267  Uiso   1.00
C41    C     0.06302   0.02188   0.28764   0.01267  Uiso   1.00
C42    C     0.53935   0.31989   0.18884   0.01267  Uiso   1.00
C43    C     0.60481   0.31139   0.88392   0.01267  Uiso   1.00
C44    C     0.38757   0.57501   0.76256   0.01267  Uiso   1.00
C45    C     0.13585   0.34850   0.93915   0.01267  Uiso   1.00
C46    C     0.32815   0.55455   0.06254   0.01267  Uiso   1.00
C47    C     0.86307   0.71390   0.75797   0.01267  Uiso   1.00
C48    C     0.03539   0.15527   0.86224   0.01267  Uiso   1.00
C49    C     0.50497   0.43549   0.22714   0.01267  Uiso   1.00
C50    C     0.80467   0.06746   0.70875   0.01267  Uiso   1.00
C51    C     0.93915   0.84850   0.13585   0.01267  Uiso   1.00
C52    C     0.80143   0.21230   0.87093   0.01267  Uiso   1.00
C53    C     0.29165   0.56948   0.06451   0.01267  Uiso   1.00
C54    C     0.28752   0.41267   0.09585   0.01267  Uiso   1.00
C55    C     0.30143   0.43050   0.58913   0.01267  Uiso   1.00
C56    C     0.75425   0.24243   0.31766   0.01267  Uiso   1.00
C57    C     0.09420   0.19640   0.91020   0.01267  Uiso   1.00
C58    C     0.40580   0.31600   0.10220   0.01267  Uiso   1.00
C59    C     0.57523   0.01182   0.25757   0.01267  Uiso   1.00
C60    C     0.23424   0.45886   0.52188   0.01267  Uiso   1.00
C61    C     0.72425   0.57620   0.43165   0.01267  Uiso   1.00
C62    C     0.54063   0.43663   0.27202   0.01267  Uiso   1.00
C63    C     0.10300   0.82810   0.34090   0.01267  Uiso   1.00
C64    C     0.81139   0.70658   0.92747   0.01267  Uiso   1.00
C65    C     0.75757   0.57523   0.51182   0.01267  Uiso   1.00
C66    C     0.50799   0.56254   0.73439   0.01267  Uiso   1.00
C67    C     0.51280   0.84090   0.23790   0.01267  Uiso   1.00
C68    C     0.60400   0.56337   0.83539   0.01267  Uiso   1.00
C69    C     0.73424   0.52188   0.45886   0.01267  Uiso   1.00
C70    C     0.08733   0.21248   0.40415   0.01267  Uiso   1.00
C71    C     0.37485   0.58733   0.68318   0.01267  Uiso   1.00
C72    C     0.08160   0.80010   0.41050   0.01267  Uiso   1.00
C73    C     0.80330   0.86415   0.71265   0.01267  Uiso   1.00
C74    C     0.06746   0.85871   0.26279   0.01267  Uiso   1.00
C75    C     0.26561   0.93746   0.49201   0.01267  Uiso   1.00
C76    C     0.90870   0.18990   0.62400   0.01267  Uiso   1.00
C77    C     0.56451   0.29165   0.06948   0.01267  Uiso   1.00
C78    C     0.79165   0.72714   0.72217   0.01267  Uiso   1.00
C79    C     0.15150   0.36415   0.56085   0.01267  Uiso   1.00
C80    C     0.89700   0.17190   0.65910   0.01267  Uiso   1.00
C81    C     0.42380   0.35545   0.14805   0.01267  Uiso   1.00
C82    C     0.11587   0.32171   0.96106   0.01267  Uiso   1.00
C83    C     0.43052   0.99503   0.72217   0.01267  Uiso   1.00
C84    C     0.67185   0.44545   0.93746   0.01267  Uiso   1.00
C85    C     0.40870   0.78470   0.71880   0.01267  Uiso   1.00
C86    C     0.60510   0.95593   0.24203   0.01267  Uiso   1.00
C87    C     0.35545   0.70740   0.93165   0.01267  Uiso   1.00
C88    C     0.78054   0.13105   0.31989   0.01267  Uiso   1.00
C89    C     0.34850   0.43915   0.63585   0.01267  Uiso   1.00
C90    C     0.69670   0.28735   0.13585   0.01267  Uiso   1.00
C91    C     0.40870   0.62400   0.18990   0.01267  Uiso   1.00
C92    C     0.35871   0.79125   0.09592   0.01267  Uiso   1.00
C93    C     0.81358   0.75215   0.78591   0.01267  Uiso   1.00
C94    C     0.92747   0.72089   0.61608   0.01267  Uiso   1.00
C95    C     0.57620   0.93165   0.22425   0.01267  Uiso   1.00
C96    C     0.89172   0.17030   0.62802   0.01267  Uiso   1.00
C97    C     0.96461   0.11988   0.32685   0.01267  Uiso   1.00
C98    C     0.06835   0.27575   0.92380   0.01267  Uiso   1.00
C99    C     0.06337   0.95937   0.22798   0.01267  Uiso   1.00
C100   C     0.01280   0.77490   0.67190   0.01267  Uiso   1.00
C101   C     0.95772   0.73630   0.12802   0.01267  Uiso   1.00
C102   C     0.38392   0.60481   0.81139   0.01267  Uiso   1.00
C103   C     0.89700   0.72510   0.73790   0.01267  Uiso   1.00
C104   C     0.62515   0.21248   0.80833   0.01267  Uiso   1.00
C105   C     0.09130   0.28120   0.21530   0.01267  Uiso   1.00
C106   C     0.91840   0.71850   0.82890   0.01267  Uiso   1.00
C107   C     0.35195   0.77575   0.70740   0.01267  Uiso   1.00
C108   C     0.15527   0.36224   0.53539   0.01267  Uiso   1.00
C109   C     0.87499   0.18755   0.76256   0.01267  Uiso   1.00
C110   C     0.71236   0.23424   0.27538   0.01267  Uiso   1.00
C111   C     0.28150   0.67110   0.58160   0.01267  Uiso   1.00
C112   C     0.90415   0.08733   0.71248   0.01267  Uiso   1.00
C113   C     0.78752   0.69167   0.87485   0.01267  Uiso   1.00
C114   C     0.43410   0.12400   0.71530   0.01267  Uiso   1.00
C115   C     0.46461   0.32685   0.11988   0.01267  Uiso   1.00
C116   C     0.72462   0.45886   0.93698   0.01267  Uiso   1.00
C117   C     0.31256   0.88757   0.62501   0.01267  Uiso   1.00
C118   C     0.51182   0.43659   0.25425   0.01267  Uiso   1.00
C119   C     0.90870   0.71880   0.78470   0.01267  Uiso   1.00
C120   C     0.17110   0.38960   0.58950   0.01267  Uiso   1.00
C121   C     0.21409   0.46624   0.52767   0.01267  Uiso   1.00
C122   C     0.87198   0.10828   0.32970   0.01267  Uiso   1.00
C123   C     0.56143   0.31358   0.02767   0.01267  Uiso   1.00
C124   C     0.61040   0.69990   0.78150   0.01267  Uiso   1.00
C125   C     0.63935   0.46106   0.84519   0.01267  Uiso   1.00
C126   C     0.13585   0.78735   0.69670   0.01267  Uiso   1.00
C127   C     0.32171   0.86065   0.20584   0.01267  Uiso   1.00
C128   C     0.82810   0.84090   0.60300   0.01267  Uiso   1.00
C129   C     0.39700   0.73790   0.72510   0.01267  Uiso   1.00
C130   C     0.93698   0.95886   0.72462   0.01267  Uiso   1.00
C131   C     0.08950   0.17110   0.88960   0.01267  Uiso   1.00
C132   C     0.76576   0.22462   0.78764   0.01267  Uiso   1.00
C133   C     0.89600   0.16461   0.43663   0.01267  Uiso   1.00
C134   C     0.11608   0.18861   0.39519   0.01267  Uiso   1.00
C135   C     0.61587   0.96106   0.32171   0.01267  Uiso   1.00
C136   C     0.32970   0.72142   0.95772   0.01267  Uiso   1.00
C137   C     0.01182   0.25425   0.43659   0.01267  Uiso   1.00
C138   C     0.31245   0.62501   0.73744   0.01267  Uiso   1.00
C139   C     0.57501   0.26256   0.88757   0.01267  Uiso   1.00
C140   C     0.06341   0.07523   0.31766   0.01267  Uiso   1.00
C141   C     0.31766   0.74243   0.75425   0.01267  Uiso   1.00
C142   C     0.38960   0.08950   0.67110   0.01267  Uiso   1.00
C143   C     0.23744   0.92499   0.61243   0.01267  Uiso   1.00
C144   C     0.81245   0.07501   0.68744   0.01267  Uiso   1.00
C145   C     0.63023   0.12588   0.79735   0.01267  Uiso   1.00
C146   C     0.56085   0.86415   0.15150   0.01267  Uiso   1.00
C147   C     0.25215   0.93857   0.46624   0.01267  Uiso   1.00
C148   C     0.20265   0.82853   0.33288   0.01267  Uiso   1.00
C149   C     0.40408   0.76279   0.19533   0.01267  Uiso   1.00
C150   C     0.29735   0.63023   0.62588   0.01267  Uiso   1.00
C151   C     0.68990   0.40870   0.12400   0.01267  Uiso   1.00
C152   C     0.81682   0.19167   0.40415   0.01267  Uiso   1.00
C153   C     0.81245   0.73744   0.62501   0.01267  Uiso   1.00
C154   C     0.92380   0.14805   0.35545   0.01267  Uiso   1.00
C155   C     0.17190   0.15910   0.39700   0.01267  Uiso   1.00
C156   C     0.30360   0.40580   0.58980   0.01267  Uiso   1.00
C157   C     0.29303   0.63776   0.17315   0.01267  Uiso   1.00
C158   C     0.59585   0.30833   0.18318   0.01267  Uiso   1.00
C159   C     0.43052   0.43549   0.20835   0.01267  Uiso   1.00
C160   C     0.76561   0.27360   0.32815   0.01267  Uiso   1.00
C161   C     0.71530   0.62400   0.43410   0.01267  Uiso   1.00
C162   C     0.90580   0.10220   0.31600   0.01267  Uiso   1.00
C163   C     0.32810   0.72510   0.98720   0.01267  Uiso   1.00
C164   C     0.95937   0.23139   0.89600   0.01267  Uiso   1.00
C165   C     0.73721   0.64129   0.93254   0.01267  Uiso   1.00
C166   C     0.64949   0.46065   0.28054   0.01267  Uiso   1.00
C167   C     0.28620   0.69640   0.60220   0.01267  Uiso   1.00
C168   C     0.57253   0.38392   0.27911   0.01267  Uiso   1.00
C169   C     0.87412   0.17147   0.50435   0.01267  Uiso   1.00
C170   C     0.82810   0.98720   0.72510   0.01267  Uiso   1.00
C171   C     0.75215   0.46624   0.93857   0.01267  Uiso   1.00
C172   C     0.31766   0.57523   0.06341   0.01267  Uiso   1.00
C173   C     0.71880   0.28470   0.40870   0.01267  Uiso   1.00
C174   C     0.30143   0.87093   0.21230   0.01267  Uiso   1.00
C175   C     0.11243   0.23744   0.42499   0.01267  Uiso   1.00
C176   C     0.82853   0.83288   0.70265   0.01267  Uiso   1.00
C177   C     0.85545   0.93165   0.70740   0.01267  Uiso   1.00
C178   C     0.36415   0.06085   0.65150   0.01267  Uiso   1.00
C179   C     0.46106   0.11587   0.82171   0.01267  Uiso   1.00
C180   C     0.93663   0.04063   0.77202   0.01267  Uiso   1.00
C181   C     0.00435   0.87412   0.67147   0.01267  Uiso   1.00
C182   C     0.59592   0.35871   0.29125   0.01267  Uiso   1.00
C183   C     0.32890   0.91840   0.21850   0.01267  Uiso   1.00
C184   C     0.39780   0.80360   0.71380   0.01267  Uiso   1.00
C185   C     0.93165   0.72425   0.07620   0.01267  Uiso   1.00
C186   C     0.92380   0.77575   0.06835   0.01267  Uiso   1.00
C187   C     0.45937   0.89600   0.23139   0.01267  Uiso   1.00
C188   C     0.45772   0.32970   0.22142   0.01267  Uiso   1.00
C189   C     0.84137   0.93050   0.62907   0.01267  Uiso   1.00
C190   C     0.40415   0.69167   0.81682   0.01267  Uiso   1.00
C191   C     0.21409   0.74785   0.18642   0.01267  Uiso   1.00
C192   C     0.78470   0.21880   0.90870   0.01267  Uiso   1.00
C193   C     0.42747   0.81139   0.20658   0.01267  Uiso   1.00
C194   C     0.79125   0.19533   0.43254   0.01267  Uiso   1.00
C195   C     0.43165   0.35545   0.20740   0.01267  Uiso   1.00
C196   C     0.28770   0.69857   0.62907   0.01267  Uiso   1.00
C197   C     0.74575   0.06341   0.48818   0.01267  Uiso   1.00
C198   C     0.16712   0.79735   0.67147   0.01267  Uiso   1.00
C199   C     0.03539   0.88012   0.67315   0.01267  Uiso   1.00
C200   C     0.61243   0.42499   0.23744   0.01267  Uiso   1.00
C201   C     0.28764   0.52188   0.06302   0.01267  Uiso   1.00
C202   C     0.64129   0.43254   0.23721   0.01267  Uiso   1.00
C203   C     0.68744   0.57501   0.81245   0.01267  Uiso   1.00
C204   C     0.50799   0.94545   0.27360   0.01267  Uiso   1.00
C205   C     0.77783   0.56948   0.50497   0.01267  Uiso   1.00
C206   C     0.34473   0.46461   0.63776   0.01267  Uiso   1.00
C207   C     0.10400   0.83539   0.56337   0.01267  Uiso   1.00
C208   C     0.96106   0.13935   0.34519   0.01267  Uiso   1.00
C209   C     0.15863   0.06950   0.37093   0.01267  Uiso   1.00
C210   C     0.63935   0.17829   0.29416   0.01267  Uiso   1.00
C211   C     0.98818   0.74575   0.56341   0.01267  Uiso   1.00
C212   C     0.84519   0.96106   0.63935   0.01267  Uiso   1.00
C213   C     0.78764   0.06302   0.52188   0.01267  Uiso   1.00
C214   C     0.29165   0.72217   0.72714   0.01267  Uiso   1.00
C215   C     0.22089   0.79342   0.60481   0.01267  Uiso   1.00
C216   C     0.10400   0.26861   0.04063   0.01267  Uiso   1.00
C217   C     0.70875   0.14129   0.40408   0.01267  Uiso   1.00
C218   C     0.42747   0.61608   0.72089   0.01267  Uiso   1.00
C219   C     0.77538   0.06302   0.54114   0.01267  Uiso   1.00
C220   C     0.10220   0.81600   0.40580   0.01267  Uiso   1.00
C221   C     0.35051   0.53935   0.71946   0.01267  Uiso   1.00
C222   C     0.27538   0.73424   0.71236   0.01267  Uiso   1.00
C223   C     0.82685   0.96461   0.61988   0.01267  Uiso   1.00
C224   C     0.85195   0.70740   0.77575   0.01267  Uiso   1.00
C225   C     0.37412   0.50435   0.17147   0.01267  Uiso   1.00
C226   C     0.84473   0.20697   0.88012   0.01267  Uiso   1.00
C227   C     0.36065   0.53894   0.15481   0.01267  Uiso   1.00
C228   C     0.12400   0.90870   0.68990   0.01267  Uiso   1.00
C229   C     0.24243   0.42477   0.48818   0.01267  Uiso   1.00
C230   C     0.41050   0.11040   0.82890   0.01267  Uiso   1.00
C231   C     0.62802   0.95772   0.23630   0.01267  Uiso   1.00
C232   C     0.96065   0.81116   0.68011   0.01267  Uiso   1.00
C233   C     0.16461   0.93663   0.39600   0.01267  Uiso   1.00
C234   C     0.71946   0.03935   0.35051   0.01267  Uiso   1.00
C235   C     0.19533   0.26279   0.40408   0.01267  Uiso   1.00
C236   C     0.06341   0.98818   0.24575   0.01267  Uiso   1.00
C237   C     0.81600   0.91020   0.71380   0.01267  Uiso   1.00
C238   C     0.10300   0.27490   0.26210   0.01267  Uiso   1.00
C239   C     0.89600   0.73139   0.95937   0.01267  Uiso   1.00
C240   C     0.99201   0.26561   0.43746   0.01267  Uiso   1.00
C241   C     0.02767   0.21409   0.96624   0.01267  Uiso   1.00
C242   C     0.20658   0.31139   0.42747   0.01267  Uiso   1.00
C243   C     0.73790   0.22510   0.89700   0.01267  Uiso   1.00
C244   C     0.32171   0.46106   0.61587   0.01267  Uiso   1.00
C245   C     0.27538   0.54114   0.06302   0.01267  Uiso   1.00
C246   C     0.93410   0.21880   0.31010   0.01267  Uiso   1.00
C247   C     0.63776   0.96461   0.34473   0.01267  Uiso   1.00
C248   C     0.23721   0.93254   0.64129   0.01267  Uiso   1.00
C249   C     0.24203   0.45593   0.60510   0.01267  Uiso   1.00
C250   C     0.33288   0.00435   0.63023   0.01267  Uiso   1.00
C251   C     0.25797   0.86307   0.21390   0.01267  Uiso   1.00
C252   C     0.69857   0.56950   0.41087   0.01267  Uiso   1.00
C253   C     0.56337   0.22798   0.95937   0.01267  Uiso   1.00
C254   C     0.28610   0.74203   0.63693   0.01267  Uiso   1.00
C255   C     0.81139   0.10481   0.38392   0.01267  Uiso   1.00
C256   C     0.47233   0.43857   0.18642   0.01267  Uiso   1.00
C257   C     0.69990   0.41840   0.08950   0.01267  Uiso   1.00
C258   C     0.03376   0.74785   0.56143   0.01267  Uiso   1.00
C259   C     0.79342   0.68861   0.57253   0.01267  Uiso   1.00
C260   C     0.53894   0.65481   0.86065   0.01267  Uiso   1.00
C261   C     0.06948   0.27783   0.00497   0.01267  Uiso   1.00
C262   C     0.21880   0.40870   0.28470   0.01267  Uiso   1.00
C263   C     0.18884   0.81989   0.53935   0.01267  Uiso   1.00
C264   C     0.68011   0.36895   0.21946   0.01267  Uiso   1.00
C265   C     0.86895   0.18011   0.71946   0.01267  Uiso   1.00
C266   C     0.51182   0.07523   0.75757   0.01267  Uiso   1.00
C267   C     0.73744   0.12501   0.31245   0.01267  Uiso   1.00
C268   C     0.54407   0.89490   0.25797   0.01267  Uiso   1.00
C269   C     0.61608   0.39519   0.18861   0.01267  Uiso   1.00
C270   C     0.18400   0.08980   0.28620   0.01267  Uiso   1.00
C271   C     0.95593   0.21390   0.35083   0.01267  Uiso   1.00
C272   C     0.76210   0.65910   0.48720   0.01267  Uiso   1.00
C273   C     0.21380   0.39780   0.30360   0.01267  Uiso   1.00
C274   C     0.40408   0.64129   0.70875   0.01267  Uiso   1.00
C275   C     0.80330   0.93915   0.59065   0.01267  Uiso   1.00
C276   C     0.87485   0.19167   0.78752   0.01267  Uiso   1.00
C277   C     0.70584   0.32171   0.36065   0.01267  Uiso   1.00
C278   C     0.36415   0.30330   0.21265   0.01267  Uiso   1.00
C279   C     0.15910   0.89700   0.67190   0.01267  Uiso   1.00
C280   C     0.56085   0.69670   0.90935   0.01267  Uiso   1.00
C281   C     0.07253   0.27911   0.38392   0.01267  Uiso   1.00
C282   C     0.67185   0.22640   0.23439   0.01267  Uiso   1.00
C283   C     0.96624   0.71409   0.02767   0.01267  Uiso   1.00
C284   C     0.17030   0.12802   0.39172   0.01267  Uiso   1.00
C285   C     0.55455   0.56254   0.82815   0.01267  Uiso   1.00
C286   C     0.34519   0.70584   0.88413   0.01267  Uiso   1.00
C287   C     0.78735   0.59065   0.65150   0.01267  Uiso   1.00
C288   C     0.28735   0.63585   0.19670   0.01267  Uiso   1.00
C289   C     0.78610   0.63693   0.74203   0.01267  Uiso   1.00
C290   C     0.67315   0.38012   0.03539   0.01267  Uiso   1.00
C291   C     0.21248   0.90415   0.58733   0.01267  Uiso   1.00
C292   C     0.78770   0.15863   0.58913   0.01267  Uiso   1.00
C293   C     0.28054   0.31989   0.13105   0.01267  Uiso   1.00
C294   C     0.86307   0.14917   0.60510   0.01267  Uiso   1.00
C295   C     0.69533   0.29125   0.93254   0.01267  Uiso   1.00
C296   C     0.80143   0.58913   0.43050   0.01267  Uiso   1.00
C297   C     0.38757   0.81256   0.12501   0.01267  Uiso   1.00
C298   C     0.92477   0.74243   0.98818   0.01267  Uiso   1.00
C299   C     0.72217   0.22714   0.79165   0.01267  Uiso   1.00
C300   C     0.77360   0.50799   0.44545   0.01267  Uiso   1.00
C301   C     0.56835   0.64455   0.79260   0.01267  Uiso   1.00
C302   C     0.08733   0.87485   0.18318   0.01267  Uiso   1.00
C303   C     0.68234   0.42477   0.93659   0.01267  Uiso   1.00
C304   C     0.18755   0.92499   0.31256   0.01267  Uiso   1.00
C305   C     0.21248   0.30833   0.12515   0.01267  Uiso   1.00
C306   C     0.92499   0.81256   0.68755   0.01267  Uiso   1.00
C307   C     0.78735   0.19670   0.63585   0.01267  Uiso   1.00
C308   C     0.88757   0.76256   0.57501   0.01267  Uiso   1.00
C309   C     0.74785   0.68642   0.71409   0.01267  Uiso   1.00
C310   C     0.67829   0.53894   0.38413   0.01267  Uiso   1.00
C311   C     0.27783   0.50497   0.56948   0.01267  Uiso   1.00
C312   C     0.14917   0.10510   0.36307   0.01267  Uiso   1.00
C313   C     0.86224   0.20697   0.32685   0.01267  Uiso   1.00
C314   C     0.48818   0.56341   0.74575   0.01267  Uiso   1.00
C315   C     0.29260   0.72425   0.64805   0.01267  Uiso   1.00
C316   C     0.85871   0.76279   0.56746   0.01267  Uiso   1.00
C317   C     0.42380   0.06835   0.77575   0.01267  Uiso   1.00
C318   C     0.61587   0.65481   0.79416   0.01267  Uiso   1.00
C319   C     0.22798   0.76861   0.66461   0.01267  Uiso   1.00
C320   C     0.72640   0.17185   0.73439   0.01267  Uiso   1.00
C321   C     0.17829   0.38413   0.53894   0.01267  Uiso   1.00
C322   C     0.41050   0.30010   0.08160   0.01267  Uiso   1.00
C323   C     0.22142   0.82970   0.45772   0.01267  Uiso   1.00
C324   C     0.69640   0.10220   0.78620   0.01267  Uiso   1.00
C325   C     0.50497   0.06948   0.77783   0.01267  Uiso   1.00
C326   C     0.22798   0.45937   0.06337   0.01267  Uiso   1.00
C327   C     0.22640   0.49201   0.55455   0.01267  Uiso   1.00
C328   C     0.26861   0.54063   0.60400   0.01267  Uiso   1.00
C329   C     0.14917   0.04407   0.28610   0.01267  Uiso   1.00
C330   C     0.70265   0.36977   0.37412   0.01267  Uiso   1.00
C331   C     0.19640   0.78620   0.10220   0.01267  Uiso   1.00
C332   C     0.96461   0.84473   0.13776   0.01267  Uiso   1.00
C333   C     0.18318   0.80833   0.59585   0.01267  Uiso   1.00
C334   C     0.86224   0.65527   0.03539   0.01267  Uiso   1.00
C335   C     0.12907   0.28770   0.19857   0.01267  Uiso   1.00
C336   C     0.71850   0.32890   0.41840   0.01267  Uiso   1.00
C337   C     0.32685   0.70697   0.86224   0.01267  Uiso   1.00
C338   C     0.82685   0.86224   0.70697   0.01267  Uiso   1.00
C339   C     0.30833   0.62515   0.71248   0.01267  Uiso   1.00
C340   C     0.22640   0.73439   0.17185   0.01267  Uiso   1.00
C341   C     0.70265   0.33288   0.82853   0.01267  Uiso   1.00
C342   C     0.23790   0.34090   0.51280   0.01267  Uiso   1.00
C343   C     0.79165   0.06451   0.56948   0.01267  Uiso   1.00
C344   C     0.37485   0.78752   0.19167   0.01267  Uiso   1.00
C345   C     0.04407   0.25797   0.89490   0.01267  Uiso   1.00
C346   C     0.37412   0.86977   0.70265   0.01267  Uiso   1.00
C347   C     0.41840   0.58950   0.19990   0.01267  Uiso   1.00
C348   C     0.69533   0.40408   0.26279   0.01267  Uiso   1.00
C349   C     0.28120   0.56590   0.18990   0.01267  Uiso   1.00
C350   C     0.64917   0.28610   0.04407   0.01267  Uiso   1.00
C351   C     0.86977   0.66712   0.49565   0.01267  Uiso   1.00
C352   C     0.70697   0.34473   0.38012   0.01267  Uiso   1.00
C353   C     0.25215   0.31358   0.28591   0.01267  Uiso   1.00
C354   C     0.11587   0.79416   0.65481   0.01267  Uiso   1.00
C355   C     0.54407   0.64917   0.78610   0.01267  Uiso   1.00
C356   C     0.21530   0.78120   0.09130   0.01267  Uiso   1.00
C357   C     0.09065   0.80330   0.43915   0.01267  Uiso   1.00
C358   C     0.05455   0.22640   0.99201   0.01267  Uiso   1.00
C359   C     0.89780   0.71380   0.80360   0.01267  Uiso   1.00
C360   C     0.13693   0.28610   0.24203   0.01267  Uiso   1.00
C361   C     0.14949   0.86895   0.18884   0.01267  Uiso   1.00
C362   C     0.10481   0.22089   0.29342   0.01267  Uiso   1.00
C363   C     0.62400   0.93410   0.21530   0.01267  Uiso   1.00
C364   C     0.50435   0.67147   0.87412   0.01267  Uiso   1.00
C365   C     0.80833   0.71248   0.62515   0.01267  Uiso   1.00
C366   C     0.56341   0.31766   0.07523   0.01267  Uiso   1.00
C367   C     0.13935   0.84519   0.46106   0.01267  Uiso   1.00
C368   C     0.14455   0.06835   0.29260   0.01267  Uiso   1.00
C369   C     0.59130   0.21530   0.28120   0.01267  Uiso   1.00
C370   C     0.17030   0.04228   0.27858   0.01267  Uiso   1.00
C371   C     0.32890   0.41050   0.61040   0.01267  Uiso   1.00
C372   C     0.31600   0.60220   0.90580   0.01267  Uiso   1.00
C373   C     0.31139   0.38392   0.10481   0.01267  Uiso   1.00
C374   C     0.25757   0.51182   0.57523   0.01267  Uiso   1.00
C375   C     0.26210   0.77490   0.10300   0.01267  Uiso   1.00
C376   C     0.28470   0.37600   0.56590   0.01267  Uiso   1.00
C377   C     0.82970   0.87198   0.60828   0.01267  Uiso   1.00
C378   C     0.36977   0.87412   0.20265   0.01267  Uiso   1.00
C379   C     0.22142   0.39172   0.26370   0.01267  Uiso   1.00
C380   C     0.74203   0.13693   0.78610   0.01267  Uiso   1.00
C381   C     0.43254   0.69533   0.79125   0.01267  Uiso   1.00
C382   C     0.65150   0.56085   0.36415   0.01267  Uiso   1.00
C383   C     0.90415   0.81682   0.69167   0.01267  Uiso   1.00
C384   C     0.40935   0.56085   0.19670   0.01267  Uiso   1.00
C385   C     0.43165   0.07620   0.72425   0.01267  Uiso   1.00
C386   C     0.43050   0.34137   0.12907   0.01267  Uiso   1.00
C387   C     0.11040   0.78150   0.69990   0.01267  Uiso   1.00
C388   C     0.92747   0.20658   0.81139   0.01267  Uiso   1.00
C389   C     0.30360   0.89780   0.21380   0.01267  Uiso   1.00
C390   C     0.93549   0.93052   0.70835   0.01267  Uiso   1.00
C391   C     0.21946   0.86895   0.68011   0.01267  Uiso   1.00
C392   C     0.13776   0.34473   0.96461   0.01267  Uiso   1.00
C393   C     0.04063   0.27202   0.43663   0.01267  Uiso   1.00
C394   C     0.45772   0.12802   0.73630   0.01267  Uiso   1.00
C395   C     0.10510   0.24203   0.95593   0.01267  Uiso   1.00
C396   C     0.43746   0.67185   0.94545   0.01267  Uiso   1.00
C397   C     0.26370   0.37198   0.54228   0.01267  Uiso   1.00
C398   C     0.02188   0.78764   0.56302   0.01267  Uiso   1.00
C399   C     0.39600   0.95937   0.73139   0.01267  Uiso   1.00
C400   C     0.08160   0.28150   0.17110   0.01267  Uiso   1.00
C401   C     0.06302   0.04114   0.27538   0.01267  Uiso   1.00
C402   C     0.66712   0.67147   0.79735   0.01267  Uiso   1.00
C403   C     0.78770   0.62907   0.69857   0.01267  Uiso   1.00
C404   C     0.62515   0.41267   0.31682   0.01267  Uiso   1.00
C405   C     0.42499   0.68755   0.81256   0.01267  Uiso   1.00
C406   C     0.81358   0.06143   0.52767   0.01267  Uiso   1.00
C407   C     0.00497   0.77783   0.06948   0.01267  Uiso   1.00
C408   C     0.68234   0.25757   0.24575   0.01267  Uiso   1.00
C409   C     0.64805   0.42380   0.85545   0.01267  Uiso   1.00
C410   C     0.45886   0.43698   0.22462   0.01267  Uiso   1.00
C411   C     0.81682   0.62515   0.91267   0.01267  Uiso   1.00
C412   C     0.20697   0.38012   0.34473   0.01267  Uiso   1.00
C413   C     0.12501   0.31256   0.38757   0.01267  Uiso   1.00
C414   C     0.85051   0.71946   0.53935   0.01267  Uiso   1.00
C415   C     0.97812   0.21236   0.43698   0.01267  Uiso   1.00
C416   C     0.84090   0.73790   0.01280   0.01267  Uiso   1.00
C417   C     0.71390   0.25797   0.36307   0.01267  Uiso   1.00
C418   C     0.75757   0.18234   0.74575   0.01267  Uiso   1.00
C419   C     0.14129   0.23721   0.43254   0.01267  Uiso   1.00
C420   C     0.76256   0.07501   0.38757   0.01267  Uiso   1.00
C421   C     0.38012   0.53539   0.17315   0.01267  Uiso   1.00
C422   C     0.43549   0.72714   0.00497   0.01267  Uiso   1.00
C423   C     0.29416   0.67829   0.63935   0.01267  Uiso   1.00
C424   C     0.18318   0.37485   0.08733   0.01267  Uiso   1.00
C425   C     0.66712   0.99565   0.36977   0.01267  Uiso   1.00
C426   C     0.18861   0.89519   0.61608   0.01267  Uiso   1.00
C427   C     0.29342   0.72089   0.10481   0.01267  Uiso   1.00
C428   C     0.25425   0.31766   0.24243   0.01267  Uiso   1.00
C429   C     0.22217   0.43052   0.49503   0.01267  Uiso   1.00
C430   C     0.09420   0.89780   0.68400   0.01267  Uiso   1.00
C431   C     0.07620   0.85195   0.64455   0.01267  Uiso   1.00
C432   C     0.82815   0.76561   0.77360   0.01267  Uiso   1.00
C433   C     0.35871   0.56746   0.76279   0.01267  Uiso   1.00
C434   C     0.71380   0.30360   0.39780   0.01267  Uiso   1.00
C435   C     0.40415   0.71248   0.08733   0.01267  Uiso   1.00
C436   C     0.08980   0.30360   0.90580   0.01267  Uiso   1.00
C437   C     0.88757   0.12501   0.81256   0.01267  Uiso   1.00
C438   C     0.97233   0.78591   0.03376   0.01267  Uiso   1.00
C439   C     0.18755   0.26256   0.37499   0.01267  Uiso   1.00
C440   C     0.48818   0.92477   0.24243   0.01267  Uiso   1.00
C441   C     0.53539   0.86224   0.15527   0.01267  Uiso   1.00
C442   C     0.29260   0.56835   0.14455   0.01267  Uiso   1.00
C443   C     0.52767   0.96624   0.21409   0.01267  Uiso   1.00
C444   C     0.71530   0.09130   0.78120   0.01267  Uiso   1.00
C445   C     0.26370   0.89172   0.22142   0.01267  Uiso   1.00
C446   C     0.77202   0.54063   0.93663   0.01267  Uiso   1.00
C447   C     0.59592   0.23721   0.80467   0.01267  Uiso   1.00
C448   C     0.91020   0.21380   0.31600   0.01267  Uiso   1.00
C449   C     0.77858   0.60828   0.73630   0.01267  Uiso   1.00
C450   C     0.62400   0.68990   0.90870   0.01267  Uiso   1.00
C451   C     0.62802   0.67030   0.89172   0.01267  Uiso   1.00
C452   C     0.86977   0.20265   0.87412   0.01267  Uiso   1.00
C453   C     0.08913   0.78770   0.65863   0.01267  Uiso   1.00
C454   C     0.35051   0.81116   0.13105   0.01267  Uiso   1.00
C455   C     0.70740   0.27575   0.35195   0.01267  Uiso   1.00
C456   C     0.69670   0.40935   0.06085   0.01267  Uiso   1.00
C457   C     0.49201   0.05455   0.72640   0.01267  Uiso   1.00
C458   C     0.23139   0.39600   0.45937   0.01267  Uiso   1.00
C459   C     0.09592   0.80467   0.23721   0.01267  Uiso   1.00
C460   C     0.78620   0.60220   0.69640   0.01267  Uiso   1.00
C461   C     0.19670   0.13585   0.28735   0.01267  Uiso   1.00
C462   C     0.94545   0.77360   0.00799   0.01267  Uiso   1.00
C463   C     0.65527   0.53539   0.36224   0.01267  Uiso   1.00
C464   C     0.87093   0.71230   0.80143   0.01267  Uiso   1.00
C465   C     0.93663   0.89600   0.66461   0.01267  Uiso   1.00
C466   C     0.00435   0.13023   0.83288   0.01267  Uiso   1.00
C467   C     0.07501   0.18744   0.31245   0.01267  Uiso   1.00
C468   C     0.80010   0.91050   0.58160   0.01267  Uiso   1.00
C469   C     0.63105   0.28054   0.81989   0.01267  Uiso   1.00
C470   C     0.14805   0.85545   0.42380   0.01267  Uiso   1.00
C471   C     0.71409   0.52767   0.46624   0.01267  Uiso   1.00
C472   C     0.72089   0.60481   0.79342   0.01267  Uiso   1.00
C473   C     0.93052   0.72217   0.99503   0.01267  Uiso   1.00
C474   C     0.65910   0.98720   0.26210   0.01267  Uiso   1.00
C475   C     0.16461   0.22798   0.26861   0.01267  Uiso   1.00
C476   C     0.73139   0.27202   0.83539   0.01267  Uiso   1.00
C477   C     0.61243   0.18744   0.87499   0.01267  Uiso   1.00
C478   C     0.37093   0.56950   0.15863   0.01267  Uiso   1.00
C479   C     0.06590   0.78120   0.68990   0.01267  Uiso   1.00
C480   C     0.18400   0.09420   0.39780   0.01267  Uiso   1.00
C481   C     0.10828   0.82970   0.37198   0.01267  Uiso   1.00
C482   C     0.43549   0.70835   0.93052   0.01267  Uiso   1.00
C483   C     0.43659   0.68234   0.92477   0.01267  Uiso   1.00
C484   C     0.67147   0.29735   0.16712   0.01267  Uiso   1.00
C485   C     0.32815   0.77360   0.76561   0.01267  Uiso   1.00
C486   C     0.88392   0.07253   0.77911   0.01267  Uiso   1.00
C487   C     0.25425   0.93659   0.51182   0.01267  Uiso   1.00
C488   C     0.69640   0.59420   0.41020   0.01267  Uiso   1.00
C489   C     0.21236   0.27538   0.23424   0.01267  Uiso   1.00
C490   C     0.20697   0.82685   0.36224   0.01267  Uiso   1.00
C491   C     0.73721   0.09592   0.30467   0.01267  Uiso   1.00
C492   C     0.83288   0.20265   0.32853   0.01267  Uiso   1.00
C493   C     0.04407   0.78610   0.64917   0.01267  Uiso   1.00
C494   C     0.60828   0.23630   0.27858   0.01267  Uiso   1.00
C495   C     0.19533   0.93254   0.29125   0.01267  Uiso   1.00
C496   C     0.18990   0.06590   0.28120   0.01267  Uiso   1.00
C497   C     0.47812   0.04114   0.76576   0.01267  Uiso   1.00
C498   C     0.58160   0.17110   0.28150   0.01267  Uiso   1.00
C499   C     0.06085   0.90935   0.69670   0.01267  Uiso   1.00
C500   C     0.86895   0.68884   0.64949   0.01267  Uiso   1.00
C501   C     0.21230   0.84137   0.41087   0.01267  Uiso   1.00
C502   C     0.15863   0.08913   0.28770   0.01267  Uiso   1.00
C503   C     0.27858   0.54228   0.17030   0.01267  Uiso   1.00
C504   C     0.93915   0.09065   0.30330   0.01267  Uiso   1.00
C505   C     0.13023   0.33288   0.50435   0.01267  Uiso   1.00
C506   C     0.47812   0.43698   0.21236   0.01267  Uiso   1.00
C507   C     0.28764   0.76576   0.72462   0.01267  Uiso   1.00
C508   C     0.28752   0.87485   0.69167   0.01267  Uiso   1.00
C509   C     0.27575   0.85195   0.20740   0.01267  Uiso   1.00
C510   C     0.17110   0.78150   0.08160   0.01267  Uiso   1.00
C511   C     0.93746   0.94545   0.67185   0.01267  Uiso   1.00
C512   C     0.78054   0.64949   0.96065   0.01267  Uiso   1.00
C513   C     0.27490   0.76210   0.60300   0.01267  Uiso   1.00
C514   C     0.40580   0.08980   0.80360   0.01267  Uiso   1.00
C515   C     0.81116   0.18011   0.46065   0.01267  Uiso   1.00
C516   C     0.87600   0.09130   0.31010   0.01267  Uiso   1.00
C517   C     0.21236   0.93698   0.47812   0.01267  Uiso   1.00
C518   C     0.59065   0.15150   0.28735   0.01267  Uiso   1.00
C519   C     0.78591   0.25215   0.81358   0.01267  Uiso   1.00
C520   C     0.91020   0.69640   0.09420   0.01267  Uiso   1.00
C521   C     0.92499   0.11243   0.73744   0.01267  Uiso   1.00
C522   C     0.78764   0.72462   0.76576   0.01267  Uiso   1.00
C523   C     0.18234   0.93659   0.42477   0.01267  Uiso   1.00
C524   C     0.68400   0.28620   0.08980   0.01267  Uiso   1.00
C525   C     0.76279   0.06746   0.35871   0.01267  Uiso   1.00
C526   C     0.20584   0.36065   0.32171   0.01267  Uiso   1.00
C527   C     0.29342   0.57253   0.68861   0.01267  Uiso   1.00
C528   C     0.09585   0.91267   0.28752   0.01267  Uiso   1.00
C529   C     0.45593   0.10510   0.74203   0.01267  Uiso   1.00
C530   C     0.64949   0.18884   0.86895   0.01267  Uiso   1.00
C531   C     0.37198   0.04228   0.76370   0.01267  Uiso   1.00
C532   C     0.85051   0.13105   0.81116   0.01267  Uiso   1.00
C533   C     0.60220   0.19640   0.28620   0.01267  Uiso   1.00
C534   C     0.43698   0.72462   0.95886   0.01267  Uiso   1.00
C535   C     0.35195   0.57620   0.14455   0.01267  Uiso   1.00
C536   C     0.36065   0.82171   0.70584   0.01267  Uiso   1.00
C537   C     0.81766   0.75425   0.74243   0.01267  Uiso   1.00
C538   C     0.87198   0.76370   0.04228   0.01267  Uiso   1.00
C539   C     0.76279   0.69533   0.90408   0.01267  Uiso   1.00
C540   C     0.93254   0.79125   0.69533   0.01267  Uiso   1.00
C541   C     0.72142   0.26370   0.39172   0.01267  Uiso   1.00
C542   C     0.27286   0.49503   0.06451   0.01267  Uiso   1.00
C543   C     0.31600   0.71380   0.91020   0.01267  Uiso   1.00
C544   C     0.95886   0.73424   0.02188   0.01267  Uiso   1.00
C545   C     0.79416   0.63935   0.67829   0.01267  Uiso   1.00
C546   C     0.06451   0.06948   0.29165   0.01267  Uiso   1.00
C547   C     0.84850   0.63585   0.43915   0.01267  Uiso   1.00
C548   C     0.71880   0.43410   0.81010   0.01267  Uiso   1.00
C549   C     0.63105   0.35051   0.31116   0.01267  Uiso   1.00
C550   C     0.06590   0.28470   0.87600   0.01267  Uiso   1.00
C551   C     0.24575   0.48818   0.06341   0.01267  Uiso   1.00
C552   C     0.05455   0.82815   0.56254   0.01267  Uiso   1.00
C553   C     0.16712   0.36977   0.99565   0.01267  Uiso   1.00
C554   C     0.54228   0.67030   0.77858   0.01267  Uiso   1.00
C555   C     0.91087   0.21230   0.34137   0.01267  Uiso   1.00
C556   C     0.09585   0.18318   0.30833   0.01267  Uiso   1.00
C557   C     0.58913   0.93050   0.30143   0.01267  Uiso   1.00
C558   C     0.19857   0.41087   0.56950   0.01267  Uiso   1.00
C559   C     0.21850   0.80010   0.38960   0.01267  Uiso   1.00
C560   C     0.03935   0.18884   0.31989   0.01267  Uiso   1.00
C561   C     0.15150   0.78735   0.09065   0.01267  Uiso   1.00
C562   C     0.73139   0.45937   0.39600   0.01267  Uiso   1.00
C563   C     0.89780   0.18400   0.59420   0.01267  Uiso   1.00
C564   C     0.78120   0.18990   0.56590   0.01267  Uiso   1.00
C565   C     0.10510   0.86307   0.64917   0.01267  Uiso   1.00
C566   C     0.81116   0.63105   0.85051   0.01267  Uiso   1.00
C567   C     0.72798   0.66461   0.76861   0.01267  Uiso   1.00
C568   C     0.26561   0.32815   0.27360   0.01267  Uiso   1.00
C569   C     0.11608   0.92747   0.22089   0.01267  Uiso   1.00
C570   C     0.34473   0.88012   0.20697   0.01267  Uiso   1.00
C571   C     0.31989   0.68884   0.03935   0.01267  Uiso   1.00
C572   C     0.98720   0.76210   0.15910   0.01267  Uiso   1.00
C573   C     0.62501   0.23744   0.81245   0.01267  Uiso   1.00
C574   C     0.46065   0.68011   0.81116   0.01267  Uiso   1.00
C575   C     0.73744   0.61243   0.92499   0.01267  Uiso   1.00
C576   C     0.39600   0.43663   0.16461   0.01267  Uiso   1.00
C577   C     0.43050   0.08913   0.80143   0.01267  Uiso   1.00
C578   C     0.06451   0.99503   0.27286   0.01267  Uiso   1.00
C579   C     0.73424   0.21236   0.77538   0.01267  Uiso   1.00
C580   C     0.43659   0.75425   0.01182   0.01267  Uiso   1.00
C581   C     0.60400   0.04063   0.26861   0.01267  Uiso   1.00
C582   C     0.02188   0.23424   0.95886   0.01267  Uiso   1.00
C583   C     0.12802   0.23630   0.95772   0.01267  Uiso   1.00
C584   C     0.70740   0.43165   0.85545   0.01267  Uiso   1.00
C585   C     0.32685   0.61988   0.96461   0.01267  Uiso   1.00
C586   C     0.95593   0.74203   0.10510   0.01267  Uiso   1.00
C587   C     0.43857   0.75215   0.96624   0.01267  Uiso   1.00
C588   C     0.56948   0.00497   0.27783   0.01267  Uiso   1.00
C589   C     0.68755   0.37499   0.26256   0.01267  Uiso   1.00
C590   C     0.93549   0.00497   0.72714   0.01267  Uiso   1.00
C591   C     0.53376   0.97233   0.28591   0.01267  Uiso   1.00
C592   C     0.20875   0.40408   0.14129   0.01267  Uiso   1.00
C593   C     0.76561   0.49201   0.93746   0.01267  Uiso   1.00
C594   C     0.65863   0.28770   0.08913   0.01267  Uiso   1.00
C595   C     0.38413   0.03894   0.67829   0.01267  Uiso   1.00
C596   C     0.99565   0.12588   0.32853   0.01267  Uiso   1.00
C597   C     0.81010   0.87600   0.59130   0.01267  Uiso   1.00
C598   C     0.17185   0.93746   0.44545   0.01267  Uiso   1.00
C599   C     0.57523   0.56341   0.81766   0.01267  Uiso   1.00
C600   C     0.07501   0.88757   0.26256   0.01267  Uiso   1.00
C601   C     0.84090   0.10300   0.32810   0.01267  Uiso   1.00
C602   C     0.13776   0.79303   0.67315   0.01267  Uiso   1.00
C603   C     0.22510   0.82810   0.48720   0.01267  Uiso   1.00
C604   C     0.24243   0.81766   0.25425   0.01267  Uiso   1.00
C605   C     0.93857   0.96624   0.75215   0.01267  Uiso   1.00
C606   C     0.07523   0.81766   0.56341   0.01267  Uiso   1.00
C607   C     0.74243   0.48818   0.42477   0.01267  Uiso   1.00
C608   C     0.79735   0.62588   0.63023   0.01267  Uiso   1.00
C609   C     0.58980   0.90580   0.30360   0.01267  Uiso   1.00
C610   C     0.14129   0.90408   0.20875   0.01267  Uiso   1.00
C611   C     0.04228   0.77858   0.67030   0.01267  Uiso   1.00
C612   C     0.18642   0.93857   0.47233   0.01267  Uiso   1.00
C613   C     0.65863   0.37093   0.06950   0.01267  Uiso   1.00
C614   C     0.29125   0.43254   0.19533   0.01267  Uiso   1.00
C615   C     0.68861   0.61608   0.89519   0.01267  Uiso   1.00
C616   C     0.34090   0.32810   0.10300   0.01267  Uiso   1.00
C617   C     0.93698   0.97812   0.71236   0.01267  Uiso   1.00
C618   C     0.26256   0.38757   0.07501   0.01267  Uiso   1.00
C619   C     0.12907   0.84137   0.43050   0.01267  Uiso   1.00
C620   C     0.27858   0.73630   0.60828   0.01267  Uiso   1.00
C621   C     0.61988   0.46461   0.82685   0.01267  Uiso   1.00
C622   C     0.79260   0.14455   0.56835   0.01267  Uiso   1.00
C623   C     0.72089   0.11608   0.42747   0.01267  Uiso   1.00
C624   C     0.56950   0.65863   0.87093   0.01267  Uiso   1.00
C625   C     0.13105   0.31116   0.35051   0.01267  Uiso   1.00
C626   C     0.32970   0.60828   0.87198   0.01267  Uiso   1.00
C627   C     0.24203   0.78610   0.13693   0.01267  Uiso   1.00
C628   C     0.68318   0.08733   0.37485   0.01267  Uiso   1.00
C629   C     0.28150   0.61040   0.19990   0.01267  Uiso   1.00
C630   C     0.82815   0.06254   0.55455   0.01267  Uiso   1.00
C631   C     0.82970   0.95772   0.72142   0.01267  Uiso   1.00
C632   C     0.79303   0.61988   0.65527   0.01267  Uiso   1.00
C633   C     0.77490   0.17190   0.51280   0.01267  Uiso   1.00
C634   C     0.07253   0.79342   0.18861   0.01267  Uiso   1.00
C635   C     0.06835   0.79260   0.64455   0.01267  Uiso   1.00
C636   C     0.49503   0.93052   0.22217   0.01267  Uiso   1.00
C637   C     0.83539   0.06337   0.60400   0.01267  Uiso   1.00
C638   C     0.88413   0.67829   0.03894   0.01267  Uiso   1.00
C639   C     0.02767   0.81358   0.56143   0.01267  Uiso   1.00
C640   C     0.21390   0.36307   0.25797   0.01267  Uiso   1.00
C641   C     0.20740   0.35195   0.27575   0.01267  Uiso   1.00
C642   C     0.63585   0.93915   0.34850   0.01267  Uiso   1.00
C643   C     0.21946   0.35051   0.03935   0.01267  Uiso   1.00
C644   C     0.61988   0.15527   0.29303   0.01267  Uiso   1.00
C645   C     0.85195   0.14455   0.57620   0.01267  Uiso   1.00
C646   C     0.25757   0.74575   0.18234   0.01267  Uiso   1.00
C647   C     0.18011   0.96065   0.31116   0.01267  Uiso   1.00
C648   C     0.21230   0.37093   0.30143   0.01267  Uiso   1.00
C649   C     0.23439   0.72640   0.67185   0.01267  Uiso   1.00
C650   C     0.18884   0.36895   0.14949   0.01267  Uiso   1.00
C651   C     0.28591   0.81358   0.25215   0.01267  Uiso   1.00
C652   C     0.93050   0.80143   0.08913   0.01267  Uiso   1.00
C653   C     0.19670   0.06085   0.40935   0.01267  Uiso   1.00
C654   C     0.43663   0.66461   0.89600   0.01267  Uiso   1.00
C655   C     0.50435   0.83288   0.13023   0.01267  Uiso   1.00
C656   C     0.78591   0.53376   0.47233   0.01267  Uiso   1.00
C657   C     0.43663   0.77202   0.04063   0.01267  Uiso   1.00
C658   C     0.62588   0.13023   0.29735   0.01267  Uiso   1.00
C659   C     0.87093   0.15863   0.56950   0.01267  Uiso   1.00
C660   C     0.72798   0.06337   0.45937   0.01267  Uiso   1.00
C661   C     0.56835   0.92380   0.27575   0.01267  Uiso   1.00
C662   C     0.13693   0.85083   0.39490   0.01267  Uiso   1.00
C663   C     0.56302   0.27538   0.04114   0.01267  Uiso   1.00
C664   C     0.79125   0.59592   0.85871   0.01267  Uiso   1.00
C665   C     0.60510   0.64917   0.86307   0.01267  Uiso   1.00
C666   C     0.37600   0.31010   0.09130   0.01267  Uiso   1.00
C667   C     0.21265   0.40935   0.34850   0.01267  Uiso   1.00
C668   C     0.08913   0.30143   0.93050   0.01267  Uiso   1.00
C669   C     0.69167   0.37485   0.28752   0.01267  Uiso   1.00
C670   C     0.28735   0.65150   0.59065   0.01267  Uiso   1.00
C671   C     0.29735   0.66712   0.17147   0.01267  Uiso   1.00
C672   C     0.23630   0.45772   0.62802   0.01267  Uiso   1.00
C673   C     0.21850   0.41840   0.32890   0.01267  Uiso   1.00
C674   C     0.04114   0.26576   0.97812   0.01267  Uiso   1.00
C675   C     0.62501   0.38757   0.31256   0.01267  Uiso   1.00
C676   C     0.17147   0.16712   0.29735   0.01267  Uiso   1.00
C677   C     0.59065   0.43915   0.80330   0.01267  Uiso   1.00
C678   C     0.76210   0.10300   0.77490   0.01267  Uiso   1.00
C679   C     0.71850   0.38960   0.80010   0.01267  Uiso   1.00
C680   C     0.73630   0.62802   0.45772   0.01267  Uiso   1.00
C681   C     0.46624   0.02767   0.71409   0.01267  Uiso   1.00
C682   C     0.43915   0.30330   0.09065   0.01267  Uiso   1.00
C683   C     0.15481   0.03894   0.36065   0.01267  Uiso   1.00
C684   C     0.07523   0.25757   0.01182   0.01267  Uiso   1.00
C685   C     0.59420   0.91020   0.19640   0.01267  Uiso   1.00
C686   C     0.93857   0.97233   0.68642   0.01267  Uiso   1.00
C687   C     0.20835   0.93549   0.43052   0.01267  Uiso   1.00
C688   C     0.17829   0.79416   0.13935   0.01267  Uiso   1.00
C689   C     0.90408   0.19533   0.76279   0.01267  Uiso   1.00
C690   C     0.18642   0.24785   0.21409   0.01267  Uiso   1.00
C691   C     0.85083   0.95593   0.71390   0.01267  Uiso   1.00
C692   C     0.88392   0.81139   0.60481   0.01267  Uiso   1.00
C693   C     0.34137   0.62907   0.93050   0.01267  Uiso   1.00
C694   C     0.79735   0.17147   0.66712   0.01267  Uiso   1.00
C695   C     0.56590   0.87600   0.28470   0.01267  Uiso   1.00
C696   C     0.56254   0.32815   0.05455   0.01267  Uiso   1.00
C697   C     0.83539   0.77202   0.73139   0.01267  Uiso   1.00
C698   C     0.26861   0.72798   0.16461   0.01267  Uiso   1.00
C699   C     0.64805   0.22425   0.29260   0.01267  Uiso   1.00
C700   C     0.03935   0.85051   0.21946   0.01267  Uiso   1.00
C701   C     0.25797   0.39490   0.54407   0.01267  Uiso   1.00
C702   C     0.76576   0.54114   0.47812   0.01267  Uiso   1.00
C703   C     0.26256   0.87499   0.68755   0.01267  Uiso   1.00
C704   C     0.31256   0.42499   0.18755   0.01267  Uiso   1.00
C705   C     0.82890   0.61040   0.41050   0.01267  Uiso   1.00
C706   C     0.77575   0.56835   0.42380   0.01267  Uiso   1.00
C707   C     0.77286   0.06451   0.49503   0.01267  Uiso   1.00
C708   C     0.46461   0.13776   0.84473   0.01267  Uiso   1.00
C709   C     0.28610   0.54407   0.14917   0.01267  Uiso   1.00
C710   C     0.19167   0.90415   0.31682   0.01267  Uiso   1.00
C711   C     0.81010   0.93410   0.71880   0.01267  Uiso   1.00
C712   C     0.30330   0.59065   0.93915   0.01267  Uiso   1.00
C713   C     0.70658   0.42747   0.31139   0.01267  Uiso   1.00
C714   C     0.64455   0.29260   0.06835   0.01267  Uiso   1.00
C715   C     0.01280   0.23790   0.84090   0.01267  Uiso   1.00
C716   C     0.19990   0.08950   0.41840   0.01267  Uiso   1.00
C717   C     0.15481   0.11587   0.29416   0.01267  Uiso   1.00
C718   C     0.64455   0.35195   0.07620   0.01267  Uiso   1.00
C719   C     0.17147   0.00435   0.37412   0.01267  Uiso   1.00
C720   C     0.79303   0.17315   0.63776   0.01267  Uiso   1.00
C721   C     0.23424   0.77538   0.21236   0.01267  Uiso   1.00
C722   C     0.21530   0.43410   0.62400   0.01267  Uiso   1.00
C723   C     0.72142   0.45772   0.82970   0.01267  Uiso   1.00
C724   C     0.77202   0.23139   0.33539   0.01267  Uiso   1.00
C725   C     0.07620   0.22425   0.93165   0.01267  Uiso   1.00
C726   C     0.14805   0.29260   0.22425   0.01267  Uiso   1.00
C727   C     0.39519   0.70658   0.77911   0.01267  Uiso   1.00
C728   C     0.49565   0.32853   0.12588   0.01267  Uiso   1.00
C729   C     0.63585   0.69670   0.78735   0.01267  Uiso   1.00
C730   C     0.38960   0.30010   0.21850   0.01267  Uiso   1.00
C731   C     0.77575   0.20740   0.85195   0.01267  Uiso   1.00
C732   C     0.22462   0.28764   0.26576   0.01267  Uiso   1.00
C733   C     0.53376   0.56143   0.74785   0.01267  Uiso   1.00
C734   C     0.74203   0.60510   0.45593   0.01267  Uiso   1.00
C735   C     0.89519   0.11608   0.68861   0.01267  Uiso   1.00
C736   C     0.36224   0.32685   0.20697   0.01267  Uiso   1.00
C737   C     0.35545   0.64805   0.92380   0.01267  Uiso   1.00
C738   C     0.68642   0.21409   0.24785   0.01267  Uiso   1.00
C739   C     0.08980   0.78620   0.68400   0.01267  Uiso   1.00
C740   C     0.79342   0.10481   0.72089   0.01267  Uiso   1.00
C741   C     0.31358   0.78591   0.75215   0.01267  Uiso   1.00
C742   C     0.93746   0.99201   0.76561   0.01267  Uiso   1.00
C743   C     0.96065   0.14949   0.78054   0.01267  Uiso   1.00
C744   C     0.68744   0.11243   0.37499   0.01267  Uiso   1.00
C745   C     0.88960   0.67110   0.08950   0.01267  Uiso   1.00
C746   C     0.70835   0.27783   0.27286   0.01267  Uiso   1.00
C747   C     0.67190   0.39700   0.15910   0.01267  Uiso   1.00
C748   C     0.20584   0.84519   0.38413   0.01267  Uiso   1.00
C749   C     0.12588   0.29735   0.13023   0.01267  Uiso   1.00
C750   C     0.86065   0.15481   0.53894   0.01267  Uiso   1.00
C751   C     0.96624   0.25215   0.43857   0.01267  Uiso   1.00
C752   C     0.26279   0.35871   0.06746   0.01267  Uiso   1.00
C753   C     0.01182   0.75757   0.07523   0.01267  Uiso   1.00
C754   C     0.22510   0.39700   0.23790   0.01267  Uiso   1.00
C755   C     0.06948   0.79165   0.56451   0.01267  Uiso   1.00
C756   C     0.19990   0.11040   0.28150   0.01267  Uiso   1.00
C757   C     0.04114   0.77538   0.56302   0.01267  Uiso   1.00
C758   C     0.89172   0.72142   0.76370   0.01267  Uiso   1.00
C759   C     0.37499   0.61243   0.68744   0.01267  Uiso   1.00
C760   C     0.39490   0.04407   0.75797   0.01267  Uiso   1.00
C761   C     0.42477   0.43659   0.18234   0.01267  Uiso   1.00
C762   C     0.42499   0.73744   0.11243   0.01267  Uiso   1.00
C763   C     0.71380   0.41020   0.81600   0.01267  Uiso   1.00
C764   C     0.28054   0.96065   0.64949   0.01267  Uiso   1.00
C765   C     0.68642   0.47233   0.93857   0.01267  Uiso   1.00
C766   C     0.54114   0.97812   0.26576   0.01267  Uiso   1.00
C767   C     0.70875   0.56746   0.80467   0.01267  Uiso   1.00
C768   C     0.18744   0.37499   0.11243   0.01267  Uiso   1.00
C769   C     0.27286   0.77783   0.70835   0.01267  Uiso   1.00
C770   C     0.06337   0.10400   0.33539   0.01267  Uiso   1.00
C771   C     0.63693   0.39490   0.85083   0.01267  Uiso   1.00
C772   C     0.30330   0.71265   0.86415   0.01267  Uiso   1.00
C773   C     0.99201   0.72640   0.05455   0.01267  Uiso   1.00
C774   C     0.75425   0.51182   0.93659   0.01267  Uiso   1.00
C775   C     0.41020   0.09420   0.69640   0.01267  Uiso   1.00
C776   C     0.65481   0.29416   0.11587   0.01267  Uiso   1.00
C777   C     0.23439   0.50799   0.06254   0.01267  Uiso   1.00
C778   C     0.60220   0.40580   0.81600   0.01267  Uiso   1.00
C779   C     0.43410   0.31010   0.21880   0.01267  Uiso   1.00
C780   C     0.30833   0.68318   0.09585   0.01267  Uiso   1.00
C781   C     0.68318   0.59585   0.80833   0.01267  Uiso   1.00
C782   C     0.68755   0.31256   0.92499   0.01267  Uiso   1.00
C783   C     0.06143   0.02767   0.31358   0.01267  Uiso   1.00
C784   C     0.20835   0.27286   0.27783   0.01267  Uiso   1.00
C785   C     0.77911   0.57253   0.88392   0.01267  Uiso   1.00
C786   C     0.27911   0.39519   0.20658   0.01267  Uiso   1.00
C787   C     0.56143   0.24785   0.03376   0.01267  Uiso   1.00
C788   C     0.94545   0.17185   0.43746   0.01267  Uiso   1.00
C789   C     0.78752   0.09585   0.41267   0.01267  Uiso   1.00
C790   C     0.27202   0.93663   0.54063   0.01267  Uiso   1.00
C791   C     0.41020   0.31600   0.21380   0.01267  Uiso   1.00
C792   C     0.87412   0.70265   0.86977   0.01267  Uiso   1.00
C793   C     0.96106   0.82171   0.11587   0.01267  Uiso   1.00
C794   C     0.36224   0.03539   0.65527   0.01267  Uiso   1.00
C795   C     0.23721   0.30467   0.09592   0.01267  Uiso   1.00
C796   C     0.27575   0.42380   0.56835   0.01267  Uiso   1.00
C797   C     0.61040   0.91050   0.32890   0.01267  Uiso   1.00
C798   C     0.58913   0.65863   0.78770   0.01267  Uiso   1.00
C799   C     0.33539   0.73139   0.77202   0.01267  Uiso   1.00
C800   C     0.19167   0.28752   0.37485   0.01267  Uiso   1.00
C801   C     0.59420   0.68400   0.89780   0.01267  Uiso   1.00
C802   C     0.87600   0.78470   0.06590   0.01267  Uiso   1.00
C803   C     0.32853   0.70265   0.83288   0.01267  Uiso   1.00
C804   C     0.23139   0.83539   0.27202   0.01267  Uiso   1.00
C805   C     0.08950   0.91840   0.69990   0.01267  Uiso   1.00
C806   C     0.10481   0.88392   0.31139   0.01267  Uiso   1.00
C807   C     0.57253   0.18861   0.79342   0.01267  Uiso   1.00
C808   C     0.26210   0.48720   0.65910   0.01267  Uiso   1.00
C809   C     0.32853   0.62588   0.99565   0.01267  Uiso   1.00
C810   C     0.73630   0.10828   0.77858   0.01267  Uiso   1.00
C811   C     0.99503   0.77286   0.56451   0.01267  Uiso   1.00
C812   C     0.60481   0.29342   0.22089   0.01267  Uiso   1.00
C813   C     0.85545   0.92380   0.64805   0.01267  Uiso   1.00
C814   C     0.04228   0.26370   0.87198   0.01267  Uiso   1.00
C815   C     0.31116   0.46065   0.18011   0.01267  Uiso   1.00
C816   C     0.27783   0.77286   0.20835   0.01267  Uiso   1.00
C817   C     0.39172   0.62802   0.17030   0.01267  Uiso   1.00
C818   C     0.80360   0.21380   0.89780   0.01267  Uiso   1.00
C819   C     0.93659   0.01182   0.75425   0.01267  Uiso   1.00
C820   C     0.67190   0.27490   0.01280   0.01267  Uiso   1.00
C821   C     0.45593   0.35083   0.21390   0.01267  Uiso   1.00
C822   C     0.37600   0.06590   0.78470   0.01267  Uiso   1.00
C823   C     0.54063   0.10400   0.76861   0.01267  Uiso   1.00
C824   C     0.75797   0.21390   0.86307   0.01267  Uiso   1.00
C825   C     0.67030   0.39172   0.12802   0.01267  Uiso   1.00
C826   C     0.27360   0.44545   0.50799   0.01267  Uiso   1.00
C827   C     0.56746   0.26279   0.85871   0.01267  Uiso   1.00
C828   C     0.27911   0.88392   0.57253   0.01267  Uiso   1.00
C829   C     0.76256   0.68755   0.87499   0.01267  Uiso   1.00
C830   C     0.29303   0.65527   0.61988   0.01267  Uiso   1.00
C831   C     0.69990   0.28150   0.11040   0.01267  Uiso   1.00
C832   C     0.76861   0.16461   0.72798   0.01267  Uiso   1.00
C833   C     0.58733   0.18318   0.87485   0.01267  Uiso   1.00
C834   C     0.58733   0.40415   0.21248   0.01267  Uiso   1.00
C835   C     0.09130   0.81010   0.37600   0.01267  Uiso   1.00
C836   C     0.22714   0.93549   0.50497   0.01267  Uiso   1.00
C837   C     0.72462   0.26576   0.28764   0.01267  Uiso   1.00
C838   C     0.13023   0.79735   0.12588   0.01267  Uiso   1.00
C839   C     0.36977   0.49565   0.66712   0.01267  Uiso   1.00
C840   C     0.82853   0.99565   0.62588   0.01267  Uiso   1.00
C841   C     0.17185   0.23439   0.22640   0.01267  Uiso   1.00
C842   C     0.72510   0.48720   0.82810   0.01267  Uiso   1.00
C843   C     0.71236   0.47812   0.93698   0.01267  Uiso   1.00
C844   C     0.85871   0.09592   0.79125   0.01267  Uiso   1.00
C845   C     0.31989   0.63105   0.78054   0.01267  Uiso   1.00
C846   C     0.67030   0.27858   0.04228   0.01267  Uiso   1.00
C847   C     0.62907   0.43050   0.84137   0.01267  Uiso   1.00
C848   C     0.78150   0.19990   0.61040   0.01267  Uiso   1.00
C849   C     0.91050   0.82890   0.11040   0.01267  Uiso   1.00
C850   C     0.86415   0.21265   0.30330   0.01267  Uiso   1.00
C851   C     0.12802   0.89172   0.67030   0.01267  Uiso   1.00
C852   C     0.65527   0.11988   0.79303   0.01267  Uiso   1.00
C853   C     0.89519   0.77911   0.70658   0.01267  Uiso   1.00
C854   C     0.37093   0.80143   0.71230   0.01267  Uiso   1.00
C855   C     0.23630   0.77858   0.10828   0.01267  Uiso   1.00
C856   C     0.18744   0.81245   0.57501   0.01267  Uiso   1.00
C857   C     0.00497   0.22714   0.43549   0.01267  Uiso   1.00
C858   C     0.27490   0.51280   0.17190   0.01267  Uiso   1.00
C859   C     0.04063   0.76861   0.10400   0.01267  Uiso   1.00
C860   C     0.67110   0.08160   0.78150   0.01267  Uiso   1.00
C861   C     0.84850   0.21265   0.90935   0.01267  Uiso   1.00
C862   C     0.93052   0.20835   0.43549   0.01267  Uiso   1.00
C863   C     0.22425   0.79260   0.14805   0.01267  Uiso   1.00
C864   C     0.38413   0.34519   0.20584   0.01267  Uiso   1.00
C865   C     0.82171   0.20584   0.86065   0.01267  Uiso   1.00
C866   C     0.71409   0.18642   0.74785   0.01267  Uiso   1.00
C867   C     0.48720   0.32810   0.22510   0.01267  Uiso   1.00
C868   C     0.56302   0.28764   0.02188   0.01267  Uiso   1.00
C869   C     0.54228   0.87198   0.26370   0.01267  Uiso   1.00
C870   C     0.63693   0.24203   0.28610   0.01267  Uiso   1.00
C871   C     0.87485   0.68318   0.58733   0.01267  Uiso   1.00
C872   C     0.77286   0.70835   0.77783   0.01267  Uiso   1.00
C873   C     0.27202   0.33539   0.23139   0.01267  Uiso   1.00
C874   C     0.37198   0.32970   0.10828   0.01267  Uiso   1.00
C875   C     0.59585   0.28752   0.91267   0.01267  Uiso   1.00
C876   C     0.34137   0.71230   0.91087   0.01267  Uiso   1.00
C877   C     0.93050   0.12907   0.34137   0.01267  Uiso   1.00
C878   C     0.30467   0.59592   0.73721   0.01267  Uiso   1.00
C879   C     0.23790   0.89700   0.22510   0.01267  Uiso   1.00
C880   C     0.71946   0.68011   0.86895   0.01267  Uiso   1.00
C881   C     0.29125   0.85871   0.59592   0.01267  Uiso   1.00
C882   C     0.35083   0.63693   0.89490   0.01267  Uiso   1.00
C883   C     0.40935   0.84850   0.71265   0.01267  Uiso   1.00
C884   C     0.65150   0.09065   0.78735   0.01267  Uiso   1.00
C885   C     0.93254   0.14129   0.73721   0.01267  Uiso   1.00
C886   C     0.79260   0.64805   0.72425   0.01267  Uiso   1.00
C887   C     0.46065   0.78054   0.14949   0.01267  Uiso   1.00
C888   C     0.22714   0.29165   0.22217   0.01267  Uiso   1.00
C889   C     0.69857   0.12907   0.78770   0.01267  Uiso   1.00
C890   C     0.49503   0.56451   0.77286   0.01267  Uiso   1.00
C891   C     0.81256   0.62501   0.88757   0.01267  Uiso   1.00
C892   C     0.88012   0.70697   0.84473   0.01267  Uiso   1.00
C893   C     0.68990   0.28120   0.06590   0.01267  Uiso   1.00
C894   C     0.78620   0.18400   0.58980   0.01267  Uiso   1.00
C895   C     0.81766   0.06341   0.57523   0.01267  Uiso   1.00
C896   C     0.81256   0.18755   0.42499   0.01267  Uiso   1.00
C897   C     0.78150   0.58160   0.67110   0.01267  Uiso   1.00
C898   C     0.28620   0.58980   0.18400   0.01267  Uiso   1.00
C899   C     0.90408   0.70875   0.64129   0.01267  Uiso   1.00
C900   C     0.68400   0.39780   0.09420   0.01267  Uiso   1.00
C901   C     0.88960   0.21850   0.30010   0.01267  Uiso   1.00
C902   C     0.15910   0.26210   0.98720   0.01267  Uiso   1.00
C903   C     0.76861   0.60400   0.54063   0.01267  Uiso   1.00
C904   C     0.90580   0.80360   0.08980   0.01267  Uiso   1.00
C905   C     0.93659   0.92477   0.68234   0.01267  Uiso   1.00
C906   C     0.71230   0.30143   0.37093   0.01267  Uiso   1.00
C907   C     0.64129   0.20875   0.90408   0.01267  Uiso   1.00
C908   C     0.33539   0.60400   0.06337   0.01267  Uiso   1.00
C909   C     0.58950   0.88960   0.17110   0.01267  Uiso   1.00
C910   C     0.72714   0.22217   0.29165   0.01267  Uiso   1.00
C911   C     0.68884   0.53935   0.81989   0.01267  Uiso   1.00
C912   C     0.67147   0.37412   0.00435   0.01267  Uiso   1.00
C913   C     0.03376   0.28591   0.97233   0.01267  Uiso   1.00
C914   C     0.77858   0.17030   0.54228   0.01267  Uiso   1.00
C915   C     0.93410   0.71530   0.12400   0.01267  Uiso   1.00
C916   C     0.73439   0.67185   0.72640   0.01267  Uiso   1.00
C917   C     0.80010   0.88960   0.71850   0.01267  Uiso   1.00
C918   C     0.82890   0.21850   0.91840   0.01267  Uiso   1.00
C919   C     0.70697   0.36224   0.82685   0.01267  Uiso   1.00
C920   C     0.11988   0.29303   0.15527   0.01267  Uiso   1.00
C921   C     0.06950   0.19857   0.91087   0.01267  Uiso   1.00
C922   C     0.92477   0.18234   0.43659   0.01267  Uiso   1.00
C923   C     0.56337   0.33539   0.10400   0.01267  Uiso   1.00
C924   C     0.95937   0.72798   0.56337   0.01267  Uiso   1.00
C925   C     0.28470   0.90870   0.21880   0.01267  Uiso   1.00
C926   C     0.84519   0.88413   0.70584   0.01267  Uiso   1.00
C927   C     0.24575   0.75757   0.68234   0.01267  Uiso   1.00
C928   C     0.62907   0.19857   0.28770   0.01267  Uiso   1.00
C929   C     0.60828   0.37198   0.82970   0.01267  Uiso   1.00
C930   C     0.72510   0.23790   0.39700   0.01267  Uiso   1.00
C931   C     0.31245   0.68744   0.07501   0.01267  Uiso   1.00
C932   C     0.56254   0.23439   0.00799   0.01267  Uiso   1.00
C933   C     0.38392   0.77911   0.07253   0.01267  Uiso   1.00
C934   C     0.09065   0.28735   0.15150   0.01267  Uiso   1.00
C935   C     0.74785   0.06143   0.53376   0.01267  Uiso   1.00
C936   C     0.67315   0.29303   0.13776   0.01267  Uiso   1.00
C937   C     0.49565   0.16712   0.86977   0.01267  Uiso   1.00
C938   C     0.58950   0.69990   0.91840   0.01267  Uiso   1.00
C939   C     0.99503   0.22217   0.93052   0.01267  Uiso   1.00
C940   C     0.89490   0.75797   0.04407   0.01267  Uiso   1.00
C941   C     0.19640   0.41020   0.59420   0.01267  Uiso   1.00
C942   C     0.24785   0.71409   0.68642   0.01267  Uiso   1.00
C943   C     0.77538   0.71236   0.73424   0.01267  Uiso   1.00
C944   C     0.29416   0.61587   0.15481   0.01267  Uiso   1.00
C945   C     0.81989   0.03935   0.68884   0.01267  Uiso   1.00
C946   C     0.12515   0.80833   0.21248   0.01267  Uiso   1.00
C947   C     0.12588   0.82853   0.49565   0.01267  Uiso   1.00
C948   C     0.13105   0.81989   0.28054   0.01267  Uiso   1.00
C949   C     0.48720   0.15910   0.76210   0.01267  Uiso   1.00
C950   C     0.44545   0.00799   0.77360   0.01267  Uiso   1.00
C951   C     0.09592   0.29125   0.35871   0.01267  Uiso   1.00
C952   C     0.70658   0.27911   0.89519   0.01267  Uiso   1.00
C953   C     0.28591   0.47233   0.53376   0.01267  Uiso   1.00
C954   C     0.90935   0.71265   0.84850   0.01267  Uiso   1.00
C955   C     0.32810   0.60300   0.84090   0.01267  Uiso   1.00
C956   C     0.82171   0.61587   0.46106   0.01267  Uiso   1.00
C957   C     0.43857   0.68642   0.97233   0.01267  Uiso   1.00
C958   C     0.80833   0.09585   0.68318   0.01267  Uiso   1.00
C959   C     0.76370   0.54228   0.37198   0.01267  Uiso   1.00
C960   C     0.43915   0.13585   0.84850   0.01267  Uiso   1.00
C961   C     0.73790   0.51280   0.34090   0.01267  Uiso   1.00
C962   C     0.88012   0.17315   0.53539   0.01267  Uiso   1.00
C963   C     0.11243   0.87499   0.18744   0.01267  Uiso   1.00
C964   C     0.31116   0.85051   0.63105   0.01267  Uiso   1.00
C965   C     0.81989   0.78054   0.63105   0.01267  Uiso   1.00
C966   C     0.77360   0.26561   0.82815   0.01267  Uiso   1.00
C967   C     0.77490   0.60300   0.76210   0.01267  Uiso   1.00
C968   C     0.76370   0.22142   0.89172   0.01267  Uiso   1.00
C969   C     0.98818   0.24243   0.92477   0.01267  Uiso   1.00
C970   C     0.67829   0.13935   0.79416   0.01267  Uiso   1.00
C971   C     0.95772   0.22142   0.32970   0.01267  Uiso   1.00
C972   C     0.13935   0.29416   0.17829   0.01267  Uiso   1.00
C973   C     0.52188   0.95886   0.23424   0.01267  Uiso   1.00
C974   C     0.61608   0.22089   0.92747   0.01267  Uiso   1.00
C975   C     0.81600   0.90580   0.60220   0.01267  Uiso   1.00
C976   C     0.56451   0.27286   0.99503   0.01267  Uiso   1.00
C977   C     0.39780   0.59420   0.18400   0.01267  Uiso   1.00
C978   C     0.77911   0.20658   0.39519   0.01267  Uiso   1.00
C979   C     0.03894   0.17829   0.88413   0.01267  Uiso   1.00
C980   C     0.06143   0.03376   0.24785   0.01267  Uiso   1.00
C981   C     0.79416   0.15481   0.61587   0.01267  Uiso   1.00
C982   C     0.91267   0.78752   0.59585   0.01267  Uiso   1.00
C983   C     0.88413   0.20584   0.34519   0.01267  Uiso   1.00
C984   C     0.19857   0.78770   0.12907   0.01267  Uiso   1.00
C985   C     0.80467   0.73721   0.59592   0.01267  Uiso   1.00
C986   C     0.62588   0.49565   0.82853   0.01267  Uiso   1.00
C987   C     0.20265   0.37412   0.36977   0.01267  Uiso   1.00
C988   C     0.39490   0.35083   0.13693   0.01267  Uiso   1.00
C989   C     0.56590   0.68990   0.78120   0.01267  Uiso   1.00
C990   C     0.80360   0.58980   0.40580   0.01267  Uiso   1.00
C991   C     0.86415   0.65150   0.06085   0.01267  Uiso   1.00
C992   C     0.34519   0.63935   0.96106   0.01267  Uiso   1.00
C993   C     0.17315   0.13776   0.29303   0.01267  Uiso   1.00
C994   C     0.93165   0.20740   0.35545   0.01267  Uiso   1.00
C995   C     0.11988   0.82685   0.46461   0.01267  Uiso   1.00
C996   C     0.21390   0.85083   0.45593   0.01267  Uiso   1.00
C997   C     0.97812   0.76576   0.04114   0.01267  Uiso   1.00
C998   C     0.68011   0.31116   0.96065   0.01267  Uiso   1.00
C999   C     0.70835   0.43052   0.93549   0.01267  Uiso   1.00
C1000  C     0.21380   0.81600   0.41020   0.01267  Uiso   1.00
C1001  C     0.31682   0.91267   0.62515   0.01267  Uiso   1.00
C1002  C     0.39519   0.68861   0.11608   0.01267  Uiso   1.00
C1003  C     0.43746   0.76561   0.99201   0.01267  Uiso   1.00
C1004  C     0.73439   0.06254   0.50799   0.01267  Uiso   1.00
C1005  C     0.10220   0.28620   0.19640   0.01267  Uiso   1.00
C1006  C     0.18861   0.29342   0.07253   0.01267  Uiso   1.00
C1007  C     0.28770   0.58913   0.15863   0.01267  Uiso   1.00
C1008  C     0.99565   0.86977   0.16712   0.01267  Uiso   1.00
C1009  C     0.97233   0.18642   0.43857   0.01267  Uiso   1.00
C1010  C     0.20658   0.89519   0.27911   0.01267  Uiso   1.00
C1011  C     0.12515   0.31682   0.41267   0.01267  Uiso   1.00
C1012  C     0.26279   0.90408   0.69533   0.01267  Uiso   1.00
C1013  C     0.77783   0.20835   0.77286   0.01267  Uiso   1.00
C1014  C     0.36307   0.60510   0.14917   0.01267  Uiso   1.00
C1015  C     0.20740   0.85545   0.43165   0.01267  Uiso   1.00
C1016  C     0.58980   0.68400   0.78620   0.01267  Uiso   1.00
C1017  C     0.64917   0.36307   0.10510   0.01267  Uiso   1.00
C1018  C     0.71248   0.12515   0.30833   0.01267  Uiso   1.00
C1019  C     0.20875   0.80467   0.56746   0.01267  Uiso   1.00
C1020  C     0.00799   0.73439   0.56254   0.01267  Uiso   1.00
C1021  C     0.06950   0.87093   0.65863   0.01267  Uiso   1.00
C1022  C     0.91050   0.08160   0.30010   0.01267  Uiso   1.00
C1023  C     0.12501   0.81245   0.23744   0.01267  Uiso   1.00
C1024  C     0.89490   0.13693   0.35083   0.01267  Uiso   1.00
C1025  C     0.60300   0.26210   0.27490   0.01267  Uiso   1.00
C1026  C     0.37499   0.76256   0.18755   0.01267  Uiso   1.00
C1027  C     0.03894   0.86065   0.65481   0.01267  Uiso   1.00
C1028  C     0.43698   0.71236   0.97812   0.01267  Uiso   1.00
C1029  C     0.91087   0.69857   0.06950   0.01267  Uiso   1.00
C1030  C     0.57501   0.31245   0.18744   0.01267  Uiso   1.00
C1031  C     0.90935   0.19670   0.56085   0.01267  Uiso   1.00
C1032  C     0.36307   0.75797   0.71390   0.01267  Uiso   1.00
C1033  C     0.45886   0.02188   0.73424   0.01267  Uiso   1.00
C1034  C     0.75797   0.54407   0.39490   0.01267  Uiso   1.00
C1035  C     0.45937   0.56337   0.72798   0.01267  Uiso   1.00
C1036  C     0.46106   0.34519   0.13935   0.01267  Uiso   1.00
C1037  C     0.34090   0.01280   0.73790   0.01267  Uiso   1.00
C1038  C     0.21880   0.81010   0.43410   0.01267  Uiso   1.00
C1039  C     0.26576   0.47812   0.54114   0.01267  Uiso   1.00
C1040  C     0.18990   0.12400   0.40870   0.01267  Uiso   1.00
C1041  C     0.78470   0.56590   0.37600   0.01267  Uiso   1.00
C1042  C     0.39172   0.76370   0.72142   0.01267  Uiso   1.00
C1043  C     0.57620   0.64455   0.85195   0.01267  Uiso   1.00
C1044  C     0.59130   0.37600   0.81010   0.01267  Uiso   1.00
C1045  C     0.47233   0.03376   0.78591   0.01267  Uiso   1.00
C1046  C     0.44545   0.43746   0.17185   0.01267  Uiso   1.00
C1047  C     0.41267   0.59585   0.78752   0.01267  Uiso   1.00
C1048  C     0.52767   0.56143   0.81358   0.01267  Uiso   1.00
C1049  C     0.12400   0.21530   0.93410   0.01267  Uiso   1.00
C1050  C     0.41087   0.34137   0.21230   0.01267  Uiso   1.00
C1051  C     0.39700   0.65910   0.17190   0.01267  Uiso   1.00
C1052  C     0.36895   0.71946   0.18011   0.01267  Uiso   1.00
C1053  C     0.21265   0.80330   0.36415   0.01267  Uiso   1.00
C1054  C     0.33288   0.32853   0.20265   0.01267  Uiso   1.00
C1055  C     0.85083   0.89490   0.63693   0.01267  Uiso   1.00
C1056  C     0.06746   0.20875   0.30467   0.01267  Uiso   1.00
C1057  C     0.71248   0.58733   0.90415   0.01267  Uiso   1.00
C1058  C     0.14949   0.28054   0.46065   0.01267  Uiso   1.00
C1059  C     0.30467   0.70875   0.06746   0.01267  Uiso   1.00
C1060  C     0.55455   0.99201   0.22640   0.01267  Uiso   1.00
C1061  C     0.34850   0.90935   0.21265   0.01267  Uiso   1.00
C1062  C     0.71265   0.34850   0.40935   0.01267  Uiso   1.00
C1063  C     0.91267   0.12515   0.81682   0.01267  Uiso   1.00
C1064  C     0.52188   0.56302   0.78764   0.01267  Uiso   1.00
C1065  C     0.35083   0.71390   0.95593   0.01267  Uiso   1.00
C1066  C     0.98720   0.22510   0.32810   0.01267  Uiso   1.00
C1067  C     0.31010   0.59130   0.87600   0.01267  Uiso   1.00
C1068  C     0.00799   0.27360   0.94545   0.01267  Uiso   1.00
C1069  C     0.71230   0.41087   0.84137   0.01267  Uiso   1.00
C1070  C     0.41267   0.81682   0.12515   0.01267  Uiso   1.00
C1071  C     0.95886   0.22462   0.43698   0.01267  Uiso   1.00
C1072  C     0.11040   0.32890   0.91050   0.01267  Uiso   1.00
C1073  C     0.71265   0.36415   0.80330   0.01267  Uiso   1.00
C1074  C     0.72640   0.55455   0.49201   0.01267  Uiso   1.00
C1075  C     0.72714   0.50497   0.93549   0.01267  Uiso   1.00
C1076  C     0.65481   0.36065   0.03894   0.01267  Uiso   1.00
C1077  C     0.31010   0.71880   0.93410   0.01267  Uiso   1.00
C1078  C     0.46624   0.43857   0.25215   0.01267  Uiso   1.00
C1079  C     0.31682   0.40415   0.19167   0.01267  Uiso   1.00
C1080  C     0.53894   0.88413   0.17829   0.01267  Uiso   1.00
C1081  C     0.53935   0.21946   0.85051   0.01267  Uiso   1.00
C1082  C     0.72425   0.14805   0.79260   0.01267  Uiso   1.00
C1083  C     0.18011   0.21946   0.36895   0.01267  Uiso   1.00
C1084  C     0.15527   0.79303   0.11988   0.01267  Uiso   1.00
C1085  C     0.83288   0.63023   0.00435   0.01267  Uiso   1.00
C1086  C     0.56341   0.24575   0.98818   0.01267  Uiso   1.00
C1087  C     0.66461   0.26861   0.22798   0.01267  Uiso   1.00
C1088  C     0.65910   0.67190   0.89700   0.01267  Uiso   1.00
C1089  C     0.84137   0.91087   0.71230   0.01267  Uiso   1.00
C1090  C     0.84473   0.63776   0.46461   0.01267  Uiso   1.00
C1091  C     0.41087   0.06950   0.69857   0.01267  Uiso   1.00
C1092  C     0.26576   0.78764   0.22462   0.01267  Uiso   1.00
C1093  C     0.71390   0.45593   0.85083   0.01267  Uiso   1.00
C1094  C     0.31139   0.92747   0.70658   0.01267  Uiso   1.00
C1095  C     0.30010   0.58160   0.91050   0.01267  Uiso   1.00
C1096  C     0.67110   0.58950   0.38960   0.01267  Uiso   1.00
C1097  C     0.56746   0.30467   0.20875   0.01267  Uiso   1.00
C1098  C     0.17190   0.01280   0.27490   0.01267  Uiso   1.00
C1099  C     0.18234   0.24575   0.25757   0.01267  Uiso   1.00
C1100  C     0.69167   0.31682   0.90415   0.01267  Uiso   1.00
C1101  C     0.56950   0.91087   0.19857   0.01267  Uiso   1.00
C1102  C     0.42477   0.98818   0.74243   0.01267  Uiso   1.00
C1103  C     0.74575   0.68234   0.75757   0.01267  Uiso   1.00
C1104  C     0.06085   0.15150   0.86415   0.01267  Uiso   1.00
N1     N     0.44466   0.76651   0.11875   0.01267  Uiso   1.00
N2     N     0.88691   0.08911   0.68618   0.01267  Uiso   1.00
N3     N     0.89693   0.05975   0.71010   0.01267  Uiso   1.00
N4     N     0.38691   0.70073   0.79780   0.01267  Uiso   1.00
N5     N     0.82185   0.76651   0.64776   0.01267  Uiso   1.00
N6     N     0.23349   0.85224   0.67815   0.01267  Uiso   1.00
N7     N     0.32185   0.67409   0.05534   0.01267  Uiso   1.00
N8     N     0.30987   0.60115   0.76512   0.01267  Uiso   1.00
N9     N     0.64414   0.22566   0.93132   0.01267  Uiso   1.00
N10    N     0.80987   0.04475   0.70872   0.01267  Uiso   1.00
N11    N     0.29128   0.83603   0.60115   0.01267  Uiso   1.00
N12    N     0.90293   0.70220   0.58911   0.01267  Uiso   1.00
N13    N     0.77434   0.56868   0.85586   0.01267  Uiso   1.00
N14    N     0.18683   0.28990   0.34965   0.01267  Uiso   1.00
N15    N     0.82591   0.64776   0.88125   0.01267  Uiso   1.00
N16    N     0.44025   0.60307   0.78990   0.01267  Uiso   1.00
N17    N     0.35224   0.73349   0.17815   0.01267  Uiso   1.00
N18    N     0.41089   0.79780   0.09707   0.01267  Uiso   1.00
N19    N     0.76512   0.66397   0.95525   0.01267  Uiso   1.00
N20    N     0.21010   0.89693   0.55975   0.01267  Uiso   1.00
N21    N     0.29434   0.56868   0.71282   0.01267  Uiso   1.00
N22    N     0.31317   0.65035   0.71010   0.01267  Uiso   1.00
N23    N     0.16282   0.81317   0.60307   0.01267  Uiso   1.00
N24    N     0.68618   0.09707   0.29927   0.01267  Uiso   1.00
N25    N     0.72566   0.14414   0.43132   0.01267  Uiso   1.00
N26    N     0.23349   0.38125   0.05534   0.01267  Uiso   1.00
N27    N     0.04475   0.83603   0.23488   0.01267  Uiso   1.00
N28    N     0.76512   0.10115   0.30987   0.01267  Uiso   1.00
N29    N     0.23488   0.89885   0.69013   0.01267  Uiso   1.00
N30    N     0.29927   0.70220   0.11309   0.01267  Uiso   1.00
N31    N     0.41089   0.61309   0.81382   0.01267  Uiso   1.00
N32    N     0.26512   0.95525   0.66397   0.01267  Uiso   1.00
N33    N     0.93132   0.20566   0.78718   0.01267  Uiso   1.00
N34    N     0.30987   0.70872   0.04475   0.01267  Uiso   1.00
N35    N     0.39885   0.66397   0.70872   0.01267  Uiso   1.00
N36    N     0.81382   0.70073   0.90293   0.01267  Uiso   1.00
N37    N     0.73349   0.05534   0.38125   0.01267  Uiso   1.00
N38    N     0.84965   0.18683   0.78990   0.01267  Uiso   1.00
N39    N     0.71282   0.06868   0.29434   0.01267  Uiso   1.00
N40    N     0.88125   0.73349   0.55534   0.01267  Uiso   1.00
N41    N     0.93132   0.72566   0.64414   0.01267  Uiso   1.00
N42    N     0.05534   0.88125   0.23349   0.01267  Uiso   1.00
N43    N     0.35586   0.77434   0.06868   0.01267  Uiso   1.00
N44    N     0.33603   0.54475   0.73488   0.01267  Uiso   1.00
N45    N     0.29927   0.59707   0.68618   0.01267  Uiso   1.00
N46    N     0.89885   0.19013   0.73488   0.01267  Uiso   1.00
N47    N     0.44025   0.83718   0.15035   0.01267  Uiso   1.00
N48    N     0.26651   0.32185   0.14776   0.01267  Uiso   1.00
N49    N     0.79780   0.20073   0.38691   0.01267  Uiso   1.00
N50    N     0.94466   0.82591   0.67815   0.01267  Uiso   1.00
N51    N     0.56868   0.35586   0.27434   0.01267  Uiso   1.00
N52    N     0.41848   0.71282   0.14414   0.01267  Uiso   1.00
N53    N     0.66397   0.45525   0.26512   0.01267  Uiso   1.00
N54    N     0.14776   0.82185   0.26651   0.01267  Uiso   1.00
N55    N     0.23488   0.33603   0.04475   0.01267  Uiso   1.00
N56    N     0.79128   0.19013   0.45525   0.01267  Uiso   1.00
N57    N     0.58152   0.29434   0.22566   0.01267  Uiso   1.00
N58    N     0.18683   0.89693   0.33718   0.01267  Uiso   1.00
N59    N     0.32591   0.44466   0.17815   0.01267  Uiso   1.00
N60    N     0.16397   0.26512   0.45525   0.01267  Uiso   1.00
N61    N     0.70220   0.08911   0.40293   0.01267  Uiso   1.00
N62    N     0.90293   0.20073   0.81382   0.01267  Uiso   1.00
N63    N     0.05534   0.17409   0.32185   0.01267  Uiso   1.00
N64    N     0.33718   0.94025   0.65035   0.01267  Uiso   1.00
N65    N     0.35586   0.58152   0.78718   0.01267  Uiso   1.00
N66    N     0.70566   0.27434   0.91848   0.01267  Uiso   1.00
N67    N     0.66282   0.05975   0.34965   0.01267  Uiso   1.00
N68    N     0.55975   0.39693   0.21010   0.01267  Uiso   1.00
N69    N     0.79927   0.68618   0.59707   0.01267  Uiso   1.00
N70    N     0.95525   0.79128   0.69013   0.01267  Uiso   1.00
N71    N     0.61309   0.29927   0.20220   0.01267  Uiso   1.00
N72    N     0.61875   0.44466   0.26651   0.01267  Uiso   1.00
N73    N     0.45525   0.76512   0.16397   0.01267  Uiso   1.00
N74    N     0.41848   0.70566   0.77434   0.01267  Uiso   1.00
N75    N     0.73349   0.67815   0.85224   0.01267  Uiso   1.00
N76    N     0.08152   0.22566   0.29434   0.01267  Uiso   1.00
N77    N     0.59707   0.41089   0.29780   0.01267  Uiso   1.00
N78    N     0.82185   0.05534   0.67409   0.01267  Uiso   1.00
N79    N     0.32591   0.88125   0.64776   0.01267  Uiso   1.00
N80    N     0.85586   0.06868   0.77434   0.01267  Uiso   1.00
N81    N     0.67409   0.11875   0.35224   0.01267  Uiso   1.00
N82    N     0.10115   0.80987   0.26512   0.01267  Uiso   1.00
N83    N     0.66397   0.20872   0.89885   0.01267  Uiso   1.00
N84    N     0.70073   0.40293   0.31382   0.01267  Uiso   1.00
N85    N     0.89693   0.83718   0.68683   0.01267  Uiso   1.00
N86    N     0.88691   0.79780   0.70073   0.01267  Uiso   1.00
N87    N     0.85224   0.67409   0.61875   0.01267  Uiso   1.00
N88    N     0.26512   0.30987   0.10115   0.01267  Uiso   1.00
N89    N     0.28718   0.35586   0.08152   0.01267  Uiso   1.00
N90    N     0.20073   0.88691   0.29780   0.01267  Uiso   1.00
N91    N     0.69013   0.29128   0.95525   0.01267  Uiso   1.00
N92    N     0.45525   0.69013   0.79128   0.01267  Uiso   1.00
N93    N     0.06868   0.27434   0.35586   0.01267  Uiso   1.00
N94    N     0.18618   0.29927   0.09707   0.01267  Uiso   1.00
N95    N     0.44466   0.67815   0.82591   0.01267  Uiso   1.00
N96    N     0.17409   0.35224   0.11875   0.01267  Uiso   1.00
N97    N     0.91089   0.81382   0.61309   0.01267  Uiso   1.00
N98    N     0.38691   0.68618   0.08911   0.01267  Uiso   1.00
N99    N     0.58152   0.28718   0.85586   0.01267  Uiso   1.00
N100   N     0.16282   0.34965   0.05975   0.01267  Uiso   1.00
N101   N     0.64776   0.26651   0.82185   0.01267  Uiso   1.00
N102   N     0.59707   0.18618   0.79927   0.01267  Uiso   1.00
N103   N     0.85586   0.78718   0.58152   0.01267  Uiso   1.00
N104   N     0.10307   0.16282   0.31317   0.01267  Uiso   1.00
N105   N     0.20566   0.91848   0.27434   0.01267  Uiso   1.00
N106   N     0.39693   0.71010   0.05975   0.01267  Uiso   1.00
N107   N     0.11309   0.20220   0.29927   0.01267  Uiso   1.00
N108   N     0.71010   0.15035   0.31317   0.01267  Uiso   1.00
N109   N     0.79780   0.59707   0.91089   0.01267  Uiso   1.00
N110   N     0.79927   0.11309   0.70220   0.01267  Uiso   1.00
N111   N     0.73488   0.04475   0.33603   0.01267  Uiso   1.00
N112   N     0.38125   0.82591   0.14776   0.01267  Uiso   1.00
N113   N     0.91848   0.77434   0.70566   0.01267  Uiso   1.00
N114   N     0.60115   0.26512   0.80987   0.01267  Uiso   1.00
N115   N     0.11875   0.26651   0.44466   0.01267  Uiso   1.00
N116   N     0.43132   0.78718   0.20566   0.01267  Uiso   1.00
N117   N     0.33603   0.79128   0.10115   0.01267  Uiso   1.00
N118   N     0.55534   0.32185   0.17409   0.01267  Uiso   1.00
N119   N     0.58911   0.20220   0.90293   0.01267  Uiso   1.00
N120   N     0.31382   0.90293   0.70073   0.01267  Uiso   1.00
N121   N     0.95525   0.16397   0.76512   0.01267  Uiso   1.00
N122   N     0.65035   0.21010   0.81317   0.01267  Uiso   1.00
N123   N     0.60115   0.33603   0.29128   0.01267  Uiso   1.00
N124   N     0.40293   0.58911   0.70220   0.01267  Uiso   1.00
N125   N     0.08911   0.90293   0.20220   0.01267  Uiso   1.00
N126   N     0.83718   0.65035   0.94025   0.01267  Uiso   1.00
N127   N     0.65035   0.44025   0.33718   0.01267  Uiso   1.00
N128   N     0.39693   0.68683   0.83718   0.01267  Uiso   1.00
N129   N     0.55975   0.16282   0.84965   0.01267  Uiso   1.00
N130   N     0.84965   0.66282   0.55975   0.01267  Uiso   1.00
N131   N     0.10115   0.29128   0.33603   0.01267  Uiso   1.00
N132   N     0.78990   0.68683   0.84965   0.01267  Uiso   1.00
N133   N     0.64414   0.41848   0.21282   0.01267  Uiso   1.00
N134   N     0.15035   0.81317   0.21010   0.01267  Uiso   1.00
N135   N     0.06868   0.79434   0.21282   0.01267  Uiso   1.00
N136   N     0.61875   0.17409   0.85224   0.01267  Uiso   1.00
N137   N     0.10307   0.94025   0.28990   0.01267  Uiso   1.00
N138   N     0.94466   0.11875   0.76651   0.01267  Uiso   1.00
N139   N     0.27434   0.85586   0.56868   0.01267  Uiso   1.00
N140   N     0.71282   0.64414   0.91848   0.01267  Uiso   1.00
N141   N     0.94025   0.15035   0.83718   0.01267  Uiso   1.00
N142   N     0.70872   0.54475   0.80987   0.01267  Uiso   1.00
N143   N     0.78990   0.10307   0.44025   0.01267  Uiso   1.00
N144   N     0.81382   0.11309   0.41089   0.01267  Uiso   1.00
N145   N     0.35224   0.61875   0.67409   0.01267  Uiso   1.00
N146   N     0.34965   0.78990   0.18683   0.01267  Uiso   1.00
N147   N     0.85224   0.17815   0.73349   0.01267  Uiso   1.00
N148   N     0.79434   0.08152   0.72566   0.01267  Uiso   1.00
N149   N     0.80987   0.76512   0.60115   0.01267  Uiso   1.00
N150   N     0.04475   0.20872   0.30987   0.01267  Uiso   1.00
N151   N     0.11875   0.85224   0.17409   0.01267  Uiso   1.00
N152   N     0.20073   0.31382   0.40293   0.01267  Uiso   1.00
N153   N     0.66282   0.60307   0.81317   0.01267  Uiso   1.00
N154   N     0.17815   0.94466   0.32591   0.01267  Uiso   1.00
N155   N     0.14776   0.32591   0.38125   0.01267  Uiso   1.00
N156   N     0.76651   0.61875   0.94466   0.01267  Uiso   1.00
N157   N     0.43132   0.64414   0.72566   0.01267  Uiso   1.00
N158   N     0.83603   0.73488   0.54475   0.01267  Uiso   1.00
N159   N     0.70566   0.43132   0.28718   0.01267  Uiso   1.00
N160   N     0.29128   0.45525   0.19013   0.01267  Uiso   1.00
N161   N     0.70073   0.29780   0.88691   0.01267  Uiso   1.00
N162   N     0.70220   0.61309   0.79927   0.01267  Uiso   1.00
N163   N     0.64776   0.38125   0.32591   0.01267  Uiso   1.00
N164   N     0.20872   0.39885   0.16397   0.01267  Uiso   1.00
N165   N     0.08911   0.18618   0.38691   0.01267  Uiso   1.00
N166   N     0.32185   0.64776   0.76651   0.01267  Uiso   1.00
N167   N     0.58911   0.38691   0.18618   0.01267  Uiso   1.00
N168   N     0.67815   0.35224   0.23349   0.01267  Uiso   1.00
N169   N     0.17409   0.82185   0.55534   0.01267  Uiso   1.00
N170   N     0.68683   0.33718   0.89693   0.01267  Uiso   1.00
N171   N     0.15035   0.33718   0.44025   0.01267  Uiso   1.00
N172   N     0.39885   0.73488   0.19013   0.01267  Uiso   1.00
N173   N     0.14414   0.93132   0.22566   0.01267  Uiso   1.00
N174   N     0.19013   0.95525   0.29128   0.01267  Uiso   1.00
N175   N     0.20872   0.80987   0.54475   0.01267  Uiso   1.00
N176   N     0.05975   0.84965   0.16282   0.01267  Uiso   1.00
N177   N     0.71010   0.55975   0.89693   0.01267  Uiso   1.00
N178   N     0.82591   0.17815   0.44466   0.01267  Uiso   1.00
N179   N     0.21282   0.91848   0.64414   0.01267  Uiso   1.00
N180   N     0.78718   0.70566   0.93132   0.01267  Uiso   1.00
N181   N     0.70872   0.16397   0.39885   0.01267  Uiso   1.00
N182   N     0.69013   0.39885   0.23488   0.01267  Uiso   1.00
N183   N     0.83603   0.10115   0.79128   0.01267  Uiso   1.00
N184   N     0.72566   0.58152   0.79434   0.01267  Uiso   1.00
N185   N     0.88125   0.14776   0.82591   0.01267  Uiso   1.00
N186   N     0.79128   0.60115   0.83603   0.01267  Uiso   1.00
N187   N     0.19013   0.23488   0.39885   0.01267  Uiso   1.00
N188   N     0.31382   0.41089   0.11309   0.01267  Uiso   1.00
N189   N     0.67409   0.55534   0.82185   0.01267  Uiso   1.00
N190   N     0.26651   0.94466   0.61875   0.01267  Uiso   1.00
N191   N     0.91848   0.14414   0.71282   0.01267  Uiso   1.00
N192   N     0.28990   0.44025   0.10307   0.01267  Uiso   1.00
N193   N     0.68683   0.34965   0.28990   0.01267  Uiso   1.00
N194   N     0.21010   0.31317   0.15035   0.01267  Uiso   1.00
N195   N     0.08152   0.85586   0.28718   0.01267  Uiso   1.00
N196   N     0.38125   0.55534   0.73349   0.01267  Uiso   1.00
N197   N     0.22566   0.79434   0.58152   0.01267  Uiso   1.00
N198   N     0.20220   0.79927   0.61309   0.01267  Uiso   1.00
N199   N     0.89885   0.70872   0.66397   0.01267  Uiso   1.00
N200   N     0.31317   0.66282   0.10307   0.01267  Uiso   1.00
N201   N     0.40293   0.81382   0.20073   0.01267  Uiso   1.00
N202   N     0.68618   0.58911   0.88691   0.01267  Uiso   1.00
N203   N     0.76651   0.14776   0.32185   0.01267  Uiso   1.00
N204   N     0.91089   0.09707   0.79780   0.01267  Uiso   1.00
N205   N     0.61309   0.31382   0.91089   0.01267  Uiso   1.00
N206   N     0.55534   0.23349   0.88125   0.01267  Uiso   1.00
N207   N     0.54475   0.23488   0.83603   0.01267  Uiso   1.00
N208   N     0.14414   0.21282   0.41848   0.01267  Uiso   1.00
N209   N     0.79434   0.71282   0.56868   0.01267  Uiso   1.00
N210   N     0.83718   0.18683   0.39693   0.01267  Uiso   1.00
N211   N     0.17815   0.23349   0.35224   0.01267  Uiso   1.00
N212   N     0.29780   0.91089   0.59707   0.01267  Uiso   1.00
N213   N     0.28718   0.93132   0.70566   0.01267  Uiso   1.00
N214   N     0.60307   0.31317   0.16282   0.01267  Uiso   1.00
N215   N     0.09707   0.29780   0.41089   0.01267  Uiso   1.00
N216   N     0.67815   0.32591   0.94466   0.01267  Uiso   1.00
N217   N     0.29780   0.38691   0.20073   0.01267  Uiso   1.00
N218   N     0.20220   0.40293   0.08911   0.01267  Uiso   1.00
N219   N     0.22566   0.43132   0.14414   0.01267  Uiso   1.00
N220   N     0.29434   0.72566   0.08152   0.01267  Uiso   1.00
N221   N     0.16397   0.89885   0.20872   0.01267  Uiso   1.00
N222   N     0.21282   0.29434   0.06868   0.01267  Uiso   1.00
N223   N     0.34965   0.55975   0.66282   0.01267  Uiso   1.00
N224   N     0.27434   0.41848   0.20566   0.01267  Uiso   1.00
N225   N     0.78718   0.08152   0.35586   0.01267  Uiso   1.00
N226   N     0.94025   0.78990   0.60307   0.01267  Uiso   1.00
N227   N     0.20566   0.28718   0.43132   0.01267  Uiso   1.00
N228   N     0.73488   0.69013   0.89885   0.01267  Uiso   1.00
N229   N     0.54475   0.30987   0.20872   0.01267  Uiso   1.00
N230   N     0.18618   0.88691   0.58911   0.01267  Uiso   1.00
N231   N     0.56868   0.21282   0.79434   0.01267  Uiso   1.00
N232   N     0.28990   0.84965   0.68683   0.01267  Uiso   1.00
N233   N     0.05975   0.21010   0.39693   0.01267  Uiso   1.00
N234   N     0.60307   0.28990   0.94025   0.01267  Uiso   1.00
N235   N     0.11309   0.91089   0.31382   0.01267  Uiso   1.00
N236   N     0.77434   0.20566   0.41848   0.01267  Uiso   1.00
N237   N     0.09707   0.79927   0.18618   0.01267  Uiso   1.00
N238   N     0.81317   0.10307   0.66282   0.01267  Uiso   1.00
N239   N     0.33718   0.39693   0.18683   0.01267  Uiso   1.00
N240   N     0.81317   0.71010   0.65035   0.01267  Uiso   1.00
O1     O     0.00888   0.76796   0.68958   0.01267  Uiso   1.00
O2     O     0.81042   0.81930   0.57838   0.01267  Uiso   1.00
O3     O     0.43426   0.67367   0.87723   0.01267  Uiso   1.00
O4     O     0.30085   0.68895   0.19300   0.01267  Uiso   1.00
O5     O     0.04767   0.75026   0.10813   0.01267  Uiso   1.00
O6     O     0.23941   0.79644   0.67367   0.01267  Uiso   1.00
O7     O     0.29741   0.35787   0.24974   0.01267  Uiso   1.00
O8     O     0.92162   0.18958   0.68070   0.01267  Uiso   1.00
O9     O     0.20356   0.82633   0.26059   0.01267  Uiso   1.00
O10    O     0.50532   0.16006   0.78454   0.01267  Uiso   1.00
O11    O     0.87723   0.70356   0.94297   0.01267  Uiso   1.00
O12    O     0.34526   0.72078   0.00532   0.01267  Uiso   1.00
O13    O     0.35787   0.60813   0.06046   0.01267  Uiso   1.00
O14    O     0.93954   0.89187   0.64213   0.01267  Uiso   1.00
O15    O     0.46502   0.75000   0.21502   0.01267  Uiso   1.00
O16    O     0.17367   0.23941   0.29644   0.01267  Uiso   1.00
O17    O     0.69915   0.38810   0.39215   0.01267  Uiso   1.00
O18    O     0.20223   0.35167   0.37130   0.01267  Uiso   1.00
O19    O     0.12870   0.33093   0.48037   0.01267  Uiso   1.00
O20    O     0.49112   0.31042   0.23204   0.01267  Uiso   1.00
O21    O     0.33994   0.34526   0.12448   0.01267  Uiso   1.00
O22    O     0.73204   0.24092   0.42162   0.01267  Uiso   1.00
O23    O     0.70356   0.26059   0.82633   0.01267  Uiso   1.00
O24    O     0.81042   0.99112   0.73204   0.01267  Uiso   1.00
O25    O     0.31042   0.73204   0.99112   0.01267  Uiso   1.00
O26    O     0.96502   0.21502   0.75000   0.01267  Uiso   1.00
O27    O     0.04767   0.29741   0.43954   0.01267  Uiso   1.00
O28    O     0.89215   0.69915   0.88810   0.01267  Uiso   1.00
O29    O     0.28498   0.53498   0.75000   0.01267  Uiso   1.00
O30    O     0.00532   0.78454   0.16006   0.01267  Uiso   1.00
O31    O     0.03498   0.25000   0.28498   0.01267  Uiso   1.00
O32    O     0.07838   0.81042   0.31930   0.01267  Uiso   1.00
O33    O     0.56574   0.23941   0.94297   0.01267  Uiso   1.00
O34    O     0.79741   0.24974   0.35787   0.01267  Uiso   1.00
O35    O     0.84526   0.83994   0.62448   0.01267  Uiso   1.00
O36    O     0.88810   0.19915   0.89215   0.01267  Uiso   1.00
O37    O     0.15474   0.16006   0.37552   0.01267  Uiso   1.00
O38    O     0.68895   0.69300   0.80085   0.01267  Uiso   1.00
O39    O     0.25000   0.28498   0.03498   0.01267  Uiso   1.00
O40    O     0.93426   0.05703   0.76059   0.01267  Uiso   1.00
O41    O     0.49595   0.18895   0.88810   0.01267  Uiso   1.00
O42    O     0.06046   0.10813   0.35787   0.01267  Uiso   1.00
O43    O     0.54767   0.43954   0.29741   0.01267  Uiso   1.00
O44    O     0.74974   0.45233   0.39187   0.01267  Uiso   1.00
O45    O     0.61190   0.10785   0.80085   0.01267  Uiso   1.00
O46    O     0.99112   0.75908   0.18070   0.01267  Uiso   1.00
O47    O     0.14833   0.29777   0.12870   0.01267  Uiso   1.00
O48    O     0.00532   0.22078   0.34526   0.01267  Uiso   1.00
O49    O     0.10813   0.25026   0.04767   0.01267  Uiso   1.00
O50    O     0.31042   0.57838   0.81930   0.01267  Uiso   1.00
O51    O     0.38810   0.49595   0.68895   0.01267  Uiso   1.00
O52    O     0.29644   0.55703   0.62277   0.01267  Uiso   1.00
O53    O     0.17367   0.93426   0.37723   0.01267  Uiso   1.00
O54    O     0.99112   0.23204   0.31042   0.01267  Uiso   1.00
O55    O     0.21502   0.25000   0.46502   0.01267  Uiso   1.00
O56    O     0.11190   0.31105   0.50405   0.01267  Uiso   1.00
O57    O     0.62448   0.28454   0.27922   0.01267  Uiso   1.00
O58    O     0.12448   0.27922   0.28454   0.01267  Uiso   1.00
O59    O     0.05703   0.79644   0.12277   0.01267  Uiso   1.00
O60    O     0.56574   0.32633   0.12277   0.01267  Uiso   1.00
O61    O     0.75908   0.68070   0.49112   0.01267  Uiso   1.00
O62    O     0.93426   0.87723   0.67367   0.01267  Uiso   1.00
O63    O     0.85056   0.01963   0.64833   0.01267  Uiso   1.00
O64    O     0.53498   0.25000   0.78498   0.01267  Uiso   1.00
O65    O     0.85787   0.06046   0.60813   0.01267  Uiso   1.00
O66    O     0.79644   0.62277   0.55703   0.01267  Uiso   1.00
O67    O     0.73941   0.67367   0.79644   0.01267  Uiso   1.00
O68    O     0.75000   0.71502   0.96502   0.01267  Uiso   1.00
O69    O     0.19915   0.39215   0.38810   0.01267  Uiso   1.00
O70    O     0.37723   0.94297   0.70356   0.01267  Uiso   1.00
O71    O     0.31105   0.00405   0.61190   0.01267  Uiso   1.00
O72    O     0.65474   0.37552   0.16006   0.01267  Uiso   1.00
O73    O     0.37552   0.66006   0.15474   0.01267  Uiso   1.00
O74    O     0.43954   0.79741   0.04767   0.01267  Uiso   1.00
O75    O     0.25000   0.96502   0.71502   0.01267  Uiso   1.00
O76    O     0.88810   0.68895   0.49595   0.01267  Uiso   1.00
O77    O     0.75026   0.14213   0.70259   0.01267  Uiso   1.00
O78    O     0.77922   0.62448   0.78454   0.01267  Uiso   1.00
O79    O     0.67367   0.37723   0.93426   0.01267  Uiso   1.00
O80    O     0.30085   0.61190   0.60785   0.01267  Uiso   1.00
O81    O     0.55703   0.43426   0.26059   0.01267  Uiso   1.00
O82    O     0.87723   0.17367   0.43426   0.01267  Uiso   1.00
O83    O     0.87130   0.20223   0.85167   0.01267  Uiso   1.00
O84    O     0.19300   0.18895   0.30085   0.01267  Uiso   1.00
O85    O     0.64213   0.39187   0.93954   0.01267  Uiso   1.00
O86    O     0.64944   0.35167   0.98037   0.01267  Uiso   1.00
O87    O     0.33093   0.35056   0.20223   0.01267  Uiso   1.00
O88    O     0.64833   0.51963   0.85056   0.01267  Uiso   1.00
O89    O     0.29777   0.62870   0.64833   0.01267  Uiso   1.00
O90    O     0.70223   0.37130   0.35167   0.01267  Uiso   1.00
O91    O     0.23204   0.42162   0.24092   0.01267  Uiso   1.00
O92    O     0.28454   0.77922   0.12448   0.01267  Uiso   1.00
O93    O     0.18895   0.38810   0.99595   0.01267  Uiso   1.00
O94    O     0.60813   0.56046   0.85787   0.01267  Uiso   1.00
O95    O     0.37130   0.51963   0.66907   0.01267  Uiso   1.00
O96    O     0.19915   0.80700   0.31105   0.01267  Uiso   1.00
O97    O     0.21502   0.96502   0.25000   0.01267  Uiso   1.00
O98    O     0.68958   0.42162   0.18070   0.01267  Uiso   1.00
O99    O     0.55703   0.12277   0.79644   0.01267  Uiso   1.00
O100   O     0.93954   0.04767   0.79741   0.01267  Uiso   1.00
O101   O     0.22078   0.37552   0.21546   0.01267  Uiso   1.00
O102   O     0.05703   0.26059   0.43426   0.01267  Uiso   1.00
O103   O     0.42162   0.74092   0.73204   0.01267  Uiso   1.00
O104   O     0.66907   0.64944   0.79777   0.01267  Uiso   1.00
O105   O     0.25000   0.78498   0.53498   0.01267  Uiso   1.00
O106   O     0.99468   0.77922   0.65474   0.01267  Uiso   1.00
O107   O     0.12277   0.29644   0.05703   0.01267  Uiso   1.00
O108   O     0.26059   0.32633   0.20356   0.01267  Uiso   1.00
O109   O     0.60785   0.11190   0.30085   0.01267  Uiso   1.00
O110   O     0.19300   0.00405   0.39215   0.01267  Uiso   1.00
O111   O     0.78498   0.75000   0.53498   0.01267  Uiso   1.00
O112   O     0.76796   0.18958   0.50888   0.01267  Uiso   1.00
O113   O     0.21546   0.87552   0.22078   0.01267  Uiso   1.00
O114   O     0.78454   0.66006   0.50532   0.01267  Uiso   1.00
O115   O     0.64213   0.25026   0.20259   0.01267  Uiso   1.00
O116   O     0.75000   0.21502   0.46502   0.01267  Uiso   1.00
O117   O     0.99468   0.21546   0.83994   0.01267  Uiso   1.00
O118   O     0.56046   0.35787   0.10813   0.01267  Uiso   1.00
O119   O     0.75908   0.07838   0.76796   0.01267  Uiso   1.00
O120   O     0.42162   0.68070   0.18958   0.01267  Uiso   1.00
O121   O     0.34526   0.62448   0.83994   0.01267  Uiso   1.00
O122   O     0.29741   0.93954   0.54767   0.01267  Uiso   1.00
O123   O     0.24092   0.92162   0.23204   0.01267  Uiso   1.00
O124   O     0.31105   0.30700   0.19915   0.01267  Uiso   1.00
O125   O     0.06574   0.12277   0.32633   0.01267  Uiso   1.00
O126   O     0.76059   0.20356   0.32633   0.01267  Uiso   1.00
O127   O     0.73941   0.06574   0.44297   0.01267  Uiso   1.00
O128   O     0.38810   0.89215   0.19915   0.01267  Uiso   1.00
O129   O     0.30700   0.69915   0.81105   0.01267  Uiso   1.00
O130   O     0.71546   0.22078   0.87552   0.01267  Uiso   1.00
O131   O     0.80700   0.81105   0.69915   0.01267  Uiso   1.00
O132   O     0.20356   0.37723   0.44297   0.01267  Uiso   1.00
O133   O     0.28454   0.50532   0.66006   0.01267  Uiso   1.00
O134   O     0.83994   0.12448   0.34526   0.01267  Uiso   1.00
O135   O     0.62870   0.48037   0.33093   0.01267  Uiso   1.00
O136   O     0.10785   0.80700   0.49595   0.01267  Uiso   1.00
O137   O     0.94297   0.73941   0.56574   0.01267  Uiso   1.00
O138   O     0.00405   0.89215   0.69300   0.01267  Uiso   1.00
O139   O     0.57838   0.31930   0.81042   0.01267  Uiso   1.00
O140   O     0.44297   0.87723   0.20356   0.01267  Uiso   1.00
O141   O     0.87552   0.72078   0.71546   0.01267  Uiso   1.00
O142   O     0.75000   0.53498   0.78498   0.01267  Uiso   1.00
O143   O     0.71502   0.46502   0.25000   0.01267  Uiso   1.00
O144   O     0.51963   0.16907   0.87130   0.01267  Uiso   1.00
O145   O     0.72078   0.50532   0.84526   0.01267  Uiso   1.00
O146   O     0.50888   0.81930   0.24092   0.01267  Uiso   1.00
O147   O     0.81105   0.61190   0.00405   0.01267  Uiso   1.00
O148   O     0.26796   0.50888   0.18958   0.01267  Uiso   1.00
O149   O     0.24092   0.31930   0.50888   0.01267  Uiso   1.00
O150   O     0.16006   0.28454   0.00532   0.01267  Uiso   1.00
O151   O     0.82633   0.06574   0.62277   0.01267  Uiso   1.00
O152   O     0.98037   0.12870   0.83093   0.01267  Uiso   1.00
O153   O     0.69300   0.39215   0.00405   0.01267  Uiso   1.00
O154   O     0.39215   0.88810   0.69915   0.01267  Uiso   1.00
O155   O     0.82633   0.76059   0.70356   0.01267  Uiso   1.00
O156   O     0.26059   0.93426   0.55703   0.01267  Uiso   1.00
O157   O     0.01963   0.87130   0.16907   0.01267  Uiso   1.00
O158   O     0.01963   0.14833   0.35056   0.01267  Uiso   1.00
O159   O     0.35056   0.64833   0.01963   0.01267  Uiso   1.00
O160   O     0.49468   0.83994   0.21546   0.01267  Uiso   1.00
O161   O     0.62870   0.14833   0.79777   0.01267  Uiso   1.00
O162   O     0.43954   0.64213   0.89187   0.01267  Uiso   1.00
O163   O     0.20223   0.85056   0.33093   0.01267  Uiso   1.00
O164   O     0.70259   0.06046   0.45233   0.01267  Uiso   1.00
O165   O     0.78498   0.03498   0.75000   0.01267  Uiso   1.00
O166   O     0.80085   0.19300   0.68895   0.01267  Uiso   1.00
O167   O     0.83994   0.71546   0.99468   0.01267  Uiso   1.00
O168   O     0.16006   0.87552   0.65474   0.01267  Uiso   1.00
O169   O     0.89215   0.19300   0.50405   0.01267  Uiso   1.00
O170   O     0.70356   0.44297   0.37723   0.01267  Uiso   1.00
O171   O     0.56046   0.20259   0.95233   0.01267  Uiso   1.00
O172   O     0.62277   0.56574   0.82633   0.01267  Uiso   1.00
O173   O     0.96502   0.75000   0.71502   0.01267  Uiso   1.00
O174   O     0.76059   0.55703   0.93426   0.01267  Uiso   1.00
O175   O     0.20259   0.45233   0.06046   0.01267  Uiso   1.00
O176   O     0.21546   0.33994   0.49468   0.01267  Uiso   1.00
O177   O     0.33093   0.98037   0.62870   0.01267  Uiso   1.00
O178   O     0.22078   0.84526   0.50532   0.01267  Uiso   1.00
O179   O     0.20259   0.75026   0.64213   0.01267  Uiso   1.00
O180   O     0.49595   0.30700   0.10785   0.01267  Uiso   1.00
O181   O     0.76796   0.57838   0.75908   0.01267  Uiso   1.00
O182   O     0.15474   0.99468   0.27922   0.01267  Uiso   1.00
O183   O     0.50532   0.34526   0.22078   0.01267  Uiso   1.00
O184   O     0.71502   0.25000   0.96502   0.01267  Uiso   1.00
O185   O     0.45233   0.89187   0.24974   0.01267  Uiso   1.00
O186   O     0.29777   0.66907   0.14944   0.01267  Uiso   1.00
O187   O     0.85167   0.70223   0.87130   0.01267  Uiso   1.00
O188   O     0.80085   0.60785   0.61190   0.01267  Uiso   1.00
O189   O     0.78454   0.12448   0.77922   0.01267  Uiso   1.00
O190   O     0.37130   0.85167   0.20223   0.01267  Uiso   1.00
O191   O     0.72078   0.21546   0.37552   0.01267  Uiso   1.00
O192   O     0.84526   0.00532   0.72078   0.01267  Uiso   1.00
O193   O     0.26796   0.75908   0.57838   0.01267  Uiso   1.00
O194   O     0.79777   0.64833   0.62870   0.01267  Uiso   1.00
O195   O     0.68070   0.99112   0.25908   0.01267  Uiso   1.00
O196   O     0.24974   0.39187   0.45233   0.01267  Uiso   1.00
O197   O     0.94297   0.20356   0.87723   0.01267  Uiso   1.00
O198   O     0.43426   0.76059   0.05703   0.01267  Uiso   1.00
O199   O     0.50405   0.69300   0.89215   0.01267  Uiso   1.00
O200   O     0.99595   0.10785   0.30700   0.01267  Uiso   1.00
O201   O     0.89187   0.14213   0.43954   0.01267  Uiso   1.00
O202   O     0.14944   0.16907   0.29777   0.01267  Uiso   1.00
O203   O     0.06046   0.95233   0.20259   0.01267  Uiso   1.00
O204   O     0.18958   0.18070   0.42162   0.01267  Uiso   1.00
O205   O     0.30700   0.60785   0.99595   0.01267  Uiso   1.00
O206   O     0.39215   0.50405   0.19300   0.01267  Uiso   1.00
O207   O     0.35167   0.87130   0.70223   0.01267  Uiso   1.00
O208   O     0.14944   0.98037   0.35167   0.01267  Uiso   1.00
O209   O     0.74092   0.50888   0.31930   0.01267  Uiso   1.00
O210   O     0.65474   0.27922   0.99468   0.01267  Uiso   1.00
O211   O     0.75026   0.60813   0.54767   0.01267  Uiso   1.00
O212   O     0.71546   0.49468   0.33994   0.01267  Uiso   1.00
O213   O     0.35056   0.70223   0.83093   0.01267  Uiso   1.00
O214   O     0.37723   0.43426   0.17367   0.01267  Uiso   1.00
O215   O     0.12448   0.84526   0.33994   0.01267  Uiso   1.00
O216   O     0.83093   0.62870   0.98037   0.01267  Uiso   1.00
O217   O     0.66907   0.01963   0.37130   0.01267  Uiso   1.00
O218   O     0.25908   0.49112   0.68070   0.01267  Uiso   1.00
O219   O     0.46502   0.71502   0.75000   0.01267  Uiso   1.00
O220   O     0.39187   0.95233   0.74974   0.01267  Uiso   1.00
O221   O     0.49112   0.18070   0.75908   0.01267  Uiso   1.00
O222   O     0.87130   0.66907   0.51963   0.01267  Uiso   1.00
O223   O     0.64944   0.29777   0.16907   0.01267  Uiso   1.00
O224   O     0.69915   0.31105   0.80700   0.01267  Uiso   1.00
O225   O     0.00405   0.11190   0.81105   0.01267  Uiso   1.00
O226   O     0.79644   0.17367   0.73941   0.01267  Uiso   1.00
O227   O     0.18070   0.25908   0.99112   0.01267  Uiso   1.00
O228   O     0.25026   0.54767   0.60813   0.01267  Uiso   1.00
O229   O     0.14213   0.20259   0.25026   0.01267  Uiso   1.00
O230   O     0.68070   0.68958   0.92162   0.01267  Uiso   1.00
O231   O     0.48037   0.64944   0.85167   0.01267  Uiso   1.00
O232   O     0.33994   0.99468   0.71546   0.01267  Uiso   1.00
O233   O     0.32633   0.70356   0.76059   0.01267  Uiso   1.00
O234   O     0.10785   0.30085   0.11190   0.01267  Uiso   1.00
O235   O     0.74092   0.23204   0.92162   0.01267  Uiso   1.00
O236   O     0.12277   0.82633   0.56574   0.01267  Uiso   1.00
O237   O     0.25026   0.70259   0.14213   0.01267  Uiso   1.00
O238   O     0.64833   0.12870   0.29777   0.01267  Uiso   1.00
O239   O     0.50405   0.81105   0.11190   0.01267  Uiso   1.00
O240   O     0.27922   0.49468   0.15474   0.01267  Uiso   1.00
O241   O     0.25908   0.76796   0.07838   0.01267  Uiso   1.00
O242   O     0.83093   0.20223   0.35056   0.01267  Uiso   1.00
O243   O     0.16907   0.37130   0.01963   0.01267  Uiso   1.00
O244   O     0.27922   0.78454   0.62448   0.01267  Uiso   1.00
O245   O     0.07838   0.26796   0.25908   0.01267  Uiso   1.00
O246   O     0.80700   0.99595   0.60785   0.01267  Uiso   1.00
O247   O     0.29644   0.73941   0.17367   0.01267  Uiso   1.00
O248   O     0.44297   0.56574   0.73941   0.01267  Uiso   1.00
O249   O     0.66006   0.00532   0.28454   0.01267  Uiso   1.00
O250   O     0.68895   0.99595   0.38810   0.01267  Uiso   1.00
O251   O     0.69300   0.30085   0.18895   0.01267  Uiso   1.00
O252   O     0.95233   0.24974   0.89187   0.01267  Uiso   1.00
O253   O     0.23204   0.81042   0.49112   0.01267  Uiso   1.00
O254   O     0.62448   0.33994   0.84526   0.01267  Uiso   1.00
O255   O     0.50888   0.68958   0.76796   0.01267  Uiso   1.00
O256   O     0.74974   0.29741   0.85787   0.01267  Uiso   1.00
O257   O     0.85056   0.83093   0.70223   0.01267  Uiso   1.00
O258   O     0.28498   0.75000   0.03498   0.01267  Uiso   1.00
O259   O     0.79777   0.14944   0.66907   0.01267  Uiso   1.00
O260   O     0.75000   0.03498   0.28498   0.01267  Uiso   1.00
O261   O     0.45233   0.56046   0.70259   0.01267  Uiso   1.00
O262   O     0.77922   0.15474   0.49468   0.01267  Uiso   1.00
O263   O     0.14833   0.85056   0.51963   0.01267  Uiso   1.00
O264   O     0.79741   0.54767   0.93954   0.01267  Uiso   1.00
O265   O     0.87552   0.15474   0.66006   0.01267  Uiso   1.00
O266   O     0.14213   0.93954   0.39187   0.01267  Uiso   1.00
O267   O     0.66006   0.65474   0.87552   0.01267  Uiso   1.00
O268   O     0.18070   0.92162   0.68958   0.01267  Uiso   1.00
O269   O     0.24974   0.85787   0.29741   0.01267  Uiso   1.00
O270   O     0.70259   0.64213   0.75026   0.01267  Uiso   1.00
O271   O     0.35167   0.48037   0.14944   0.01267  Uiso   1.00
O272   O     0.10813   0.85787   0.56046   0.01267  Uiso   1.00
O273   O     0.60785   0.49595   0.80700   0.01267  Uiso   1.00
O274   O     0.99595   0.88810   0.18895   0.01267  Uiso   1.00
O275   O     0.62277   0.05703   0.29644   0.01267  Uiso   1.00
O276   O     0.67367   0.29644   0.23941   0.01267  Uiso   1.00
O277   O     0.48037   0.83093   0.12870   0.01267  Uiso   1.00
O278   O     0.31930   0.31042   0.07838   0.01267  Uiso   1.00
O279   O     0.85787   0.79741   0.74974   0.01267  Uiso   1.00
O280   O     0.23941   0.44297   0.06574   0.01267  Uiso   1.00
O281   O     0.11190   0.80085   0.10785   0.01267  Uiso   1.00
O282   O     0.32633   0.62277   0.06574   0.01267  Uiso   1.00
O283   O     0.81930   0.74092   0.00888   0.01267  Uiso   1.00
O284   O     0.81930   0.07838   0.31042   0.01267  Uiso   1.00
O285   O     0.51963   0.35056   0.14833   0.01267  Uiso   1.00
O286   O     0.35787   0.74974   0.79741   0.01267  Uiso   1.00
O287   O     0.89187   0.74974   0.95233   0.01267  Uiso   1.00
O288   O     0.31930   0.00888   0.74092   0.01267  Uiso   1.00
O289   O     0.54767   0.10813   0.75026   0.01267  Uiso   1.00
O290   O     0.18895   0.80085   0.69300   0.01267  Uiso   1.00
O291   O     0.49468   0.65474   0.77922   0.01267  Uiso   1.00
O292   O     0.39187   0.43954   0.14213   0.01267  Uiso   1.00
O293   O     0.81105   0.19915   0.30700   0.01267  Uiso   1.00
O294   O     0.57838   0.25908   0.26796   0.01267  Uiso   1.00
O295   O     0.61190   0.50405   0.31105   0.01267  Uiso   1.00
O296   O     0.06574   0.94297   0.23941   0.01267  Uiso   1.00
O297   O     0.25000   0.46502   0.21502   0.01267  Uiso   1.00
O298   O     0.68958   0.26796   0.00888   0.01267  Uiso   1.00
O299   O     0.12870   0.79777   0.14833   0.01267  Uiso   1.00
O300   O     0.60813   0.04767   0.25026   0.01267  Uiso   1.00
O301   O     0.53498   0.28498   0.25000   0.01267  Uiso   1.00
O302   O     0.37552   0.71546   0.72078   0.01267  Uiso   1.00
O303   O     0.16907   0.79777   0.64944   0.01267  Uiso   1.00
O304   O     0.18958   0.00888   0.26796   0.01267  Uiso   1.00
O305   O     0.85167   0.14944   0.48037   0.01267  Uiso   1.00
O306   O     0.00888   0.24092   0.81930   0.01267  Uiso   1.00
O307   O     0.98037   0.85167   0.64944   0.01267  Uiso   1.00
O308   O     0.70223   0.33093   0.85056   0.01267  Uiso   1.00
O309   O     0.95233   0.70259   0.56046   0.01267  Uiso   1.00
O310   O     0.92162   0.73204   0.74092   0.01267  Uiso   1.00
O311   O     0.03498   0.78498   0.25000   0.01267  Uiso   1.00
O312   O     0.73204   0.49112   0.81042   0.01267  Uiso   1.00
