data_ja406030p_si_005_clean
_audit_creation_date              2015-10-30
_audit_creation_method            'Materials Studio'
_symmetry_space_group_name_H-M    'P1'
_symmetry_Int_Tables_number       1
_symmetry_cell_setting            triclinic
loop_
_symmetry_equiv_pos_as_xyz
  x,y,z
_cell_length_a                    19.2770
_cell_length_b                    19.2770
_cell_length_c                    36.0230
_cell_angle_alpha                 90.0000
_cell_angle_beta                  90.0000
_cell_angle_gamma                 120.0000
loop_
_atom_site_label
_atom_site_type_symbol
_atom_site_fract_x
_atom_site_fract_y
_atom_site_fract_z
_atom_site_U_iso_or_equiv
_atom_site_adp_type
_atom_site_occupancy
H1     H     0.14130   0.67390   0.15230   0.01267  Uiso   1.00
H2     H     0.89730   0.30830   0.40810   0.01267  Uiso   1.00
H3     H     0.55580   0.64430   0.09340   0.01267  Uiso   1.00
C4     C     0.84630   0.56900   0.04049   0.01267  Uiso   1.00
C5     C     0.14380   0.41020   0.57820   0.01267  Uiso   1.00
C6     C     0.50750   0.60830   0.10529   0.01267  Uiso   1.00
C7     C     0.86860   0.37380   0.85927   0.01267  Uiso   1.00
C8     C     0.09806   0.45550   0.52340   0.01267  Uiso   1.00
O9     O     0.40659   0.96127   0.95763   0.01267  Uiso   1.00
O10    O     0.20201   0.54310   0.28991   0.01267  Uiso   1.00
O11    O     0.11339   0.62986   0.49136   0.01267  Uiso   1.00
H12    H     0.32610   0.46740   0.15230   0.01267  Uiso   1.00
H13    H     0.69170   0.58900   0.40810   0.01267  Uiso   1.00
H14    H     0.35570   0.91150   0.09340   0.01267  Uiso   1.00
C15    C     0.43100   0.27730   0.04049   0.01267  Uiso   1.00
C16    C     0.58980   0.73360   0.57820   0.01267  Uiso   1.00
C17    C     0.39170   0.89920   0.10529   0.01267  Uiso   1.00
C18    C     0.62620   0.49480   0.85927   0.01267  Uiso   1.00
C19    C     0.54450   0.64256   0.52340   0.01267  Uiso   1.00
O20    O     0.03873   0.44532   0.95763   0.01267  Uiso   1.00
O21    O     0.45690   0.65891   0.28991   0.01267  Uiso   1.00
O22    O     0.37014   0.48353   0.49136   0.01267  Uiso   1.00
H23    H     0.53260   0.85870   0.15230   0.01267  Uiso   1.00
H24    H     0.41100   0.10270   0.40810   0.01267  Uiso   1.00
H25    H     0.08850   0.44420   0.09340   0.01267  Uiso   1.00
C26    C     0.72270   0.15370   0.04049   0.01267  Uiso   1.00
C27    C     0.26640   0.85620   0.57820   0.01267  Uiso   1.00
C28    C     0.10080   0.49250   0.10529   0.01267  Uiso   1.00
C29    C     0.50520   0.13140   0.85927   0.01267  Uiso   1.00
C30    C     0.35744   0.90194   0.52340   0.01267  Uiso   1.00
O31    O     0.55468   0.59341   0.95763   0.01267  Uiso   1.00
O32    O     0.34109   0.79799   0.28991   0.01267  Uiso   1.00
O33    O     0.51647   0.88661   0.49136   0.01267  Uiso   1.00
H34    H     0.85870   0.32610   0.65230   0.01267  Uiso   1.00
H35    H     0.10270   0.69170   0.90810   0.01267  Uiso   1.00
H36    H     0.44420   0.35570   0.59340   0.01267  Uiso   1.00
C37    C     0.15370   0.43100   0.54049   0.01267  Uiso   1.00
C38    C     0.85620   0.58980   0.07820   0.01267  Uiso   1.00
C39    C     0.49250   0.39170   0.60529   0.01267  Uiso   1.00
C40    C     0.13140   0.62620   0.35927   0.01267  Uiso   1.00
C41    C     0.90194   0.54450   0.02340   0.01267  Uiso   1.00
O42    O     0.59341   0.03873   0.45763   0.01267  Uiso   1.00
O43    O     0.79799   0.45690   0.78991   0.01267  Uiso   1.00
O44    O     0.88661   0.37014   0.99136   0.01267  Uiso   1.00
H45    H     0.67390   0.53260   0.65230   0.01267  Uiso   1.00
H46    H     0.30830   0.41100   0.90810   0.01267  Uiso   1.00
H47    H     0.64430   0.08850   0.59340   0.01267  Uiso   1.00
C48    C     0.56900   0.72270   0.54049   0.01267  Uiso   1.00
C49    C     0.41020   0.26640   0.07820   0.01267  Uiso   1.00
C50    C     0.60830   0.10080   0.60529   0.01267  Uiso   1.00
C51    C     0.37380   0.50520   0.35927   0.01267  Uiso   1.00
C52    C     0.45550   0.35744   0.02340   0.01267  Uiso   1.00
O53    O     0.96127   0.55468   0.45763   0.01267  Uiso   1.00
O54    O     0.54310   0.34109   0.78991   0.01267  Uiso   1.00
O55    O     0.62986   0.51647   0.99136   0.01267  Uiso   1.00
H56    H     0.46740   0.14130   0.65230   0.01267  Uiso   1.00
H57    H     0.58900   0.89730   0.90810   0.01267  Uiso   1.00
H58    H     0.91150   0.55580   0.59340   0.01267  Uiso   1.00
C59    C     0.27730   0.84630   0.54049   0.01267  Uiso   1.00
C60    C     0.73360   0.14380   0.07820   0.01267  Uiso   1.00
C61    C     0.89920   0.50750   0.60529   0.01267  Uiso   1.00
C62    C     0.49480   0.86860   0.35927   0.01267  Uiso   1.00
C63    C     0.64256   0.09806   0.02340   0.01267  Uiso   1.00
O64    O     0.44532   0.40659   0.45763   0.01267  Uiso   1.00
O65    O     0.65891   0.20201   0.78991   0.01267  Uiso   1.00
O66    O     0.48353   0.11339   0.99136   0.01267  Uiso   1.00
H67    H     0.67390   0.14130   0.84770   0.01267  Uiso   1.00
H68    H     0.30830   0.89730   0.59190   0.01267  Uiso   1.00
H69    H     0.64430   0.55580   0.90660   0.01267  Uiso   1.00
C70    C     0.56900   0.84630   0.95951   0.01267  Uiso   1.00
C71    C     0.41020   0.14380   0.42180   0.01267  Uiso   1.00
C72    C     0.60830   0.50750   0.89471   0.01267  Uiso   1.00
C73    C     0.37380   0.86860   0.14073   0.01267  Uiso   1.00
C74    C     0.45550   0.09806   0.47660   0.01267  Uiso   1.00
O75    O     0.96127   0.40659   0.04237   0.01267  Uiso   1.00
O76    O     0.54310   0.20201   0.71009   0.01267  Uiso   1.00
O77    O     0.62986   0.11339   0.50864   0.01267  Uiso   1.00
H78    H     0.46740   0.32610   0.84770   0.01267  Uiso   1.00
H79    H     0.58900   0.69170   0.59190   0.01267  Uiso   1.00
H80    H     0.91150   0.35570   0.90660   0.01267  Uiso   1.00
C81    C     0.27730   0.43100   0.95951   0.01267  Uiso   1.00
C82    C     0.73360   0.58980   0.42180   0.01267  Uiso   1.00
C83    C     0.89920   0.39170   0.89471   0.01267  Uiso   1.00
C84    C     0.49480   0.62620   0.14073   0.01267  Uiso   1.00
C85    C     0.64256   0.54450   0.47660   0.01267  Uiso   1.00
O86    O     0.44532   0.03873   0.04237   0.01267  Uiso   1.00
O87    O     0.65891   0.45690   0.71009   0.01267  Uiso   1.00
O88    O     0.48353   0.37014   0.50864   0.01267  Uiso   1.00
H89    H     0.85870   0.53260   0.84770   0.01267  Uiso   1.00
H90    H     0.10270   0.41100   0.59190   0.01267  Uiso   1.00
H91    H     0.44420   0.08850   0.90660   0.01267  Uiso   1.00
C92    C     0.15370   0.72270   0.95951   0.01267  Uiso   1.00
C93    C     0.85620   0.26640   0.42180   0.01267  Uiso   1.00
C94    C     0.49250   0.10080   0.89471   0.01267  Uiso   1.00
C95    C     0.13140   0.50520   0.14073   0.01267  Uiso   1.00
C96    C     0.90194   0.35744   0.47660   0.01267  Uiso   1.00
O97    O     0.59341   0.55468   0.04237   0.01267  Uiso   1.00
O98    O     0.79799   0.34109   0.71009   0.01267  Uiso   1.00
O99    O     0.88661   0.51647   0.50864   0.01267  Uiso   1.00
H100   H     0.32610   0.85870   0.34770   0.01267  Uiso   1.00
H101   H     0.69170   0.10270   0.09190   0.01267  Uiso   1.00
H102   H     0.35570   0.44420   0.40660   0.01267  Uiso   1.00
C103   C     0.43100   0.15370   0.45951   0.01267  Uiso   1.00
C104   C     0.58980   0.85620   0.92180   0.01267  Uiso   1.00
C105   C     0.39170   0.49250   0.39471   0.01267  Uiso   1.00
C106   C     0.62620   0.13140   0.64073   0.01267  Uiso   1.00
C107   C     0.54450   0.90194   0.97660   0.01267  Uiso   1.00
O108   O     0.03873   0.59341   0.54237   0.01267  Uiso   1.00
O109   O     0.45690   0.79799   0.21009   0.01267  Uiso   1.00
O110   O     0.37014   0.88661   0.00864   0.01267  Uiso   1.00
H111   H     0.53260   0.67390   0.34770   0.01267  Uiso   1.00
H112   H     0.41100   0.30830   0.09190   0.01267  Uiso   1.00
H113   H     0.08850   0.64430   0.40660   0.01267  Uiso   1.00
C114   C     0.72270   0.56900   0.45951   0.01267  Uiso   1.00
C115   C     0.26640   0.41020   0.92180   0.01267  Uiso   1.00
C116   C     0.10080   0.60830   0.39471   0.01267  Uiso   1.00
C117   C     0.50520   0.37380   0.64073   0.01267  Uiso   1.00
C118   C     0.35744   0.45550   0.97660   0.01267  Uiso   1.00
O119   O     0.55468   0.96127   0.54237   0.01267  Uiso   1.00
O120   O     0.34109   0.54310   0.21009   0.01267  Uiso   1.00
O121   O     0.51647   0.62986   0.00864   0.01267  Uiso   1.00
H122   H     0.14130   0.46740   0.34770   0.01267  Uiso   1.00
H123   H     0.89730   0.58900   0.09190   0.01267  Uiso   1.00
H124   H     0.55580   0.91150   0.40660   0.01267  Uiso   1.00
C125   C     0.84630   0.27730   0.45951   0.01267  Uiso   1.00
C126   C     0.14380   0.73360   0.92180   0.01267  Uiso   1.00
C127   C     0.50750   0.89920   0.39471   0.01267  Uiso   1.00
C128   C     0.86860   0.49480   0.64073   0.01267  Uiso   1.00
C129   C     0.09806   0.64256   0.97660   0.01267  Uiso   1.00
O130   O     0.40659   0.44532   0.54237   0.01267  Uiso   1.00
O131   O     0.20201   0.65891   0.21009   0.01267  Uiso   1.00
O132   O     0.11339   0.48353   0.00864   0.01267  Uiso   1.00
H133   H     0.85870   0.32610   0.84770   0.01267  Uiso   1.00
H134   H     0.10270   0.69170   0.59190   0.01267  Uiso   1.00
H135   H     0.44420   0.35570   0.90660   0.01267  Uiso   1.00
C136   C     0.15370   0.43100   0.95951   0.01267  Uiso   1.00
C137   C     0.85620   0.58980   0.42180   0.01267  Uiso   1.00
C138   C     0.49250   0.39170   0.89471   0.01267  Uiso   1.00
C139   C     0.13140   0.62620   0.14073   0.01267  Uiso   1.00
C140   C     0.90194   0.54450   0.47660   0.01267  Uiso   1.00
O141   O     0.59341   0.03873   0.04237   0.01267  Uiso   1.00
O142   O     0.79799   0.45690   0.71009   0.01267  Uiso   1.00
O143   O     0.88661   0.37014   0.50864   0.01267  Uiso   1.00
H144   H     0.67390   0.53260   0.84770   0.01267  Uiso   1.00
H145   H     0.30830   0.41100   0.59190   0.01267  Uiso   1.00
H146   H     0.64430   0.08850   0.90660   0.01267  Uiso   1.00
C147   C     0.56900   0.72270   0.95951   0.01267  Uiso   1.00
C148   C     0.41020   0.26640   0.42180   0.01267  Uiso   1.00
C149   C     0.60830   0.10080   0.89471   0.01267  Uiso   1.00
C150   C     0.37380   0.50520   0.14073   0.01267  Uiso   1.00
C151   C     0.45550   0.35744   0.47660   0.01267  Uiso   1.00
O152   O     0.96127   0.55468   0.04237   0.01267  Uiso   1.00
O153   O     0.54310   0.34109   0.71009   0.01267  Uiso   1.00
O154   O     0.62986   0.51647   0.50864   0.01267  Uiso   1.00
H155   H     0.46740   0.14130   0.84770   0.01267  Uiso   1.00
H156   H     0.58900   0.89730   0.59190   0.01267  Uiso   1.00
H157   H     0.91150   0.55580   0.90660   0.01267  Uiso   1.00
C158   C     0.27730   0.84630   0.95951   0.01267  Uiso   1.00
C159   C     0.73360   0.14380   0.42180   0.01267  Uiso   1.00
C160   C     0.89920   0.50750   0.89471   0.01267  Uiso   1.00
C161   C     0.49480   0.86860   0.14073   0.01267  Uiso   1.00
C162   C     0.64256   0.09806   0.47660   0.01267  Uiso   1.00
O163   O     0.44532   0.40659   0.04237   0.01267  Uiso   1.00
O164   O     0.65891   0.20201   0.71009   0.01267  Uiso   1.00
O165   O     0.48353   0.11339   0.50864   0.01267  Uiso   1.00
H166   H     0.14130   0.67390   0.34770   0.01267  Uiso   1.00
H167   H     0.89730   0.30830   0.09190   0.01267  Uiso   1.00
H168   H     0.55580   0.64430   0.40660   0.01267  Uiso   1.00
C169   C     0.84630   0.56900   0.45951   0.01267  Uiso   1.00
C170   C     0.14380   0.41020   0.92180   0.01267  Uiso   1.00
C171   C     0.50750   0.60830   0.39471   0.01267  Uiso   1.00
C172   C     0.86860   0.37380   0.64073   0.01267  Uiso   1.00
C173   C     0.09806   0.45550   0.97660   0.01267  Uiso   1.00
O174   O     0.40659   0.96127   0.54237   0.01267  Uiso   1.00
O175   O     0.20201   0.54310   0.21009   0.01267  Uiso   1.00
O176   O     0.11339   0.62986   0.00864   0.01267  Uiso   1.00
H177   H     0.32610   0.46740   0.34770   0.01267  Uiso   1.00
H178   H     0.69170   0.58900   0.09190   0.01267  Uiso   1.00
H179   H     0.35570   0.91150   0.40660   0.01267  Uiso   1.00
C180   C     0.43100   0.27730   0.45951   0.01267  Uiso   1.00
C181   C     0.58980   0.73360   0.92180   0.01267  Uiso   1.00
C182   C     0.39170   0.89920   0.39471   0.01267  Uiso   1.00
C183   C     0.62620   0.49480   0.64073   0.01267  Uiso   1.00
C184   C     0.54450   0.64256   0.97660   0.01267  Uiso   1.00
O185   O     0.03873   0.44532   0.54237   0.01267  Uiso   1.00
O186   O     0.45690   0.65891   0.21009   0.01267  Uiso   1.00
O187   O     0.37014   0.48353   0.00864   0.01267  Uiso   1.00
H188   H     0.53260   0.85870   0.34770   0.01267  Uiso   1.00
H189   H     0.41100   0.10270   0.09190   0.01267  Uiso   1.00
H190   H     0.08850   0.44420   0.40660   0.01267  Uiso   1.00
C191   C     0.72270   0.15370   0.45951   0.01267  Uiso   1.00
C192   C     0.26640   0.85620   0.92180   0.01267  Uiso   1.00
C193   C     0.10080   0.49250   0.39471   0.01267  Uiso   1.00
C194   C     0.50520   0.13140   0.64073   0.01267  Uiso   1.00
C195   C     0.35744   0.90194   0.97660   0.01267  Uiso   1.00
O196   O     0.55468   0.59341   0.54237   0.01267  Uiso   1.00
O197   O     0.34109   0.79799   0.21009   0.01267  Uiso   1.00
O198   O     0.51647   0.88661   0.00864   0.01267  Uiso   1.00
H199   H     0.32610   0.85870   0.15230   0.01267  Uiso   1.00
H200   H     0.69170   0.10270   0.40810   0.01267  Uiso   1.00
H201   H     0.35570   0.44420   0.09340   0.01267  Uiso   1.00
C202   C     0.43100   0.15370   0.04049   0.01267  Uiso   1.00
C203   C     0.58980   0.85620   0.57820   0.01267  Uiso   1.00
C204   C     0.39170   0.49250   0.10529   0.01267  Uiso   1.00
C205   C     0.62620   0.13140   0.85927   0.01267  Uiso   1.00
C206   C     0.54450   0.90194   0.52340   0.01267  Uiso   1.00
O207   O     0.03873   0.59341   0.95763   0.01267  Uiso   1.00
O208   O     0.45690   0.79799   0.28991   0.01267  Uiso   1.00
O209   O     0.37014   0.88661   0.49136   0.01267  Uiso   1.00
H210   H     0.53260   0.67390   0.15230   0.01267  Uiso   1.00
H211   H     0.41100   0.30830   0.40810   0.01267  Uiso   1.00
H212   H     0.08850   0.64430   0.09340   0.01267  Uiso   1.00
C213   C     0.72270   0.56900   0.04049   0.01267  Uiso   1.00
C214   C     0.26640   0.41020   0.57820   0.01267  Uiso   1.00
C215   C     0.10080   0.60830   0.10529   0.01267  Uiso   1.00
C216   C     0.50520   0.37380   0.85927   0.01267  Uiso   1.00
C217   C     0.35744   0.45550   0.52340   0.01267  Uiso   1.00
O218   O     0.55468   0.96127   0.95763   0.01267  Uiso   1.00
O219   O     0.34109   0.54310   0.28991   0.01267  Uiso   1.00
O220   O     0.51647   0.62986   0.49136   0.01267  Uiso   1.00
H221   H     0.14130   0.46740   0.15230   0.01267  Uiso   1.00
H222   H     0.89730   0.58900   0.40810   0.01267  Uiso   1.00
H223   H     0.55580   0.91150   0.09340   0.01267  Uiso   1.00
C224   C     0.84630   0.27730   0.04049   0.01267  Uiso   1.00
C225   C     0.14380   0.73360   0.57820   0.01267  Uiso   1.00
C226   C     0.50750   0.89920   0.10529   0.01267  Uiso   1.00
C227   C     0.86860   0.49480   0.85927   0.01267  Uiso   1.00
C228   C     0.09806   0.64256   0.52340   0.01267  Uiso   1.00
O229   O     0.40659   0.44532   0.95763   0.01267  Uiso   1.00
O230   O     0.20201   0.65891   0.28991   0.01267  Uiso   1.00
O231   O     0.11339   0.48353   0.49136   0.01267  Uiso   1.00
H232   H     0.67390   0.14130   0.65230   0.01267  Uiso   1.00
H233   H     0.30830   0.89730   0.90810   0.01267  Uiso   1.00
H234   H     0.64430   0.55580   0.59340   0.01267  Uiso   1.00
C235   C     0.56900   0.84630   0.54049   0.01267  Uiso   1.00
C236   C     0.41020   0.14380   0.07820   0.01267  Uiso   1.00
C237   C     0.60830   0.50750   0.60529   0.01267  Uiso   1.00
C238   C     0.37380   0.86860   0.35927   0.01267  Uiso   1.00
C239   C     0.45550   0.09806   0.02340   0.01267  Uiso   1.00
O240   O     0.96127   0.40659   0.45763   0.01267  Uiso   1.00
O241   O     0.54310   0.20201   0.78991   0.01267  Uiso   1.00
O242   O     0.62986   0.11339   0.99136   0.01267  Uiso   1.00
H243   H     0.46740   0.32610   0.65230   0.01267  Uiso   1.00
H244   H     0.58900   0.69170   0.90810   0.01267  Uiso   1.00
H245   H     0.91150   0.35570   0.59340   0.01267  Uiso   1.00
C246   C     0.27730   0.43100   0.54049   0.01267  Uiso   1.00
C247   C     0.73360   0.58980   0.07820   0.01267  Uiso   1.00
C248   C     0.89920   0.39170   0.60529   0.01267  Uiso   1.00
C249   C     0.49480   0.62620   0.35927   0.01267  Uiso   1.00
C250   C     0.64256   0.54450   0.02340   0.01267  Uiso   1.00
O251   O     0.44532   0.03873   0.45763   0.01267  Uiso   1.00
O252   O     0.65891   0.45690   0.78991   0.01267  Uiso   1.00
O253   O     0.48353   0.37014   0.99136   0.01267  Uiso   1.00
H254   H     0.85870   0.53260   0.65230   0.01267  Uiso   1.00
H255   H     0.10270   0.41100   0.90810   0.01267  Uiso   1.00
H256   H     0.44420   0.08850   0.59340   0.01267  Uiso   1.00
C257   C     0.15370   0.72270   0.54049   0.01267  Uiso   1.00
C258   C     0.85620   0.26640   0.07820   0.01267  Uiso   1.00
C259   C     0.49250   0.10080   0.60529   0.01267  Uiso   1.00
C260   C     0.13140   0.50520   0.35927   0.01267  Uiso   1.00
C261   C     0.90194   0.35744   0.02340   0.01267  Uiso   1.00
O262   O     0.59341   0.55468   0.45763   0.01267  Uiso   1.00
O263   O     0.79799   0.34109   0.78991   0.01267  Uiso   1.00
O264   O     0.88661   0.51647   0.99136   0.01267  Uiso   1.00
Zn265  Zn    0.52298   0.04595   0.53444   0.01267  Uiso   1.00
N266   N     0.54395   0.08790   0.91287   0.01267  Uiso   1.00
Zn267  Zn    0.95405   0.47702   0.53444   0.01267  Uiso   1.00
N268   N     0.91210   0.45605   0.91287   0.01267  Uiso   1.00
Zn269  Zn    0.52298   0.47702   0.53444   0.01267  Uiso   1.00
N270   N     0.54395   0.45605   0.91287   0.01267  Uiso   1.00
Zn271  Zn    0.47702   0.95405   0.03444   0.01267  Uiso   1.00
N272   N     0.45605   0.91210   0.41287   0.01267  Uiso   1.00
Zn273  Zn    0.04595   0.52298   0.03444   0.01267  Uiso   1.00
N274   N     0.08790   0.54395   0.41287   0.01267  Uiso   1.00
Zn275  Zn    0.47702   0.52298   0.03444   0.01267  Uiso   1.00
N276   N     0.45605   0.54395   0.41287   0.01267  Uiso   1.00
Zn277  Zn    0.04595   0.52298   0.46556   0.01267  Uiso   1.00
N278   N     0.08790   0.54395   0.08713   0.01267  Uiso   1.00
Zn279  Zn    0.47702   0.95405   0.46556   0.01267  Uiso   1.00
N280   N     0.45605   0.91210   0.08713   0.01267  Uiso   1.00
Zn281  Zn    0.47702   0.52298   0.46556   0.01267  Uiso   1.00
N282   N     0.45605   0.54395   0.08713   0.01267  Uiso   1.00
Zn283  Zn    0.95405   0.47702   0.96556   0.01267  Uiso   1.00
N284   N     0.91210   0.45605   0.58713   0.01267  Uiso   1.00
Zn285  Zn    0.52298   0.04595   0.96556   0.01267  Uiso   1.00
N286   N     0.54395   0.08790   0.58713   0.01267  Uiso   1.00
Zn287  Zn    0.52298   0.47702   0.96556   0.01267  Uiso   1.00
N288   N     0.54395   0.45605   0.58713   0.01267  Uiso   1.00
Cr289  Cr    0.27608   0.55216   0.25000   0.01267  Uiso   1.00
Cr290  Cr    0.44784   0.72392   0.25000   0.01267  Uiso   1.00
Cr291  Cr    0.27608   0.72392   0.25000   0.01267  Uiso   1.00
Cr292  Cr    0.72392   0.44784   0.75000   0.01267  Uiso   1.00
Cr293  Cr    0.55216   0.27608   0.75000   0.01267  Uiso   1.00
Cr294  Cr    0.72392   0.27608   0.75000   0.01267  Uiso   1.00
H295   H     0.76145   0.23855   0.49930   0.01267  Uiso   1.00
C296   C     0.19430   0.80570   0.90470   0.01267  Uiso   1.00
C297   C     0.77475   0.22525   0.02371   0.01267  Uiso   1.00
H298   H     0.76145   0.52290   0.49930   0.01267  Uiso   1.00
C299   C     0.19430   0.38860   0.90470   0.01267  Uiso   1.00
C300   C     0.77475   0.54950   0.02371   0.01267  Uiso   1.00
H301   H     0.47710   0.23855   0.49930   0.01267  Uiso   1.00
C302   C     0.61140   0.80570   0.90470   0.01267  Uiso   1.00
C303   C     0.45050   0.22525   0.02371   0.01267  Uiso   1.00
H304   H     0.23855   0.76145   0.99930   0.01267  Uiso   1.00
C305   C     0.80570   0.19430   0.40470   0.01267  Uiso   1.00
C306   C     0.22525   0.77475   0.52371   0.01267  Uiso   1.00
H307   H     0.23855   0.47710   0.99930   0.01267  Uiso   1.00
C308   C     0.80570   0.61140   0.40470   0.01267  Uiso   1.00
C309   C     0.22525   0.45050   0.52371   0.01267  Uiso   1.00
H310   H     0.52290   0.76145   0.99930   0.01267  Uiso   1.00
C311   C     0.38860   0.19430   0.40470   0.01267  Uiso   1.00
C312   C     0.54950   0.77475   0.52371   0.01267  Uiso   1.00
H313   H     0.23855   0.76145   0.50070   0.01267  Uiso   1.00
C314   C     0.80570   0.19430   0.09530   0.01267  Uiso   1.00
C315   C     0.22525   0.77475   0.97629   0.01267  Uiso   1.00
H316   H     0.52290   0.76145   0.50070   0.01267  Uiso   1.00
C317   C     0.38860   0.19430   0.09530   0.01267  Uiso   1.00
C318   C     0.54950   0.77475   0.97629   0.01267  Uiso   1.00
H319   H     0.23855   0.47710   0.50070   0.01267  Uiso   1.00
C320   C     0.80570   0.61140   0.09530   0.01267  Uiso   1.00
C321   C     0.22525   0.45050   0.97629   0.01267  Uiso   1.00
H322   H     0.76145   0.23855   0.00070   0.01267  Uiso   1.00
C323   C     0.19430   0.80570   0.59530   0.01267  Uiso   1.00
C324   C     0.77475   0.22525   0.47629   0.01267  Uiso   1.00
H325   H     0.47710   0.23855   0.00070   0.01267  Uiso   1.00
C326   C     0.61140   0.80570   0.59530   0.01267  Uiso   1.00
C327   C     0.45050   0.22525   0.47629   0.01267  Uiso   1.00
H328   H     0.76145   0.52290   0.00070   0.01267  Uiso   1.00
C329   C     0.19430   0.38860   0.59530   0.01267  Uiso   1.00
C330   C     0.77475   0.54950   0.47629   0.01267  Uiso   1.00
C331   C     0.81270   0.40635   0.80362   0.01267  Uiso   1.00
C332   C     0.59365   0.40635   0.80362   0.01267  Uiso   1.00
C333   C     0.59365   0.18730   0.80362   0.01267  Uiso   1.00
C334   C     0.18730   0.59365   0.30362   0.01267  Uiso   1.00
C335   C     0.40635   0.59365   0.30362   0.01267  Uiso   1.00
C336   C     0.40635   0.81270   0.30362   0.01267  Uiso   1.00
C337   C     0.40635   0.81270   0.19638   0.01267  Uiso   1.00
C338   C     0.40635   0.59365   0.19638   0.01267  Uiso   1.00
C339   C     0.18730   0.59365   0.19638   0.01267  Uiso   1.00
C340   C     0.59365   0.18730   0.69638   0.01267  Uiso   1.00
C341   C     0.59365   0.40635   0.69638   0.01267  Uiso   1.00
C342   C     0.81270   0.40635   0.69638   0.01267  Uiso   1.00
C343   C     0.64540   0.82270   0.63400   0.01267  Uiso   1.00
C344   C     0.14680   0.57340   0.15864   0.01267  Uiso   1.00
C345   C     0.17730   0.82270   0.63400   0.01267  Uiso   1.00
C346   C     0.42660   0.57340   0.15864   0.01267  Uiso   1.00
C347   C     0.17730   0.35460   0.63400   0.01267  Uiso   1.00
C348   C     0.42660   0.85320   0.15864   0.01267  Uiso   1.00
C349   C     0.35460   0.17730   0.13400   0.01267  Uiso   1.00
C350   C     0.85320   0.42660   0.65864   0.01267  Uiso   1.00
C351   C     0.82270   0.17730   0.13400   0.01267  Uiso   1.00
C352   C     0.57340   0.42660   0.65864   0.01267  Uiso   1.00
C353   C     0.82270   0.64540   0.13400   0.01267  Uiso   1.00
C354   C     0.57340   0.14680   0.65864   0.01267  Uiso   1.00
C355   C     0.82270   0.64540   0.36600   0.01267  Uiso   1.00
C356   C     0.57340   0.14680   0.84136   0.01267  Uiso   1.00
C357   C     0.82270   0.17730   0.36600   0.01267  Uiso   1.00
C358   C     0.57340   0.42660   0.84136   0.01267  Uiso   1.00
C359   C     0.35460   0.17730   0.36600   0.01267  Uiso   1.00
C360   C     0.85320   0.42660   0.84136   0.01267  Uiso   1.00
C361   C     0.17730   0.35460   0.86600   0.01267  Uiso   1.00
C362   C     0.42660   0.85320   0.34136   0.01267  Uiso   1.00
C363   C     0.17730   0.82270   0.86600   0.01267  Uiso   1.00
C364   C     0.42660   0.57340   0.34136   0.01267  Uiso   1.00
C365   C     0.64540   0.82270   0.86600   0.01267  Uiso   1.00
C366   C     0.14680   0.57340   0.34136   0.01267  Uiso   1.00
O367   O     0.66667   0.33333   0.75000   0.01267  Uiso   1.00
O368   O     0.33333   0.66667   0.25000   0.01267  Uiso   1.00
H369   H     0.70010   0.88539   0.63507   0.00000  Uiso   1.00
H370   H     0.66366   0.77681   0.64194   0.00000  Uiso   1.00
H371   H     0.59819   0.81877   0.65430   0.00000  Uiso   1.00
H372   H     0.14644   0.76452   0.65054   0.00000  Uiso   1.00
H373   H     0.13660   0.84977   0.63260   0.00000  Uiso   1.00
H374   H     0.23598   0.86668   0.64816   0.00000  Uiso   1.00
H375   H     0.16366   0.28986   0.63317   0.00000  Uiso   1.00
H376   H     0.12353   0.35674   0.64579   0.00000  Uiso   1.00
H377   H     0.23183   0.39145   0.65234   0.00000  Uiso   1.00
H378   H     0.33634   0.11315   0.14194   0.00000  Uiso   1.00
H379   H     0.29990   0.18529   0.13507   0.00000  Uiso   1.00
H380   H     0.40181   0.22058   0.15430   0.00000  Uiso   1.00
H381   H     0.87647   0.23322   0.14579   0.00000  Uiso   1.00
H382   H     0.83634   0.12619   0.13317   0.00000  Uiso   1.00
H383   H     0.76817   0.15962   0.15234   0.00000  Uiso   1.00
H384   H     0.86340   0.71316   0.13260   0.00000  Uiso   1.00
H385   H     0.85356   0.61808   0.15054   0.00000  Uiso   1.00
H386   H     0.76402   0.63071   0.14816   0.00000  Uiso   1.00
H387   H     0.77751   0.66471   0.35825   0.00000  Uiso   1.00
H388   H     0.81765   0.59782   0.34563   0.00000  Uiso   1.00
H389   H     0.88582   0.69942   0.36480   0.00000  Uiso   1.00
H390   H     0.79059   0.19578   0.34506   0.00000  Uiso   1.00
H391   H     0.80043   0.11054   0.36300   0.00000  Uiso   1.00
H392   H     0.88996   0.21270   0.36062   0.00000  Uiso   1.00
H393   H     0.35569   0.12283   0.35440   0.00000  Uiso   1.00
H394   H     0.39213   0.23141   0.34753   0.00000  Uiso   1.00
H395   H     0.29022   0.16478   0.36676   0.00000  Uiso   1.00
H396   H     0.19957   0.31011   0.86300   0.00000  Uiso   1.00
H397   H     0.20941   0.40520   0.84506   0.00000  Uiso   1.00
H398   H     0.11004   0.32274   0.86062   0.00000  Uiso   1.00
H399   H     0.18235   0.78018   0.84563   0.00000  Uiso   1.00
H400   H     0.22249   0.88720   0.85825   0.00000  Uiso   1.00
H401   H     0.11418   0.81360   0.86480   0.00000  Uiso   1.00
H402   H     0.60787   0.83928   0.84753   0.00000  Uiso   1.00
H403   H     0.64431   0.76714   0.85440   0.00000  Uiso   1.00
H404   H     0.70978   0.87456   0.86676   0.00000  Uiso   1.00
loop_
_geom_bond_atom_site_label_1
_geom_bond_atom_site_label_2
_geom_bond_distance
_geom_bond_site_symmetry_2
_ccdc_geom_bond_type
H1     C139    0.938   .     S
H2     C93     0.940   .     S
H3     C6      0.941   .     S
C4     C300    1.375   .     A
C4     C41     1.503   .     S
C4     C38     1.402   .     A
C5     H90     0.940   .     S
C5     C329    1.381   .     A
C5     C37     1.402   .     A
C6     C84     1.376   .     A
C6     N282    1.312   .     A
C7     H133    0.938   .     S
C7     C83     1.376   .     A
C7     C360    1.357   .     A
C8     C37     1.503   .     S
C8     O231    1.246   .     A
C8     O185    1.261   .     A
O9     C195    1.261   .     A
O9     Zn285   2.029   1_565 S
O10    Cr289   1.971   .     S
O10    C334    1.245   .     A
O11    C228    1.246   .     A
O11    Zn277   2.030   .     S
H12    C150    0.938   .     S
H13    C82     0.940   .     S
H14    C17     0.941   .     S
C15    C303    1.375   .     A
C15    C52     1.503   .     S
C15    C49     1.402   .     A
C16    H79     0.940   .     S
C16    C326    1.381   .     A
C16    C48     1.402   .     A
C17    C73     1.376   .     A
C17    N280    1.312   .     A
C18    H144    0.938   .     S
C18    C72     1.376   .     A
C18    C358    1.357   .     A
C19    C48     1.503   .     S
C19    O220    1.246   .     A
C19    O196    1.261   .     A
O20    C173    1.261   .     A
O20    Zn283   2.029   1_455 S
O21    Cr290   1.971   .     S
O21    C335    1.245   .     A
O22    C217    1.246   .     A
O22    Zn281   2.030   .     S
H23    C161    0.938   .     S
H24    C71     0.940   .     S
H25    C28     0.941   .     S
C26    C297    1.375   .     A
C26    C63     1.503   .     S
C26    C60     1.402   .     A
C27    H68     0.940   .     S
C27    C323    1.381   .     A
C27    C59     1.402   .     A
C28    C95     1.376   .     A
C28    N278    1.312   .     A
C29    H155    0.938   .     S
C29    C94     1.376   .     A
C29    C356    1.357   .     A
C30    C59     1.503   .     S
C30    O209    1.246   .     A
C30    O174    1.261   .     A
O31    C184    1.261   .     A
O31    Zn287   2.029   .     S
O32    Cr291   1.971   .     S
O32    C336    1.245   .     A
O33    C206    1.246   .     A
O33    Zn279   2.030   .     S
H34    C172    0.938   .     S
H35    C126    0.940   .     S
H36    C39     0.941   .     S
C37    C309    1.375   .     A
C38    H123    0.940   .     S
C38    C320    1.381   .     A
C39    C117    1.376   .     A
C39    N288    1.312   .     A
C40    H166    0.938   .     S
C40    C116    1.376   .     A
C40    C366    1.357   .     A
C41    O264    1.246   1_554 A
C41    O152    1.261   .     A
O42    C162    1.261   .     A
O42    Zn279   2.029   1_545 S
O43    Cr292   1.971   .     S
O43    C331    1.245   .     A
O44    C261    1.246   1_556 A
O44    Zn283   2.030   .     S
H45    C183    0.938   .     S
H46    C115    0.940   .     S
H47    C50     0.941   .     S
C48    C312    1.375   .     A
C49    H112    0.940   .     S
C49    C317    1.381   .     A
C50    C106    1.376   .     A
C50    N286    1.312   .     A
C51    H177    0.938   .     S
C51    C105    1.376   .     A
C51    C364    1.357   .     A
C52    O253    1.246   1_554 A
C52    O163    1.261   .     A
O53    C140    1.261   .     A
O53    Zn277   2.029   1_655 S
O54    Cr293   1.971   .     S
O54    C332    1.245   .     A
O55    C250    1.246   1_556 A
O55    Zn287   2.030   .     S
H56    C194    0.938   .     S
H57    C104    0.940   .     S
H58    C61     0.941   .     S
C59    C306    1.375   .     A
C60    H101    0.940   .     S
C60    C314    1.381   .     A
C61    C128    1.376   .     A
C61    N284    1.312   .     A
C62    H188    0.938   .     S
C62    C127    1.376   .     A
C62    C362    1.357   .     A
C63    O242    1.246   1_554 A
C63    O141    1.261   .     A
O64    C151    1.261   .     A
O64    Zn281   2.029   .     S
O65    Cr294   1.971   .     S
O65    C333    1.245   .     A
O66    C239    1.246   1_556 A
O66    Zn285   2.030   .     S
H67    C205    0.938   .     S
H69    C72     0.941   .     S
C70    C318    1.375   .     A
C70    C107    1.503   .     S
C70    C104    1.402   .     A
C71    C311    1.381   .     A
C71    C103    1.402   .     A
C72    N270    1.312   .     A
C73    H199    0.938   .     S
C73    C348    1.357   .     A
C74    C103    1.503   .     S
C74    O165    1.246   .     A
C74    O251    1.261   .     A
O75    C261    1.261   .     A
O75    Zn273   2.029   1_655 S
O76    Cr293   1.971   .     S
O76    C340    1.245   .     A
O77    C162    1.246   .     A
O77    Zn265   2.030   .     S
H78    C216    0.938   .     S
H80    C83     0.941   .     S
C81    C321    1.375   .     A
C81    C118    1.503   .     S
C81    C115    1.402   .     A
C82    C308    1.381   .     A
C82    C114    1.402   .     A
C83    N268    1.312   .     A
C84    H210    0.938   .     S
C84    C346    1.357   .     A
C85    C114    1.503   .     S
C85    O154    1.246   .     A
C85    O262    1.261   .     A
O86    C239    1.261   .     A
O86    Zn271   2.029   1_545 S
O87    Cr292   1.971   .     S
O87    C341    1.245   .     A
O88    C151    1.246   .     A
O88    Zn269   2.030   .     S
H89    C227    0.938   .     S
H91    C94     0.941   .     S
C92    C315    1.375   .     A
C92    C129    1.503   .     S
C92    C126    1.402   .     A
C93    C305    1.381   .     A
C93    C125    1.402   .     A
C94    N266    1.312   .     A
C95    H221    0.938   .     S
C95    C344    1.357   .     A
C96    C125    1.503   .     S
C96    O143    1.246   .     A
C96    O240    1.261   .     A
O97    C250    1.261   .     A
O97    Zn275   2.029   .     S
O98    Cr294   1.971   .     S
O98    C342    1.245   .     A
O99    C140    1.246   .     A
O99    Zn267   2.030   .     S
H100   C238    0.938   .     S
H102   C105    0.941   .     S
C103   C327    1.375   .     A
C104   C302    1.381   .     A
C105   N276    1.312   .     A
C106   H232    0.938   .     S
C106   C354    1.357   .     A
C107   O198    1.246   1_556 A
C107   O218    1.261   .     A
O108   C228    1.261   .     A
O108   Zn267   2.029   1_455 S
O109   Cr290   1.971   .     S
O109   C337    1.245   .     A
O110   C195    1.246   1_554 A
O110   Zn271   2.030   .     S
H111   C249    0.938   .     S
H113   C116    0.941   .     S
C114   C330    1.375   .     A
C115   C299    1.381   .     A
C116   N274    1.312   .     A
C117   H243    0.938   .     S
C117   C352    1.357   .     A
C118   O187    1.246   1_556 A
C118   O229    1.261   .     A
O119   C206    1.261   .     A
O119   Zn265   2.029   1_565 S
O120   Cr289   1.971   .     S
O120   C338    1.245   .     A
O121   C184    1.246   1_554 A
O121   Zn275   2.030   .     S
H122   C260    0.938   .     S
H124   C127    0.941   .     S
C125   C324    1.375   .     A
C126   C296    1.381   .     A
C127   N272    1.312   .     A
C128   H254    0.938   .     S
C128   C350    1.357   .     A
C129   O176    1.246   1_556 A
C129   O207    1.261   .     A
O130   C217    1.261   .     A
O130   Zn269   2.029   .     S
O131   Cr291   1.971   .     S
O131   C339    1.245   .     A
O132   C173    1.246   1_554 A
O132   Zn273   2.030   .     S
H134   C225    0.940   .     S
H135   C138    0.941   .     S
C136   C321    1.375   .     A
C136   C173    1.503   .     S
C136   C170    1.402   .     A
C137   H222    0.940   .     S
C137   C308    1.381   .     A
C137   C169    1.402   .     A
C138   C216    1.376   .     A
C138   N270    1.312   .     A
C139   C215    1.376   .     A
C139   C344    1.357   .     A
C140   C169    1.503   .     S
O141   Zn271   2.029   1_545 S
O142   Cr292   1.971   .     S
O142   C342    1.245   .     A
O143   Zn267   2.030   .     S
H145   C214    0.940   .     S
H146   C149    0.941   .     S
C147   C318    1.375   .     A
C147   C184    1.503   .     S
C147   C181    1.402   .     A
C148   H211    0.940   .     S
C148   C311    1.381   .     A
C148   C180    1.402   .     A
C149   C205    1.376   .     A
C149   N266    1.312   .     A
C150   C204    1.376   .     A
C150   C346    1.357   .     A
C151   C180    1.503   .     S
O152   Zn273   2.029   1_655 S
O153   Cr293   1.971   .     S
O153   C341    1.245   .     A
O154   Zn269   2.030   .     S
H156   C203    0.940   .     S
H157   C160    0.941   .     S
C158   C315    1.375   .     A
C158   C195    1.503   .     S
C158   C192    1.402   .     A
C159   H200    0.940   .     S
C159   C305    1.381   .     A
C159   C191    1.402   .     A
C160   C227    1.376   .     A
C160   N268    1.312   .     A
C161   C226    1.376   .     A
C161   C348    1.357   .     A
C162   C191    1.503   .     S
O163   Zn275   2.029   .     S
O164   Cr294   1.971   .     S
O164   C340    1.245   .     A
O165   Zn265   2.030   .     S
H167   C258    0.940   .     S
H168   C171    0.941   .     S
C169   C330    1.375   .     A
C170   H255    0.940   .     S
C170   C299    1.381   .     A
C171   C249    1.376   .     A
C171   N276    1.312   .     A
C172   C248    1.376   .     A
C172   C350    1.357   .     A
C173   O132    1.246   1_556 A
O174   Zn265   2.029   1_565 S
O175   Cr289   1.971   .     S
O175   C339    1.245   .     A
O176   C129    1.246   1_554 A
O176   Zn273   2.030   .     S
H178   C247    0.940   .     S
H179   C182    0.941   .     S
C180   C327    1.375   .     A
C181   H244    0.940   .     S
C181   C302    1.381   .     A
C182   C238    1.376   .     A
C182   N272    1.312   .     A
C183   C237    1.376   .     A
C183   C352    1.357   .     A
C184   O121    1.246   1_556 A
O185   Zn267   2.029   1_455 S
O186   Cr290   1.971   .     S
O186   C338    1.245   .     A
O187   C118    1.246   1_554 A
O187   Zn275   2.030   .     S
H189   C236    0.940   .     S
H190   C193    0.941   .     S
C191   C324    1.375   .     A
C192   H233    0.940   .     S
C192   C296    1.381   .     A
C193   C260    1.376   .     A
C193   N274    1.312   .     A
C194   C259    1.376   .     A
C194   C354    1.357   .     A
C195   O110    1.246   1_556 A
O196   Zn269   2.029   .     S
O197   Cr291   1.971   .     S
O197   C337    1.245   .     A
O198   C107    1.246   1_554 A
O198   Zn271   2.030   .     S
H201   C204    0.941   .     S
C202   C303    1.375   .     A
C202   C239    1.503   .     S
C202   C236    1.402   .     A
C203   C326    1.381   .     A
C203   C235    1.402   .     A
C204   N282    1.312   .     A
C205   C356    1.357   .     A
C206   C235    1.503   .     S
O207   Zn283   2.029   1_455 S
O208   Cr290   1.971   .     S
O208   C336    1.245   .     A
O209   Zn279   2.030   .     S
H212   C215    0.941   .     S
C213   C300    1.375   .     A
C213   C250    1.503   .     S
C213   C247    1.402   .     A
C214   C329    1.381   .     A
C214   C246    1.402   .     A
C215   N278    1.312   .     A
C216   C358    1.357   .     A
C217   C246    1.503   .     S
O218   Zn285   2.029   1_565 S
O219   Cr289   1.971   .     S
O219   C335    1.245   .     A
O220   Zn281   2.030   .     S
H223   C226    0.941   .     S
C224   C297    1.375   .     A
C224   C261    1.503   .     S
C224   C258    1.402   .     A
C225   C323    1.381   .     A
C225   C257    1.402   .     A
C226   N280    1.312   .     A
C227   C360    1.357   .     A
C228   C257    1.503   .     S
O229   Zn287   2.029   .     S
O230   Cr291   1.971   .     S
O230   C334    1.245   .     A
O231   Zn277   2.030   .     S
H234   C237    0.941   .     S
C235   C312    1.375   .     A
C236   C317    1.381   .     A
C237   N288    1.312   .     A
C238   C362    1.357   .     A
C239   O66     1.246   1_554 A
O240   Zn277   2.029   1_655 S
O241   Cr293   1.971   .     S
O241   C333    1.245   .     A
O242   C63     1.246   1_556 A
O242   Zn285   2.030   .     S
H245   C248    0.941   .     S
C246   C309    1.375   .     A
C247   C320    1.381   .     A
C248   N284    1.312   .     A
C249   C364    1.357   .     A
C250   O55     1.246   1_554 A
O251   Zn279   2.029   1_545 S
O252   Cr292   1.971   .     S
O252   C332    1.245   .     A
O253   C52     1.246   1_556 A
O253   Zn287   2.030   .     S
H256   C259    0.941   .     S
C257   C306    1.375   .     A
C258   C314    1.381   .     A
C259   N286    1.312   .     A
C260   C366    1.357   .     A
C261   O44     1.246   1_554 A
O262   Zn281   2.029   .     S
O263   Cr294   1.971   .     S
O263   C331    1.245   .     A
O264   C41     1.246   1_556 A
O264   Zn283   2.030   .     S
Zn265  N286    2.023   .     S
Zn265  O119    2.029   1_545 S
Zn265  O174    2.029   1_545 S
N266   Zn285   2.023   .     S
Zn267  N284    2.023   .     S
Zn267  O108    2.029   1_655 S
Zn267  O185    2.029   1_655 S
N268   Zn283   2.023   .     S
Zn269  N288    2.023   .     S
N270   Zn287   2.023   .     S
Zn271  N280    2.023   .     S
Zn271  O86     2.029   1_565 S
Zn271  O141    2.029   1_565 S
N272   Zn279   2.023   .     S
Zn273  N278    2.023   .     S
Zn273  O75     2.029   1_455 S
Zn273  O152    2.029   1_455 S
N274   Zn277   2.023   .     S
Zn275  N282    2.023   .     S
N276   Zn281   2.023   .     S
Zn277  O53     2.029   1_455 S
Zn277  O240    2.029   1_455 S
Zn279  O42     2.029   1_565 S
Zn279  O251    2.029   1_565 S
Zn283  O20     2.029   1_655 S
Zn283  O207    2.029   1_655 S
Zn285  O9      2.029   1_545 S
Zn285  O218    2.029   1_545 S
Cr289  O368    1.912   .     S
Cr290  O368    1.912   .     S
Cr291  O368    1.912   .     S
Cr292  O367    1.912   .     S
Cr293  O367    1.912   .     S
Cr294  O367    1.912   .     S
H295   C324    0.940   .     S
C296   C363    1.505   .     S
C297   H322    0.940   .     S
H298   C330    0.940   .     S
C299   C361    1.505   .     S
C300   H328    0.940   .     S
H301   C327    0.940   .     S
C302   C365    1.505   .     S
C303   H325    0.940   .     S
H304   C315    0.940   .     S
C305   C357    1.505   .     S
C306   H313    0.940   .     S
H307   C321    0.940   .     S
C308   C355    1.505   .     S
C309   H319    0.940   .     S
H310   C318    0.940   .     S
C311   C359    1.505   .     S
C312   H316    0.940   .     S
C314   C351    1.505   .     S
C317   C349    1.505   .     S
C320   C353    1.505   .     S
C323   C345    1.505   .     S
C326   C343    1.505   .     S
C329   C347    1.505   .     S
C331   C360    1.518   .     S
C332   C358    1.518   .     S
C333   C356    1.518   .     S
C334   C366    1.518   .     S
C335   C364    1.518   .     S
C336   C362    1.518   .     S
C337   C348    1.518   .     S
C338   C346    1.518   .     S
C339   C344    1.518   .     S
C340   C354    1.518   .     S
C341   C352    1.518   .     S
C342   C350    1.518   .     S
C343   H369    1.140   .     S
C343   H370    1.140   .     S
C343   H371    1.140   .     S
C345   H372    1.140   .     S
C345   H373    1.140   .     S
C345   H374    1.140   .     S
C347   H375    1.140   .     S
C347   H376    1.140   .     S
C347   H377    1.140   .     S
C349   H378    1.140   .     S
C349   H379    1.140   .     S
C349   H380    1.140   .     S
C351   H381    1.140   .     S
C351   H382    1.140   .     S
C351   H383    1.140   .     S
C353   H384    1.140   .     S
C353   H385    1.140   .     S
C353   H386    1.140   .     S
C355   H387    1.140   .     S
C355   H388    1.140   .     S
C355   H389    1.140   .     S
C357   H390    1.140   .     S
C357   H391    1.140   .     S
C357   H392    1.140   .     S
C359   H393    1.140   .     S
C359   H394    1.140   .     S
C359   H395    1.140   .     S
C361   H396    1.140   .     S
C361   H397    1.140   .     S
C361   H398    1.140   .     S
C363   H399    1.140   .     S
C363   H400    1.140   .     S
C363   H401    1.140   .     S
C365   H402    1.140   .     S
C365   H403    1.140   .     S
C365   H404    1.140   .     S
