data_ja406030p_si_006_clean
_audit_creation_date              2015-10-30
_audit_creation_method            'Materials Studio'
_symmetry_space_group_name_H-M    'P1'
_symmetry_Int_Tables_number       1
_symmetry_cell_setting            triclinic
loop_
_symmetry_equiv_pos_as_xyz
  x,y,z
_cell_length_a                    19.1692
_cell_length_b                    19.1692
_cell_length_c                    35.9860
_cell_angle_alpha                 90.0000
_cell_angle_beta                  90.0000
_cell_angle_gamma                 120.0000
loop_
_atom_site_label
_atom_site_type_symbol
_atom_site_fract_x
_atom_site_fract_y
_atom_site_fract_z
_atom_site_U_iso_or_equiv
_atom_site_adp_type
_atom_site_occupancy
H1     H     0.10290   0.28430   0.87310   0.01267  Uiso   1.00
H2     H     0.07560   0.35740   0.58040   0.01267  Uiso   1.00
H3     H     0.85850   0.32550   0.84770   0.01267  Uiso   1.00
H4     H     0.55420   0.91020   0.40720   0.01267  Uiso   1.00
C5     C     0.72250   0.56960   0.04097   0.01267  Uiso   1.00
C6     C     0.86770   0.49440   0.64069   0.01267  Uiso   1.00
C7     C     0.54500   0.90290   0.97649   0.01267  Uiso   1.00
C8     C     0.39220   0.49400   0.10487   0.01267  Uiso   1.00
C9     C     0.24880   0.87230   0.57090   0.01267  Uiso   1.00
O10    O     0.45756   0.79856   0.21015   0.01267  Uiso   1.00
O11    O     0.96175   0.40575   0.04260   0.01267  Uiso   1.00
O12    O     0.88676   0.36947   0.50864   0.01267  Uiso   1.00
H13    H     0.71570   0.81860   0.87310   0.01267  Uiso   1.00
H14    H     0.64260   0.71820   0.58040   0.01267  Uiso   1.00
H15    H     0.67450   0.53300   0.84770   0.01267  Uiso   1.00
H16    H     0.08980   0.64400   0.40720   0.01267  Uiso   1.00
C17    C     0.43040   0.15290   0.04097   0.01267  Uiso   1.00
C18    C     0.50560   0.37330   0.64069   0.01267  Uiso   1.00
C19    C     0.09710   0.64210   0.97649   0.01267  Uiso   1.00
C20    C     0.50600   0.89820   0.10487   0.01267  Uiso   1.00
C21    C     0.12770   0.37650   0.57090   0.01267  Uiso   1.00
O22    O     0.20144   0.65900   0.21015   0.01267  Uiso   1.00
O23    O     0.59425   0.55600   0.04260   0.01267  Uiso   1.00
O24    O     0.63053   0.51729   0.50864   0.01267  Uiso   1.00
H25    H     0.18140   0.89710   0.87310   0.01267  Uiso   1.00
H26    H     0.28180   0.92440   0.58040   0.01267  Uiso   1.00
H27    H     0.46700   0.14150   0.84770   0.01267  Uiso   1.00
H28    H     0.35600   0.44580   0.40720   0.01267  Uiso   1.00
C29    C     0.84710   0.27750   0.04097   0.01267  Uiso   1.00
C30    C     0.62670   0.13230   0.64069   0.01267  Uiso   1.00
C31    C     0.35790   0.45500   0.97649   0.01267  Uiso   1.00
C32    C     0.10180   0.60780   0.10487   0.01267  Uiso   1.00
C33    C     0.62350   0.75120   0.57090   0.01267  Uiso   1.00
O34    O     0.34100   0.54244   0.21015   0.01267  Uiso   1.00
O35    O     0.44400   0.03825   0.04260   0.01267  Uiso   1.00
O36    O     0.48271   0.11324   0.50864   0.01267  Uiso   1.00
H37    H     0.89710   0.71570   0.37310   0.01267  Uiso   1.00
H38    H     0.92440   0.64260   0.08040   0.01267  Uiso   1.00
H39    H     0.14150   0.67450   0.34770   0.01267  Uiso   1.00
H40    H     0.44580   0.08980   0.90720   0.01267  Uiso   1.00
C41    C     0.27750   0.43040   0.54097   0.01267  Uiso   1.00
C42    C     0.13230   0.50560   0.14069   0.01267  Uiso   1.00
C43    C     0.45500   0.09710   0.47649   0.01267  Uiso   1.00
C44    C     0.60780   0.50600   0.60487   0.01267  Uiso   1.00
C45    C     0.75120   0.12770   0.07090   0.01267  Uiso   1.00
O46    O     0.54244   0.20144   0.71015   0.01267  Uiso   1.00
O47    O     0.03825   0.59425   0.54260   0.01267  Uiso   1.00
O48    O     0.11324   0.63053   0.00864   0.01267  Uiso   1.00
H49    H     0.28430   0.18140   0.37310   0.01267  Uiso   1.00
H50    H     0.35740   0.28180   0.08040   0.01267  Uiso   1.00
H51    H     0.32550   0.46700   0.34770   0.01267  Uiso   1.00
H52    H     0.91020   0.35600   0.90720   0.01267  Uiso   1.00
C53    C     0.56960   0.84710   0.54097   0.01267  Uiso   1.00
C54    C     0.49440   0.62670   0.14069   0.01267  Uiso   1.00
C55    C     0.90290   0.35790   0.47649   0.01267  Uiso   1.00
C56    C     0.49400   0.10180   0.60487   0.01267  Uiso   1.00
C57    C     0.87230   0.62350   0.07090   0.01267  Uiso   1.00
O58    O     0.79856   0.34100   0.71015   0.01267  Uiso   1.00
O59    O     0.40575   0.44400   0.54260   0.01267  Uiso   1.00
O60    O     0.36947   0.48271   0.00864   0.01267  Uiso   1.00
H61    H     0.81860   0.10290   0.37310   0.01267  Uiso   1.00
H62    H     0.71820   0.07560   0.08040   0.01267  Uiso   1.00
H63    H     0.53300   0.85850   0.34770   0.01267  Uiso   1.00
H64    H     0.64400   0.55420   0.90720   0.01267  Uiso   1.00
C65    C     0.15290   0.72250   0.54097   0.01267  Uiso   1.00
C66    C     0.37330   0.86770   0.14069   0.01267  Uiso   1.00
C67    C     0.64210   0.54500   0.47649   0.01267  Uiso   1.00
C68    C     0.89820   0.39220   0.60487   0.01267  Uiso   1.00
C69    C     0.37650   0.24880   0.07090   0.01267  Uiso   1.00
O70    O     0.65900   0.45756   0.71015   0.01267  Uiso   1.00
O71    O     0.55600   0.96175   0.54260   0.01267  Uiso   1.00
O72    O     0.51729   0.88676   0.00864   0.01267  Uiso   1.00
H73    H     0.28430   0.10290   0.12690   0.01267  Uiso   1.00
H74    H     0.35740   0.07560   0.41960   0.01267  Uiso   1.00
H75    H     0.32550   0.85850   0.15230   0.01267  Uiso   1.00
H76    H     0.91020   0.55420   0.59280   0.01267  Uiso   1.00
C77    C     0.56960   0.72250   0.95903   0.01267  Uiso   1.00
C78    C     0.49440   0.86770   0.35931   0.01267  Uiso   1.00
C79    C     0.90290   0.54500   0.02351   0.01267  Uiso   1.00
C80    C     0.49400   0.39220   0.89513   0.01267  Uiso   1.00
C81    C     0.87230   0.24880   0.42910   0.01267  Uiso   1.00
O82    O     0.79856   0.45756   0.78985   0.01267  Uiso   1.00
O83    O     0.40575   0.96175   0.95740   0.01267  Uiso   1.00
O84    O     0.36947   0.88676   0.49136   0.01267  Uiso   1.00
H85    H     0.81860   0.71570   0.12690   0.01267  Uiso   1.00
H86    H     0.71820   0.64260   0.41960   0.01267  Uiso   1.00
H87    H     0.53300   0.67450   0.15230   0.01267  Uiso   1.00
H88    H     0.64400   0.08980   0.59280   0.01267  Uiso   1.00
C89    C     0.15290   0.43040   0.95903   0.01267  Uiso   1.00
C90    C     0.37330   0.50560   0.35931   0.01267  Uiso   1.00
C91    C     0.64210   0.09710   0.02351   0.01267  Uiso   1.00
C92    C     0.89820   0.50600   0.89513   0.01267  Uiso   1.00
C93    C     0.37650   0.12770   0.42910   0.01267  Uiso   1.00
O94    O     0.65900   0.20144   0.78985   0.01267  Uiso   1.00
O95    O     0.55600   0.59425   0.95740   0.01267  Uiso   1.00
O96    O     0.51729   0.63053   0.49136   0.01267  Uiso   1.00
H97    H     0.89710   0.18140   0.12690   0.01267  Uiso   1.00
H98    H     0.92440   0.28180   0.41960   0.01267  Uiso   1.00
H99    H     0.14150   0.46700   0.15230   0.01267  Uiso   1.00
H100   H     0.44580   0.35600   0.59280   0.01267  Uiso   1.00
C101   C     0.27750   0.84710   0.95903   0.01267  Uiso   1.00
C102   C     0.13230   0.62670   0.35931   0.01267  Uiso   1.00
C103   C     0.45500   0.35790   0.02351   0.01267  Uiso   1.00
C104   C     0.60780   0.10180   0.89513   0.01267  Uiso   1.00
C105   C     0.75120   0.62350   0.42910   0.01267  Uiso   1.00
O106   O     0.54244   0.34100   0.78985   0.01267  Uiso   1.00
O107   O     0.03825   0.44400   0.95740   0.01267  Uiso   1.00
O108   O     0.11324   0.48271   0.49136   0.01267  Uiso   1.00
H109   H     0.71570   0.89710   0.62690   0.01267  Uiso   1.00
H110   H     0.64260   0.92440   0.91960   0.01267  Uiso   1.00
H111   H     0.67450   0.14150   0.65230   0.01267  Uiso   1.00
H112   H     0.08980   0.44580   0.09280   0.01267  Uiso   1.00
C113   C     0.43040   0.27750   0.45903   0.01267  Uiso   1.00
C114   C     0.50560   0.13230   0.85931   0.01267  Uiso   1.00
C115   C     0.09710   0.45500   0.52351   0.01267  Uiso   1.00
C116   C     0.50600   0.60780   0.39513   0.01267  Uiso   1.00
C117   C     0.12770   0.75120   0.92910   0.01267  Uiso   1.00
O118   O     0.20144   0.54244   0.28985   0.01267  Uiso   1.00
O119   O     0.59425   0.03825   0.45740   0.01267  Uiso   1.00
O120   O     0.63053   0.11324   0.99136   0.01267  Uiso   1.00
H121   H     0.18140   0.28430   0.62690   0.01267  Uiso   1.00
H122   H     0.28180   0.35740   0.91960   0.01267  Uiso   1.00
H123   H     0.46700   0.32550   0.65230   0.01267  Uiso   1.00
H124   H     0.35600   0.91020   0.09280   0.01267  Uiso   1.00
C125   C     0.84710   0.56960   0.45903   0.01267  Uiso   1.00
C126   C     0.62670   0.49440   0.85931   0.01267  Uiso   1.00
C127   C     0.35790   0.90290   0.52351   0.01267  Uiso   1.00
C128   C     0.10180   0.49400   0.39513   0.01267  Uiso   1.00
C129   C     0.62350   0.87230   0.92910   0.01267  Uiso   1.00
O130   O     0.34100   0.79856   0.28985   0.01267  Uiso   1.00
O131   O     0.44400   0.40575   0.45740   0.01267  Uiso   1.00
O132   O     0.48271   0.36947   0.99136   0.01267  Uiso   1.00
H133   H     0.10290   0.81860   0.62690   0.01267  Uiso   1.00
H134   H     0.07560   0.71820   0.91960   0.01267  Uiso   1.00
H135   H     0.85850   0.53300   0.65230   0.01267  Uiso   1.00
H136   H     0.55420   0.64400   0.09280   0.01267  Uiso   1.00
C137   C     0.72250   0.15290   0.45903   0.01267  Uiso   1.00
C138   C     0.86770   0.37330   0.85931   0.01267  Uiso   1.00
C139   C     0.54500   0.64210   0.52351   0.01267  Uiso   1.00
C140   C     0.39220   0.89820   0.39513   0.01267  Uiso   1.00
C141   C     0.24880   0.37650   0.92910   0.01267  Uiso   1.00
O142   O     0.45756   0.65900   0.28985   0.01267  Uiso   1.00
O143   O     0.96175   0.55600   0.45740   0.01267  Uiso   1.00
O144   O     0.88676   0.51729   0.99136   0.01267  Uiso   1.00
H145   H     0.89710   0.71570   0.12690   0.01267  Uiso   1.00
H146   H     0.92440   0.64260   0.41960   0.01267  Uiso   1.00
H147   H     0.14150   0.67450   0.15230   0.01267  Uiso   1.00
H148   H     0.44580   0.08980   0.59280   0.01267  Uiso   1.00
C149   C     0.27750   0.43040   0.95903   0.01267  Uiso   1.00
C150   C     0.13230   0.50560   0.35931   0.01267  Uiso   1.00
C151   C     0.45500   0.09710   0.02351   0.01267  Uiso   1.00
C152   C     0.60780   0.50600   0.89513   0.01267  Uiso   1.00
C153   C     0.75120   0.12770   0.42910   0.01267  Uiso   1.00
O154   O     0.54244   0.20144   0.78985   0.01267  Uiso   1.00
O155   O     0.03825   0.59425   0.95740   0.01267  Uiso   1.00
O156   O     0.11324   0.63053   0.49136   0.01267  Uiso   1.00
H157   H     0.28430   0.18140   0.12690   0.01267  Uiso   1.00
H158   H     0.35740   0.28180   0.41960   0.01267  Uiso   1.00
H159   H     0.32550   0.46700   0.15230   0.01267  Uiso   1.00
H160   H     0.91020   0.35600   0.59280   0.01267  Uiso   1.00
C161   C     0.56960   0.84710   0.95903   0.01267  Uiso   1.00
C162   C     0.49440   0.62670   0.35931   0.01267  Uiso   1.00
C163   C     0.90290   0.35790   0.02351   0.01267  Uiso   1.00
C164   C     0.49400   0.10180   0.89513   0.01267  Uiso   1.00
C165   C     0.87230   0.62350   0.42910   0.01267  Uiso   1.00
O166   O     0.79856   0.34100   0.78985   0.01267  Uiso   1.00
O167   O     0.40575   0.44400   0.95740   0.01267  Uiso   1.00
O168   O     0.36947   0.48271   0.49136   0.01267  Uiso   1.00
H169   H     0.81860   0.10290   0.12690   0.01267  Uiso   1.00
H170   H     0.71820   0.07560   0.41960   0.01267  Uiso   1.00
H171   H     0.53300   0.85850   0.15230   0.01267  Uiso   1.00
H172   H     0.64400   0.55420   0.59280   0.01267  Uiso   1.00
C173   C     0.15290   0.72250   0.95903   0.01267  Uiso   1.00
C174   C     0.37330   0.86770   0.35931   0.01267  Uiso   1.00
C175   C     0.64210   0.54500   0.02351   0.01267  Uiso   1.00
C176   C     0.89820   0.39220   0.89513   0.01267  Uiso   1.00
C177   C     0.37650   0.24880   0.42910   0.01267  Uiso   1.00
O178   O     0.65900   0.45756   0.78985   0.01267  Uiso   1.00
O179   O     0.55600   0.96175   0.95740   0.01267  Uiso   1.00
O180   O     0.51729   0.88676   0.49136   0.01267  Uiso   1.00
H181   H     0.10290   0.28430   0.62690   0.01267  Uiso   1.00
H182   H     0.07560   0.35740   0.91960   0.01267  Uiso   1.00
H183   H     0.85850   0.32550   0.65230   0.01267  Uiso   1.00
H184   H     0.55420   0.91020   0.09280   0.01267  Uiso   1.00
C185   C     0.72250   0.56960   0.45903   0.01267  Uiso   1.00
C186   C     0.86770   0.49440   0.85931   0.01267  Uiso   1.00
C187   C     0.54500   0.90290   0.52351   0.01267  Uiso   1.00
C188   C     0.39220   0.49400   0.39513   0.01267  Uiso   1.00
C189   C     0.24880   0.87230   0.92910   0.01267  Uiso   1.00
O190   O     0.45756   0.79856   0.28985   0.01267  Uiso   1.00
O191   O     0.96175   0.40575   0.45740   0.01267  Uiso   1.00
O192   O     0.88676   0.36947   0.99136   0.01267  Uiso   1.00
H193   H     0.71570   0.81860   0.62690   0.01267  Uiso   1.00
H194   H     0.64260   0.71820   0.91960   0.01267  Uiso   1.00
H195   H     0.67450   0.53300   0.65230   0.01267  Uiso   1.00
H196   H     0.08980   0.64400   0.09280   0.01267  Uiso   1.00
C197   C     0.43040   0.15290   0.45903   0.01267  Uiso   1.00
C198   C     0.50560   0.37330   0.85931   0.01267  Uiso   1.00
C199   C     0.09710   0.64210   0.52351   0.01267  Uiso   1.00
C200   C     0.50600   0.89820   0.39513   0.01267  Uiso   1.00
C201   C     0.12770   0.37650   0.92910   0.01267  Uiso   1.00
O202   O     0.20144   0.65900   0.28985   0.01267  Uiso   1.00
O203   O     0.59425   0.55600   0.45740   0.01267  Uiso   1.00
O204   O     0.63053   0.51729   0.99136   0.01267  Uiso   1.00
H205   H     0.18140   0.89710   0.62690   0.01267  Uiso   1.00
H206   H     0.28180   0.92440   0.91960   0.01267  Uiso   1.00
H207   H     0.46700   0.14150   0.65230   0.01267  Uiso   1.00
H208   H     0.35600   0.44580   0.09280   0.01267  Uiso   1.00
C209   C     0.84710   0.27750   0.45903   0.01267  Uiso   1.00
C210   C     0.62670   0.13230   0.85931   0.01267  Uiso   1.00
C211   C     0.35790   0.45500   0.52351   0.01267  Uiso   1.00
C212   C     0.10180   0.60780   0.39513   0.01267  Uiso   1.00
C213   C     0.62350   0.75120   0.92910   0.01267  Uiso   1.00
O214   O     0.34100   0.54244   0.28985   0.01267  Uiso   1.00
O215   O     0.44400   0.03825   0.45740   0.01267  Uiso   1.00
O216   O     0.48271   0.11324   0.99136   0.01267  Uiso   1.00
H217   H     0.71570   0.89710   0.87310   0.01267  Uiso   1.00
H218   H     0.64260   0.92440   0.58040   0.01267  Uiso   1.00
H219   H     0.67450   0.14150   0.84770   0.01267  Uiso   1.00
H220   H     0.08980   0.44580   0.40720   0.01267  Uiso   1.00
C221   C     0.43040   0.27750   0.04097   0.01267  Uiso   1.00
C222   C     0.50560   0.13230   0.64069   0.01267  Uiso   1.00
C223   C     0.09710   0.45500   0.97649   0.01267  Uiso   1.00
C224   C     0.50600   0.60780   0.10487   0.01267  Uiso   1.00
C225   C     0.12770   0.75120   0.57090   0.01267  Uiso   1.00
O226   O     0.20144   0.54244   0.21015   0.01267  Uiso   1.00
O227   O     0.59425   0.03825   0.04260   0.01267  Uiso   1.00
O228   O     0.63053   0.11324   0.50864   0.01267  Uiso   1.00
H229   H     0.18140   0.28430   0.87310   0.01267  Uiso   1.00
H230   H     0.28180   0.35740   0.58040   0.01267  Uiso   1.00
H231   H     0.46700   0.32550   0.84770   0.01267  Uiso   1.00
H232   H     0.35600   0.91020   0.40720   0.01267  Uiso   1.00
C233   C     0.84710   0.56960   0.04097   0.01267  Uiso   1.00
C234   C     0.62670   0.49440   0.64069   0.01267  Uiso   1.00
C235   C     0.35790   0.90290   0.97649   0.01267  Uiso   1.00
C236   C     0.10180   0.49400   0.10487   0.01267  Uiso   1.00
C237   C     0.62350   0.87230   0.57090   0.01267  Uiso   1.00
O238   O     0.34100   0.79856   0.21015   0.01267  Uiso   1.00
O239   O     0.44400   0.40575   0.04260   0.01267  Uiso   1.00
O240   O     0.48271   0.36947   0.50864   0.01267  Uiso   1.00
H241   H     0.10290   0.81860   0.87310   0.01267  Uiso   1.00
H242   H     0.07560   0.71820   0.58040   0.01267  Uiso   1.00
H243   H     0.85850   0.53300   0.84770   0.01267  Uiso   1.00
H244   H     0.55420   0.64400   0.40720   0.01267  Uiso   1.00
C245   C     0.72250   0.15290   0.04097   0.01267  Uiso   1.00
C246   C     0.86770   0.37330   0.64069   0.01267  Uiso   1.00
C247   C     0.54500   0.64210   0.97649   0.01267  Uiso   1.00
C248   C     0.39220   0.89820   0.10487   0.01267  Uiso   1.00
C249   C     0.24880   0.37650   0.57090   0.01267  Uiso   1.00
O250   O     0.45756   0.65900   0.21015   0.01267  Uiso   1.00
O251   O     0.96175   0.55600   0.04260   0.01267  Uiso   1.00
O252   O     0.88676   0.51729   0.50864   0.01267  Uiso   1.00
H253   H     0.28430   0.10290   0.37310   0.01267  Uiso   1.00
H254   H     0.35740   0.07560   0.08040   0.01267  Uiso   1.00
H255   H     0.32550   0.85850   0.34770   0.01267  Uiso   1.00
H256   H     0.91020   0.55420   0.90720   0.01267  Uiso   1.00
C257   C     0.56960   0.72250   0.54097   0.01267  Uiso   1.00
C258   C     0.49440   0.86770   0.14069   0.01267  Uiso   1.00
C259   C     0.90290   0.54500   0.47649   0.01267  Uiso   1.00
C260   C     0.49400   0.39220   0.60487   0.01267  Uiso   1.00
C261   C     0.87230   0.24880   0.07090   0.01267  Uiso   1.00
O262   O     0.79856   0.45756   0.71015   0.01267  Uiso   1.00
O263   O     0.40575   0.96175   0.54260   0.01267  Uiso   1.00
O264   O     0.36947   0.88676   0.00864   0.01267  Uiso   1.00
H265   H     0.81860   0.71570   0.37310   0.01267  Uiso   1.00
H266   H     0.71820   0.64260   0.08040   0.01267  Uiso   1.00
H267   H     0.53300   0.67450   0.34770   0.01267  Uiso   1.00
H268   H     0.64400   0.08980   0.90720   0.01267  Uiso   1.00
C269   C     0.15290   0.43040   0.54097   0.01267  Uiso   1.00
C270   C     0.37330   0.50560   0.14069   0.01267  Uiso   1.00
C271   C     0.64210   0.09710   0.47649   0.01267  Uiso   1.00
C272   C     0.89820   0.50600   0.60487   0.01267  Uiso   1.00
C273   C     0.37650   0.12770   0.07090   0.01267  Uiso   1.00
O274   O     0.65900   0.20144   0.71015   0.01267  Uiso   1.00
O275   O     0.55600   0.59425   0.54260   0.01267  Uiso   1.00
O276   O     0.51729   0.63053   0.00864   0.01267  Uiso   1.00
H277   H     0.89710   0.18140   0.37310   0.01267  Uiso   1.00
H278   H     0.92440   0.28180   0.08040   0.01267  Uiso   1.00
H279   H     0.14150   0.46700   0.34770   0.01267  Uiso   1.00
H280   H     0.44580   0.35600   0.90720   0.01267  Uiso   1.00
C281   C     0.27750   0.84710   0.54097   0.01267  Uiso   1.00
C282   C     0.13230   0.62670   0.14069   0.01267  Uiso   1.00
C283   C     0.45500   0.35790   0.47649   0.01267  Uiso   1.00
C284   C     0.60780   0.10180   0.60487   0.01267  Uiso   1.00
C285   C     0.75120   0.62350   0.07090   0.01267  Uiso   1.00
O286   O     0.54244   0.34100   0.71015   0.01267  Uiso   1.00
O287   O     0.03825   0.44400   0.54260   0.01267  Uiso   1.00
O288   O     0.11324   0.48271   0.00864   0.01267  Uiso   1.00
Zn289  Zn    0.04600   0.52300   0.46576   0.01267  Uiso   1.00
Zn290  Zn    0.47700   0.52300   0.46576   0.01267  Uiso   1.00
Zn291  Zn    0.47700   0.95400   0.46576   0.01267  Uiso   1.00
Zn292  Zn    0.95400   0.47700   0.96576   0.01267  Uiso   1.00
Zn293  Zn    0.52300   0.47700   0.96576   0.01267  Uiso   1.00
Zn294  Zn    0.52300   0.04600   0.96576   0.01267  Uiso   1.00
Zn295  Zn    0.52300   0.04600   0.53424   0.01267  Uiso   1.00
Zn296  Zn    0.52300   0.47700   0.53424   0.01267  Uiso   1.00
Zn297  Zn    0.95400   0.47700   0.53424   0.01267  Uiso   1.00
Zn298  Zn    0.47700   0.95400   0.03424   0.01267  Uiso   1.00
Zn299  Zn    0.47700   0.52300   0.03424   0.01267  Uiso   1.00
Zn300  Zn    0.04600   0.52300   0.03424   0.01267  Uiso   1.00
Cr301  Cr    0.72416   0.44832   0.75000   0.01267  Uiso   1.00
Cr302  Cr    0.55168   0.27584   0.75000   0.01267  Uiso   1.00
Cr303  Cr    0.72416   0.27584   0.75000   0.01267  Uiso   1.00
Cr304  Cr    0.27584   0.55168   0.25000   0.01267  Uiso   1.00
Cr305  Cr    0.44832   0.72416   0.25000   0.01267  Uiso   1.00
Cr306  Cr    0.27584   0.72416   0.25000   0.01267  Uiso   1.00
H307   H     0.76275   0.23725   0.00020   0.01267  Uiso   1.00
C308   C     0.17515   0.82485   0.58700   0.01267  Uiso   1.00
N309   N     0.54444   0.45556   0.91296   0.01267  Uiso   1.00
H310   H     0.76275   0.52550   0.00020   0.01267  Uiso   1.00
C311   C     0.17515   0.35030   0.58700   0.01267  Uiso   1.00
N312   N     0.54444   0.08888   0.91296   0.01267  Uiso   1.00
H313   H     0.47450   0.23725   0.00020   0.01267  Uiso   1.00
C314   C     0.64970   0.82485   0.58700   0.01267  Uiso   1.00
N315   N     0.91112   0.45556   0.91296   0.01267  Uiso   1.00
H316   H     0.23725   0.76275   0.50020   0.01267  Uiso   1.00
C317   C     0.82485   0.17515   0.08700   0.01267  Uiso   1.00
N318   N     0.45556   0.54444   0.41296   0.01267  Uiso   1.00
H319   H     0.23725   0.47450   0.50020   0.01267  Uiso   1.00
C320   C     0.82485   0.64970   0.08700   0.01267  Uiso   1.00
N321   N     0.45556   0.91112   0.41296   0.01267  Uiso   1.00
H322   H     0.52550   0.76275   0.50020   0.01267  Uiso   1.00
C323   C     0.35030   0.17515   0.08700   0.01267  Uiso   1.00
N324   N     0.08888   0.54444   0.41296   0.01267  Uiso   1.00
H325   H     0.23725   0.76275   0.99980   0.01267  Uiso   1.00
C326   C     0.82485   0.17515   0.41300   0.01267  Uiso   1.00
N327   N     0.45556   0.54444   0.08704   0.01267  Uiso   1.00
H328   H     0.52550   0.76275   0.99980   0.01267  Uiso   1.00
C329   C     0.35030   0.17515   0.41300   0.01267  Uiso   1.00
N330   N     0.08888   0.54444   0.08704   0.01267  Uiso   1.00
H331   H     0.23725   0.47450   0.99980   0.01267  Uiso   1.00
C332   C     0.82485   0.64970   0.41300   0.01267  Uiso   1.00
N333   N     0.45556   0.91112   0.08704   0.01267  Uiso   1.00
H334   H     0.76275   0.23725   0.49980   0.01267  Uiso   1.00
C335   C     0.17515   0.82485   0.91300   0.01267  Uiso   1.00
N336   N     0.54444   0.45556   0.58704   0.01267  Uiso   1.00
H337   H     0.47450   0.23725   0.49980   0.01267  Uiso   1.00
C338   C     0.64970   0.82485   0.91300   0.01267  Uiso   1.00
N339   N     0.91112   0.45556   0.58704   0.01267  Uiso   1.00
H340   H     0.76275   0.52550   0.49980   0.01267  Uiso   1.00
C341   C     0.17515   0.35030   0.91300   0.01267  Uiso   1.00
N342   N     0.54444   0.08888   0.58704   0.01267  Uiso   1.00
C343   C     0.85184   0.42592   0.84171   0.01267  Uiso   1.00
C344   C     0.44920   0.22460   0.47645   0.01267  Uiso   1.00
N345   N     0.30030   0.15015   0.11730   0.01267  Uiso   1.00
C346   C     0.57408   0.42592   0.84171   0.01267  Uiso   1.00
C347   C     0.77540   0.22460   0.47645   0.01267  Uiso   1.00
N348   N     0.84985   0.15015   0.11730   0.01267  Uiso   1.00
C349   C     0.57408   0.14816   0.84171   0.01267  Uiso   1.00
C350   C     0.77540   0.55080   0.47645   0.01267  Uiso   1.00
N351   N     0.84985   0.69970   0.11730   0.01267  Uiso   1.00
C352   C     0.14816   0.57408   0.34171   0.01267  Uiso   1.00
C353   C     0.55080   0.77540   0.97645   0.01267  Uiso   1.00
N354   N     0.69970   0.84985   0.61730   0.01267  Uiso   1.00
C355   C     0.42592   0.57408   0.34171   0.01267  Uiso   1.00
C356   C     0.22460   0.77540   0.97645   0.01267  Uiso   1.00
N357   N     0.15015   0.84985   0.61730   0.01267  Uiso   1.00
C358   C     0.42592   0.85184   0.34171   0.01267  Uiso   1.00
C359   C     0.22460   0.44920   0.97645   0.01267  Uiso   1.00
N360   N     0.15015   0.30030   0.61730   0.01267  Uiso   1.00
C361   C     0.42592   0.85184   0.15829   0.01267  Uiso   1.00
C362   C     0.22460   0.44920   0.52355   0.01267  Uiso   1.00
N363   N     0.15015   0.30030   0.88270   0.01267  Uiso   1.00
C364   C     0.42592   0.57408   0.15829   0.01267  Uiso   1.00
C365   C     0.22460   0.77540   0.52355   0.01267  Uiso   1.00
N366   N     0.15015   0.84985   0.88270   0.01267  Uiso   1.00
C367   C     0.14816   0.57408   0.15829   0.01267  Uiso   1.00
C368   C     0.55080   0.77540   0.52355   0.01267  Uiso   1.00
N369   N     0.69970   0.84985   0.88270   0.01267  Uiso   1.00
C370   C     0.57408   0.14816   0.65829   0.01267  Uiso   1.00
C371   C     0.77540   0.55080   0.02355   0.01267  Uiso   1.00
N372   N     0.84985   0.69970   0.38270   0.01267  Uiso   1.00
C373   C     0.57408   0.42592   0.65829   0.01267  Uiso   1.00
C374   C     0.77540   0.22460   0.02355   0.01267  Uiso   1.00
N375   N     0.84985   0.15015   0.38270   0.01267  Uiso   1.00
C376   C     0.85184   0.42592   0.65829   0.01267  Uiso   1.00
C377   C     0.44920   0.22460   0.02355   0.01267  Uiso   1.00
N378   N     0.30030   0.15015   0.38270   0.01267  Uiso   1.00
C379   C     0.40668   0.81336   0.19635   0.01267  Uiso   1.00
C380   C     0.18664   0.59332   0.19635   0.01267  Uiso   1.00
C381   C     0.40668   0.59332   0.19635   0.01267  Uiso   1.00
C382   C     0.59332   0.18664   0.69635   0.01267  Uiso   1.00
C383   C     0.81336   0.40668   0.69635   0.01267  Uiso   1.00
C384   C     0.59332   0.40668   0.69635   0.01267  Uiso   1.00
C385   C     0.81336   0.40668   0.80365   0.01267  Uiso   1.00
C386   C     0.59332   0.18664   0.80365   0.01267  Uiso   1.00
C387   C     0.59332   0.40668   0.80365   0.01267  Uiso   1.00
C388   C     0.18664   0.59332   0.30365   0.01267  Uiso   1.00
C389   C     0.40668   0.81336   0.30365   0.01267  Uiso   1.00
C390   C     0.40668   0.59332   0.30365   0.01267  Uiso   1.00
O391   O     0.66667   0.33333   0.75000   0.01267  Uiso   1.00
O392   O     0.33333   0.66667   0.25000   0.01267  Uiso   1.00
loop_
_geom_bond_atom_site_label_1
_geom_bond_atom_site_label_2
_geom_bond_distance
_geom_bond_site_symmetry_2
_ccdc_geom_bond_type
H1     N363    0.869   .     S
H2     C21     0.940   .     S
H3     C138    0.940   .     S
H4     C200    0.940   .     S
C5     C285    1.401   .     A
C5     C175    1.505   .     S
C5     C371    1.384   .     A
C6     H135    0.940   .     S
C6     C272    1.387   .     A
C6     C376    1.348   .     A
C7     C161    1.505   .     S
C7     O72     1.246   1_556 A
C7     O179    1.245   .     A
C8     H208    0.940   .     S
C8     C270    1.387   .     A
C8     N327    1.284   .     A
C9     H26     0.940   .     S
C9     C308    1.368   .     A
C9     C281    1.401   .     A
O10    C379    1.247   .     A
O10    Cr305   1.967   .     S
O11    C163    1.245   .     A
O11    Zn300   2.030   1_655 S
O12    Zn297   2.025   .     S
O12    C55     1.246   .     A
H13    N369    0.869   .     S
H14    C33     0.940   .     S
H15    C126    0.940   .     S
H16    C212    0.940   .     S
C17    C273    1.401   .     A
C17    C151    1.505   .     S
C17    C377    1.384   .     A
C18    H123    0.940   .     S
C18    C260    1.387   .     A
C18    C373    1.348   .     A
C19    C173    1.505   .     S
C19    O48     1.246   1_556 A
C19    O155    1.245   .     A
C20    H184    0.940   .     S
C20    C258    1.387   .     A
C20    N333    1.284   .     A
C21    C311    1.368   .     A
C21    C269    1.401   .     A
O22    C380    1.247   .     A
O22    Cr306   1.967   .     S
O23    C175    1.245   .     A
O23    Zn299   2.030   .     S
O24    Zn296   2.025   .     S
O24    C67     1.246   .     A
H25    N366    0.869   .     S
H27    C114    0.940   .     S
H28    C188    0.940   .     S
C29    C261    1.401   .     A
C29    C163    1.505   .     S
C29    C374    1.384   .     A
C30    H111    0.940   .     S
C30    C284    1.387   .     A
C30    C370    1.348   .     A
C31    C149    1.505   .     S
C31    O60     1.246   1_556 A
C31    O167    1.245   .     A
C32    H196    0.940   .     S
C32    C282    1.387   .     A
C32    N330    1.284   .     A
C33    C314    1.368   .     A
C33    C257    1.401   .     A
O34    C381    1.247   .     A
O34    Cr304   1.967   .     S
O35    C151    1.245   .     A
O35    Zn298   2.030   1_545 S
O36    Zn295   2.025   .     S
O36    C43     1.246   .     A
H37    N372    0.869   .     S
H38    C57     0.940   .     S
H39    C102    0.940   .     S
H40    C164    0.940   .     S
C41    C249    1.401   .     A
C41    C211    1.505   .     S
C41    C362    1.384   .     A
C42    H99     0.940   .     S
C42    C236    1.387   .     A
C42    C367    1.348   .     A
C43    C197    1.505   .     S
C43    O215    1.245   .     A
C44    H172    0.940   .     S
C44    C234    1.387   .     A
C44    N336    1.284   .     A
C45    H62     0.940   .     S
C45    C317    1.368   .     A
C45    C245    1.401   .     A
O46    C382    1.247   .     A
O46    Cr302   1.967   .     S
O47    C199    1.245   .     A
O47    Zn297   2.030   1_455 S
O48    Zn300   2.025   .     S
O48    C19     1.246   1_554 A
H49    N378    0.869   .     S
H50    C69     0.940   .     S
H51    C90     0.940   .     S
H52    C176    0.940   .     S
C53    C237    1.401   .     A
C53    C187    1.505   .     S
C53    C368    1.384   .     A
C54    H87     0.940   .     S
C54    C224    1.387   .     A
C54    C364    1.348   .     A
C55    C209    1.505   .     S
C55    O191    1.245   .     A
C56    H148    0.940   .     S
C56    C222    1.387   .     A
C56    N342    1.284   .     A
C57    C320    1.368   .     A
C57    C233    1.401   .     A
O58    C383    1.247   .     A
O58    Cr303   1.967   .     S
O59    C211    1.245   .     A
O59    Zn296   2.030   .     S
O60    Zn299   2.025   .     S
O60    C31     1.246   1_554 A
H61    N375    0.869   .     S
H63    C78     0.940   .     S
H64    C152    0.940   .     S
C65    C225    1.401   .     A
C65    C199    1.505   .     S
C65    C365    1.384   .     A
C66    H75     0.940   .     S
C66    C248    1.387   .     A
C66    C361    1.348   .     A
C67    C185    1.505   .     S
C67    O203    1.245   .     A
C68    H160    0.940   .     S
C68    C246    1.387   .     A
C68    N339    1.284   .     A
C69    C323    1.368   .     A
C69    C221    1.401   .     A
O70    C384    1.247   .     A
O70    Cr301   1.967   .     S
O71    C187    1.245   .     A
O71    Zn295   2.030   1_565 S
O72    Zn298   2.025   .     S
O72    C7      1.246   1_554 A
H73    N345    0.869   .     S
H74    C93     0.940   .     S
H76    C272    0.940   .     S
C77    C213    1.401   .     A
C77    C247    1.505   .     S
C77    C353    1.384   .     A
C78    C200    1.387   .     A
C78    C358    1.348   .     A
C79    C233    1.505   .     S
C79    O144    1.246   1_554 A
C79    O251    1.245   .     A
C80    H280    0.940   .     S
C80    C198    1.387   .     A
C80    N309    1.284   .     A
C81    H98     0.940   .     S
C81    C326    1.368   .     A
C81    C209    1.401   .     A
O82    C385    1.247   .     A
O82    Cr301   1.967   .     S
O83    C235    1.245   .     A
O83    Zn294   2.030   1_565 S
O84    Zn291   2.025   .     S
O84    C127    1.246   .     A
H85    N351    0.869   .     S
H86    C105    0.940   .     S
H88    C284    0.940   .     S
C89    C201    1.401   .     A
C89    C223    1.505   .     S
C89    C359    1.384   .     A
C90    C188    1.387   .     A
C90    C355    1.348   .     A
C91    C245    1.505   .     S
C91    O120    1.246   1_554 A
C91    O227    1.245   .     A
C92    H256    0.940   .     S
C92    C186    1.387   .     A
C92    N315    1.284   .     A
C93    C329    1.368   .     A
C93    C197    1.401   .     A
O94    C386    1.247   .     A
O94    Cr303   1.967   .     S
O95    C247    1.245   .     A
O95    Zn293   2.030   .     S
O96    Zn290   2.025   .     S
O96    C139    1.246   .     A
H97    N348    0.869   .     S
H100   C260    0.940   .     S
C101   C189    1.401   .     A
C101   C235    1.505   .     S
C101   C356    1.384   .     A
C102   C212    1.387   .     A
C102   C352    1.348   .     A
C103   C221    1.505   .     S
C103   O132    1.246   1_554 A
C103   O239    1.245   .     A
C104   H268    0.940   .     S
C104   C210    1.387   .     A
C104   N312    1.284   .     A
C105   C332    1.368   .     A
C105   C185    1.401   .     A
O106   C387    1.247   .     A
O106   Cr302   1.967   .     S
O107   C223    1.245   .     A
O107   Zn292   2.030   1_455 S
O108   Zn289   2.025   .     S
O108   C115    1.246   .     A
H109   N354    0.869   .     S
H110   C129    0.940   .     S
H112   C236    0.940   .     S
C113   C177    1.401   .     A
C113   C283    1.505   .     S
C113   C344    1.384   .     A
C114   C164    1.387   .     A
C114   C349    1.348   .     A
C115   C269    1.505   .     S
C115   O287    1.245   .     A
C116   H244    0.940   .     S
C116   C162    1.387   .     A
C116   N318    1.284   .     A
C117   H134    0.940   .     S
C117   C335    1.368   .     A
C117   C173    1.401   .     A
O118   C388    1.247   .     A
O118   Cr304   1.967   .     S
O119   C271    1.245   .     A
O119   Zn291   2.030   1_545 S
O120   Zn294   2.025   .     S
O120   C91     1.246   1_556 A
H121   N360    0.869   .     S
H122   C141    0.940   .     S
H124   C248    0.940   .     S
C125   C165    1.401   .     A
C125   C259    1.505   .     S
C125   C350    1.384   .     A
C126   C152    1.387   .     A
C126   C346    1.348   .     A
C127   C281    1.505   .     S
C127   O263    1.245   .     A
C128   H220    0.940   .     S
C128   C150    1.387   .     A
C128   N324    1.284   .     A
C129   C338    1.368   .     A
C129   C161    1.401   .     A
O130   C389    1.247   .     A
O130   Cr306   1.967   .     S
O131   C283    1.245   .     A
O131   Zn290   2.030   .     S
O132   Zn293   2.025   .     S
O132   C103    1.246   1_556 A
H133   N357    0.869   .     S
H136   C224    0.940   .     S
C137   C153    1.401   .     A
C137   C271    1.505   .     S
C137   C347    1.384   .     A
C138   C176    1.387   .     A
C138   C343    1.348   .     A
C139   C257    1.505   .     S
C139   O275    1.245   .     A
C140   H232    0.940   .     S
C140   C174    1.387   .     A
C140   N321    1.284   .     A
C141   C341    1.368   .     A
C141   C149    1.401   .     A
O142   C390    1.247   .     A
O142   Cr305   1.967   .     S
O143   C259    1.245   .     A
O143   Zn289   2.030   1_655 S
O144   Zn292   2.025   .     S
O144   C79     1.246   1_556 A
H145   N351    0.869   .     S
H146   C165    0.940   .     S
H147   C282    0.940   .     S
C149   C359    1.384   .     A
C150   H279    0.940   .     S
C150   C352    1.348   .     A
C151   O216    1.246   1_554 A
C152   N309    1.284   .     A
C153   H170    0.940   .     S
C153   C326    1.368   .     A
O154   C386    1.247   .     A
O154   Cr302   1.967   .     S
O155   Zn292   2.030   1_455 S
O156   Zn289   2.025   .     S
O156   C199    1.246   .     A
H157   N345    0.869   .     S
H158   C177    0.940   .     S
H159   C270    0.940   .     S
C161   C353    1.384   .     A
C162   H267    0.940   .     S
C162   C355    1.348   .     A
C163   O192    1.246   1_554 A
C164   N312    1.284   .     A
C165   C332    1.368   .     A
O166   C385    1.247   .     A
O166   Cr303   1.967   .     S
O167   Zn293   2.030   .     S
O168   Zn290   2.025   .     S
O168   C211    1.246   .     A
H169   N348    0.869   .     S
H171   C258    0.940   .     S
C173   C356    1.384   .     A
C174   H255    0.940   .     S
C174   C358    1.348   .     A
C175   O204    1.246   1_554 A
C176   N315    1.284   .     A
C177   C329    1.368   .     A
O178   C387    1.247   .     A
O178   Cr301   1.967   .     S
O179   Zn294   2.030   1_565 S
O180   Zn291   2.025   .     S
O180   C187    1.246   .     A
H181   N360    0.869   .     S
H182   C201    0.940   .     S
H183   C246    0.940   .     S
C185   C350    1.384   .     A
C186   H243    0.940   .     S
C186   C343    1.348   .     A
C188   N318    1.284   .     A
C189   H206    0.940   .     S
C189   C335    1.368   .     A
O190   C389    1.247   .     A
O190   Cr305   1.967   .     S
O191   Zn289   2.030   1_655 S
O192   Zn292   2.025   .     S
O192   C163    1.246   1_556 A
H193   N354    0.869   .     S
H194   C213    0.940   .     S
H195   C234    0.940   .     S
C197   C344    1.384   .     A
C198   H231    0.940   .     S
C198   C346    1.348   .     A
C200   N321    1.284   .     A
C201   C341    1.368   .     A
O202   C388    1.247   .     A
O202   Cr306   1.967   .     S
O203   Zn290   2.030   .     S
O204   Zn293   2.025   .     S
O204   C175    1.246   1_556 A
H205   N357    0.869   .     S
H207   C222    0.940   .     S
C209   C347    1.384   .     A
C210   H219    0.940   .     S
C210   C349    1.348   .     A
C212   N324    1.284   .     A
C213   C338    1.368   .     A
O214   C390    1.247   .     A
O214   Cr304   1.967   .     S
O215   Zn291   2.030   1_545 S
O216   Zn294   2.025   .     S
O216   C151    1.246   1_556 A
H217   N369    0.869   .     S
H218   C237    0.940   .     S
C221   C377    1.384   .     A
C222   C370    1.348   .     A
C223   O288    1.246   1_556 A
C224   N327    1.284   .     A
C225   H242    0.940   .     S
C225   C308    1.368   .     A
O226   C380    1.247   .     A
O226   Cr304   1.967   .     S
O227   Zn298   2.030   1_545 S
O228   Zn295   2.025   .     S
O228   C271    1.246   .     A
H229   N363    0.869   .     S
H230   C249    0.940   .     S
C233   C371    1.384   .     A
C234   C373    1.348   .     A
C235   O264    1.246   1_556 A
C236   N330    1.284   .     A
C237   C314    1.368   .     A
O238   C379    1.247   .     A
O238   Cr306   1.967   .     S
O239   Zn299   2.030   .     S
O240   Zn296   2.025   .     S
O240   C283    1.246   .     A
H241   N366    0.869   .     S
C245   C374    1.384   .     A
C246   C376    1.348   .     A
C247   O276    1.246   1_556 A
C248   N333    1.284   .     A
C249   C311    1.368   .     A
O250   C381    1.247   .     A
O250   Cr305   1.967   .     S
O251   Zn300   2.030   1_655 S
O252   Zn297   2.025   .     S
O252   C259    1.246   .     A
H253   N378    0.869   .     S
H254   C273    0.940   .     S
C257   C368    1.384   .     A
C258   C361    1.348   .     A
C260   N336    1.284   .     A
C261   H278    0.940   .     S
C261   C317    1.368   .     A
O262   C383    1.247   .     A
O262   Cr301   1.967   .     S
O263   Zn295   2.030   1_565 S
O264   Zn298   2.025   .     S
O264   C235    1.246   1_554 A
H265   N372    0.869   .     S
H266   C285    0.940   .     S
C269   C362    1.384   .     A
C270   C364    1.348   .     A
C272   N339    1.284   .     A
C273   C323    1.368   .     A
O274   C382    1.247   .     A
O274   Cr303   1.967   .     S
O275   Zn296   2.030   .     S
O276   Zn299   2.025   .     S
O276   C247    1.246   1_554 A
H277   N375    0.869   .     S
C281   C365    1.384   .     A
C282   C367    1.348   .     A
C284   N342    1.284   .     A
C285   C320    1.368   .     A
O286   C384    1.247   .     A
O286   Cr302   1.967   .     S
O287   Zn297   2.030   1_455 S
O288   Zn300   2.025   .     S
O288   C223    1.246   1_554 A
Zn289  N324    2.029   .     S
Zn289  O191    2.030   1_455 S
Zn289  O143    2.030   1_455 S
Zn290  N318    2.029   .     S
Zn291  N321    2.029   .     S
Zn291  O215    2.030   1_565 S
Zn291  O119    2.030   1_565 S
Zn292  N315    2.029   .     S
Zn292  O155    2.030   1_655 S
Zn292  O107    2.030   1_655 S
Zn293  N309    2.029   .     S
Zn294  N312    2.029   .     S
Zn294  O179    2.030   1_545 S
Zn294  O83     2.030   1_545 S
Zn295  N342    2.029   .     S
Zn295  O263    2.030   1_545 S
Zn295  O71     2.030   1_545 S
Zn296  N336    2.029   .     S
Zn297  N339    2.029   .     S
Zn297  O287    2.030   1_655 S
Zn297  O47     2.030   1_655 S
Zn298  N333    2.029   .     S
Zn298  O227    2.030   1_565 S
Zn298  O35     2.030   1_565 S
Zn299  N327    2.029   .     S
Zn300  N330    2.029   .     S
Zn300  O251    2.030   1_455 S
Zn300  O11     2.030   1_455 S
Cr301  O391    1.909   .     S
Cr302  O391    1.909   .     S
Cr303  O391    1.909   .     S
Cr304  O392    1.909   .     S
Cr305  O392    1.909   .     S
Cr306  O392    1.909   .     S
H307   C374    0.939   .     S
C308   N357    1.370   .     S
H310   C371    0.939   .     S
C311   N360    1.370   .     S
H313   C377    0.939   .     S
C314   N354    1.370   .     S
H316   C365    0.939   .     S
C317   N348    1.370   .     S
H319   C362    0.939   .     S
C320   N351    1.370   .     S
H322   C368    0.939   .     S
C323   N345    1.370   .     S
H325   C356    0.939   .     S
C326   N375    1.370   .     S
H328   C353    0.939   .     S
C329   N378    1.370   .     S
H331   C359    0.939   .     S
C332   N372    1.370   .     S
H334   C347    0.939   .     S
C335   N366    1.370   .     S
H337   C344    0.939   .     S
C338   N369    1.370   .     S
H340   C350    0.939   .     S
C341   N363    1.370   .     S
C343   C385    1.511   .     S
C346   C387    1.511   .     S
C349   C386    1.511   .     S
C352   C388    1.511   .     S
C355   C390    1.511   .     S
C358   C389    1.511   .     S
C361   C379    1.511   .     S
C364   C381    1.511   .     S
C367   C380    1.511   .     S
C370   C382    1.511   .     S
C373   C384    1.511   .     S
C376   C383    1.511   .     S
