data_ja4050828
_audit_creation_date              2015-10-14
_audit_creation_method            'Materials Studio'
_symmetry_space_group_name_H-M    'P1'
_symmetry_Int_Tables_number       1
_symmetry_cell_setting            triclinic
loop_
_symmetry_equiv_pos_as_xyz
  x,y,z
_cell_length_a                    39.3875
_cell_length_b                    39.3875
_cell_length_c                    16.4829
_cell_angle_alpha                 90.0000
_cell_angle_beta                  90.0000
_cell_angle_gamma                 120.0000
loop_
_atom_site_label
_atom_site_type_symbol
_atom_site_fract_x
_atom_site_fract_y
_atom_site_fract_z
_atom_site_U_iso_or_equiv
_atom_site_adp_type
_atom_site_occupancy
C1     C     0.21865   0.50033   0.67475   0.00000  Uiso   1.00
C2     C     0.25016   0.50004   0.71540   0.00000  Uiso   1.00
C3     C     0.28144   0.49972   0.67374   0.00000  Uiso   1.00
C4     C     0.28139   0.50052   0.58685   0.00000  Uiso   1.00
C5     C     0.24994   0.50058   0.54384   0.00000  Uiso   1.00
C6     C     0.21898   0.50109   0.58782   0.00000  Uiso   1.00
C7     C     0.19001   0.50400   0.54339   0.00000  Uiso   1.00
C8     C     0.18994   0.50433   0.45857   0.00000  Uiso   1.00
C9     C     0.21886   0.50180   0.41318   0.00000  Uiso   1.00
C10    C     0.24989   0.50099   0.45628   0.00000  Uiso   1.00
C11    C     0.31282   0.50297   0.54152   0.00000  Uiso   1.00
C12    C     0.31276   0.50334   0.45677   0.00000  Uiso   1.00
C13    C     0.28131   0.50138   0.41237   0.00000  Uiso   1.00
C14    C     0.28130   0.50142   0.32554   0.00000  Uiso   1.00
C15    C     0.25000   0.50196   0.28470   0.00000  Uiso   1.00
C16    C     0.21843   0.50171   0.32619   0.00000  Uiso   1.00
H17    H     0.16726   0.50690   0.57373   0.00000  Uiso   1.00
H18    H     0.16716   0.50746   0.42901   0.00000  Uiso   1.00
H19    H     0.33846   0.50546   0.57105   0.00000  Uiso   1.00
H20    H     0.33831   0.50598   0.42645   0.00000  Uiso   1.00
H21    H     0.24985   0.49907   0.78113   0.00000  Uiso   1.00
H22    H     0.24967   0.50147   0.21894   0.00000  Uiso   1.00
C23    C     0.31291   0.49999   0.27532   0.00000  Uiso   1.00
C24    C     0.18528   0.50043   0.27626   0.00000  Uiso   1.00
C25    C     0.18563   0.49900   0.72524   0.00000  Uiso   1.00
C26    C     0.31338   0.49833   0.72328   0.00000  Uiso   1.00
C27    C     0.19283   0.52780   0.21375   0.00000  Uiso   1.00
C28    C     0.16218   0.52626   0.16623   0.00000  Uiso   1.00
X29    C     0.12260   0.49713   0.17920   0.00000  Uiso   1.00
C30    C     0.11532   0.46942   0.24123   0.00000  Uiso   1.00
C31    C     0.14601   0.47086   0.28809   0.00000  Uiso   1.00
C32    C     0.32124   0.46934   0.28470   0.00000  Uiso   1.00
C33    C     0.35072   0.46807   0.23844   0.00000  Uiso   1.00
X34    C     0.37272   0.49714   0.18007   0.00000  Uiso   1.00
C35    C     0.36376   0.52738   0.16943   0.00000  Uiso   1.00
C36    C     0.33429   0.52869   0.21604   0.00000  Uiso   1.00
C37    C     0.32330   0.46888   0.71119   0.00000  Uiso   1.00
C38    C     0.35307   0.46786   0.75725   0.00000  Uiso   1.00
X39    C     0.37369   0.49586   0.81863   0.00000  Uiso   1.00
C40    C     0.36300   0.52482   0.83168   0.00000  Uiso   1.00
C41    C     0.33347   0.52595   0.78506   0.00000  Uiso   1.00
C42    C     0.19320   0.52658   0.78730   0.00000  Uiso   1.00
C43    C     0.16252   0.52533   0.83432   0.00000  Uiso   1.00
X44    C     0.12292   0.49626   0.82130   0.00000  Uiso   1.00
C45    C     0.11565   0.46825   0.75993   0.00000  Uiso   1.00
C46    C     0.14635   0.46943   0.71355   0.00000  Uiso   1.00
H47    H     0.22265   0.55075   0.20198   0.00000  Uiso   1.00
H48    H     0.16967   0.54827   0.11962   0.00000  Uiso   1.00
H49    H     0.08571   0.44620   0.25377   0.00000  Uiso   1.00
H50    H     0.13899   0.44862   0.33395   0.00000  Uiso   1.00
H51    H     0.30490   0.44627   0.32836   0.00000  Uiso   1.00
H52    H     0.35625   0.44411   0.24862   0.00000  Uiso   1.00
H53    H     0.37978   0.55035   0.12541   0.00000  Uiso   1.00
H54    H     0.32850   0.55252   0.20642   0.00000  Uiso   1.00
H55    H     0.30796   0.44652   0.66563   0.00000  Uiso   1.00
H56    H     0.35966   0.44478   0.74474   0.00000  Uiso   1.00
H57    H     0.37761   0.54707   0.87779   0.00000  Uiso   1.00
H58    H     0.32655   0.54886   0.79689   0.00000  Uiso   1.00
H59    H     0.22303   0.54955   0.79891   0.00000  Uiso   1.00
H60    H     0.16999   0.54753   0.88048   0.00000  Uiso   1.00
H61    H     0.08603   0.44505   0.74736   0.00000  Uiso   1.00
H62    H     0.13931   0.44710   0.66790   0.00000  Uiso   1.00
C63    C     0.49980   0.71790   0.67654   0.00000  Uiso   1.00
C64    C     0.49992   0.74936   0.71807   0.00000  Uiso   1.00
C65    C     0.50053   0.78128   0.67737   0.00000  Uiso   1.00
C66    C     0.50029   0.78124   0.59037   0.00000  Uiso   1.00
C67    C     0.50017   0.74994   0.54652   0.00000  Uiso   1.00
C68    C     0.49936   0.71808   0.58966   0.00000  Uiso   1.00
C69    C     0.49656   0.68646   0.54447   0.00000  Uiso   1.00
C70    C     0.49660   0.68665   0.45974   0.00000  Uiso   1.00
C71    C     0.49927   0.71840   0.41529   0.00000  Uiso   1.00
C72    C     0.50010   0.75007   0.45897   0.00000  Uiso   1.00
C73    C     0.49864   0.81088   0.54570   0.00000  Uiso   1.00
C74    C     0.49862   0.81103   0.46075   0.00000  Uiso   1.00
C75    C     0.50013   0.78149   0.41559   0.00000  Uiso   1.00
C76    C     0.50012   0.78167   0.32857   0.00000  Uiso   1.00
C77    C     0.49952   0.74991   0.28744   0.00000  Uiso   1.00
C78    C     0.49957   0.71849   0.32852   0.00000  Uiso   1.00
H79    H     0.49348   0.66060   0.57412   0.00000  Uiso   1.00
H80    H     0.49368   0.66099   0.42943   0.00000  Uiso   1.00
H81    H     0.49658   0.83413   0.57597   0.00000  Uiso   1.00
H82    H     0.49664   0.83440   0.43081   0.00000  Uiso   1.00
H83    H     0.50065   0.74955   0.78382   0.00000  Uiso   1.00
H84    H     0.50009   0.75017   0.22168   0.00000  Uiso   1.00
C85    C     0.50148   0.81453   0.27768   0.00000  Uiso   1.00
C86    C     0.50092   0.68690   0.27840   0.00000  Uiso   1.00
C87    C     0.50102   0.68595   0.72621   0.00000  Uiso   1.00
C88    C     0.50224   0.81430   0.72831   0.00000  Uiso   1.00
C89    C     0.47258   0.66609   0.21815   0.00000  Uiso   1.00
C90    C     0.47409   0.63699   0.17077   0.00000  Uiso   1.00
X91    C     0.50420   0.62787   0.18163   0.00000  Uiso   1.00
C92    C     0.53287   0.64924   0.24112   0.00000  Uiso   1.00
C93    C     0.53138   0.67835   0.28818   0.00000  Uiso   1.00
C94    C     0.53210   0.85359   0.28607   0.00000  Uiso   1.00
C95    C     0.53401   0.88378   0.23667   0.00000  Uiso   1.00
X96    C     0.50561   0.87608   0.17615   0.00000  Uiso   1.00
C97    C     0.47532   0.83683   0.16687   0.00000  Uiso   1.00
C98    C     0.47342   0.80663   0.21645   0.00000  Uiso   1.00
C99    C     0.53257   0.85336   0.71839   0.00000  Uiso   1.00
C100   C     0.53433   0.88394   0.76614   0.00000  Uiso   1.00
X101   C     0.50607   0.87671   0.82694   0.00000  Uiso   1.00
C102   C     0.47627   0.83727   0.83827   0.00000  Uiso   1.00
C103   C     0.47450   0.80672   0.79000   0.00000  Uiso   1.00
C104   C     0.47349   0.66591   0.78830   0.00000  Uiso   1.00
C105   C     0.47479   0.63647   0.83506   0.00000  Uiso   1.00
X106   C     0.50382   0.62592   0.82169   0.00000  Uiso   1.00
C107   C     0.53172   0.64662   0.76015   0.00000  Uiso   1.00
C108   C     0.53054   0.67621   0.71408   0.00000  Uiso   1.00
H109   H     0.44892   0.67212   0.20826   0.00000  Uiso   1.00
H110   H     0.45141   0.62140   0.12595   0.00000  Uiso   1.00
H111   H     0.55668   0.64349   0.25152   0.00000  Uiso   1.00
H112   H     0.55418   0.69429   0.33261   0.00000  Uiso   1.00
H113   H     0.55480   0.86077   0.33093   0.00000  Uiso   1.00
H114   H     0.55789   0.91338   0.24628   0.00000  Uiso   1.00
H115   H     0.45272   0.82940   0.12167   0.00000  Uiso   1.00
H116   H     0.44968   0.77692   0.20733   0.00000  Uiso   1.00
H117   H     0.55507   0.86031   0.67319   0.00000  Uiso   1.00
H118   H     0.55803   0.91345   0.75478   0.00000  Uiso   1.00
H119   H     0.45381   0.82985   0.88380   0.00000  Uiso   1.00
H120   H     0.45099   0.77701   0.80034   0.00000  Uiso   1.00
H121   H     0.45057   0.67281   0.80022   0.00000  Uiso   1.00
H122   H     0.45265   0.62175   0.88136   0.00000  Uiso   1.00
H123   H     0.55489   0.64017   0.74737   0.00000  Uiso   1.00
H124   H     0.55285   0.69157   0.66844   0.00000  Uiso   1.00
C125   C     0.28141   0.78113   0.67423   0.00000  Uiso   1.00
C126   C     0.25026   0.74922   0.71544   0.00000  Uiso   1.00
C127   C     0.21876   0.71759   0.67448   0.00000  Uiso   1.00
C128   C     0.21904   0.71752   0.58755   0.00000  Uiso   1.00
C129   C     0.24979   0.74933   0.54378   0.00000  Uiso   1.00
C130   C     0.28114   0.78084   0.58711   0.00000  Uiso   1.00
C131   C     0.31213   0.81041   0.54176   0.00000  Uiso   1.00
C132   C     0.31186   0.81036   0.45681   0.00000  Uiso   1.00
C133   C     0.28066   0.78063   0.41219   0.00000  Uiso   1.00
C134   C     0.24959   0.74920   0.45611   0.00000  Uiso   1.00
C135   C     0.19016   0.68568   0.54290   0.00000  Uiso   1.00
C136   C     0.18999   0.68553   0.45810   0.00000  Uiso   1.00
C137   C     0.21868   0.71723   0.41290   0.00000  Uiso   1.00
C138   C     0.21811   0.71702   0.32594   0.00000  Uiso   1.00
C139   C     0.24934   0.74863   0.28448   0.00000  Uiso   1.00
C140   C     0.28050   0.78069   0.32516   0.00000  Uiso   1.00
H141   H     0.33755   0.83377   0.57148   0.00000  Uiso   1.00
H142   H     0.33703   0.83372   0.42642   0.00000  Uiso   1.00
H143   H     0.16758   0.65986   0.57308   0.00000  Uiso   1.00
H144   H     0.16729   0.65963   0.42836   0.00000  Uiso   1.00
H145   H     0.24997   0.74955   0.78119   0.00000  Uiso   1.00
H146   H     0.24884   0.74881   0.21873   0.00000  Uiso   1.00
C147   C     0.18514   0.68498   0.27591   0.00000  Uiso   1.00
C148   C     0.31175   0.81373   0.27399   0.00000  Uiso   1.00
C149   C     0.31303   0.81429   0.72487   0.00000  Uiso   1.00
C150   C     0.18573   0.68579   0.72482   0.00000  Uiso   1.00
C151   C     0.33216   0.80612   0.21284   0.00000  Uiso   1.00
C152   C     0.36058   0.83653   0.16378   0.00000  Uiso   1.00
X153   C     0.36945   0.87576   0.17346   0.00000  Uiso   1.00
C154   C     0.34845   0.88317   0.23376   0.00000  Uiso   1.00
C155   C     0.32004   0.85275   0.28266   0.00000  Uiso   1.00
C156   C     0.14581   0.67511   0.28740   0.00000  Uiso   1.00
C157   C     0.11528   0.64583   0.24028   0.00000  Uiso   1.00
X158   C     0.12276   0.62545   0.17839   0.00000  Uiso   1.00
C159   C     0.16239   0.63602   0.16585   0.00000  Uiso   1.00
C160   C     0.19291   0.66523   0.21355   0.00000  Uiso   1.00
C161   C     0.14646   0.67611   0.71322   0.00000  Uiso   1.00
C162   C     0.11578   0.64670   0.75983   0.00000  Uiso   1.00
X163   C     0.12306   0.62603   0.82135   0.00000  Uiso   1.00
C164   C     0.16266   0.63651   0.83422   0.00000  Uiso   1.00
C165   C     0.19332   0.66584   0.78699   0.00000  Uiso   1.00
C166   C     0.33300   0.80672   0.78709   0.00000  Uiso   1.00
C167   C     0.36181   0.83727   0.83545   0.00000  Uiso   1.00
X168   C     0.37178   0.87679   0.82381   0.00000  Uiso   1.00
C169   C     0.35103   0.88406   0.76237   0.00000  Uiso   1.00
C170   C     0.32214   0.85347   0.71454   0.00000  Uiso   1.00
H171   H     0.32636   0.77647   0.20351   0.00000  Uiso   1.00
H172   H     0.37595   0.82929   0.11872   0.00000  Uiso   1.00
H173   H     0.35409   0.91271   0.24369   0.00000  Uiso   1.00
H174   H     0.30440   0.85975   0.32754   0.00000  Uiso   1.00
H175   H     0.13862   0.69022   0.33319   0.00000  Uiso   1.00
H176   H     0.08562   0.63934   0.25261   0.00000  Uiso   1.00
H177   H     0.17002   0.62153   0.11941   0.00000  Uiso   1.00
H178   H     0.22279   0.67223   0.20203   0.00000  Uiso   1.00
H179   H     0.13941   0.69139   0.66755   0.00000  Uiso   1.00
H180   H     0.08617   0.64032   0.74732   0.00000  Uiso   1.00
H181   H     0.17013   0.62181   0.88046   0.00000  Uiso   1.00
H182   H     0.22315   0.67269   0.79857   0.00000  Uiso   1.00
H183   H     0.32655   0.77696   0.79790   0.00000  Uiso   1.00
H184   H     0.37659   0.82976   0.88144   0.00000  Uiso   1.00
H185   H     0.35705   0.91362   0.75069   0.00000  Uiso   1.00
H186   H     0.30677   0.86052   0.66909   0.00000  Uiso   1.00
C187   C     0.78363   0.50179   0.67460   0.00000  Uiso   1.00
C188   C     0.75188   0.50141   0.71545   0.00000  Uiso   1.00
C189   C     0.72060   0.50179   0.67423   0.00000  Uiso   1.00
C190   C     0.72085   0.50178   0.58722   0.00000  Uiso   1.00
C191   C     0.75243   0.50211   0.54381   0.00000  Uiso   1.00
C192   C     0.78351   0.50166   0.58754   0.00000  Uiso   1.00
C193   C     0.81283   0.49954   0.54272   0.00000  Uiso   1.00
C194   C     0.81289   0.49949   0.45777   0.00000  Uiso   1.00
C195   C     0.78365   0.50159   0.41264   0.00000  Uiso   1.00
C196   C     0.75251   0.50211   0.45614   0.00000  Uiso   1.00
C197   C     0.68962   0.49993   0.54214   0.00000  Uiso   1.00
C198   C     0.68972   0.49998   0.45726   0.00000  Uiso   1.00
C199   C     0.72106   0.50186   0.41249   0.00000  Uiso   1.00
C200   C     0.72100   0.50195   0.32552   0.00000  Uiso   1.00
C201   C     0.75224   0.50142   0.28450   0.00000  Uiso   1.00
C202   C     0.78387   0.50163   0.32555   0.00000  Uiso   1.00
H203   H     0.83586   0.49706   0.57291   0.00000  Uiso   1.00
H204   H     0.83596   0.49699   0.42782   0.00000  Uiso   1.00
H205   H     0.66413   0.49764   0.57207   0.00000  Uiso   1.00
H206   H     0.66432   0.49774   0.42706   0.00000  Uiso   1.00
H207   H     0.75205   0.50193   0.78120   0.00000  Uiso   1.00
H208   H     0.75249   0.50193   0.21875   0.00000  Uiso   1.00
C209   C     0.68944   0.50334   0.27485   0.00000  Uiso   1.00
C210   C     0.81670   0.50274   0.27461   0.00000  Uiso   1.00
C211   C     0.81650   0.50311   0.72563   0.00000  Uiso   1.00
C212   C     0.68883   0.50294   0.72479   0.00000  Uiso   1.00
C213   C     0.80868   0.47517   0.21220   0.00000  Uiso   1.00
C214   C     0.83891   0.47677   0.16296   0.00000  Uiso   1.00
X215   C     0.87851   0.50625   0.17383   0.00000  Uiso   1.00
C216   C     0.88621   0.53426   0.23557   0.00000  Uiso   1.00
C217   C     0.85596   0.53265   0.28437   0.00000  Uiso   1.00
C218   C     0.68091   0.53388   0.28383   0.00000  Uiso   1.00
C219   C     0.65208   0.53550   0.23574   0.00000  Uiso   1.00
X220   C     0.63089   0.50687   0.17595   0.00000  Uiso   1.00
C221   C     0.64001   0.47672   0.16586   0.00000  Uiso   1.00
C222   C     0.66886   0.47511   0.21416   0.00000  Uiso   1.00
C223   C     0.68001   0.53328   0.71570   0.00000  Uiso   1.00
C224   C     0.65115   0.53478   0.76394   0.00000  Uiso   1.00
X225   C     0.63020   0.50625   0.82409   0.00000  Uiso   1.00
C226   C     0.63957   0.47627   0.83424   0.00000  Uiso   1.00
C227   C     0.66845   0.47478   0.78575   0.00000  Uiso   1.00
C228   C     0.80859   0.47554   0.78794   0.00000  Uiso   1.00
C229   C     0.83890   0.47721   0.83693   0.00000  Uiso   1.00
X230   C     0.87846   0.50674   0.82583   0.00000  Uiso   1.00
C231   C     0.88605   0.53480   0.76431   0.00000  Uiso   1.00
C232   C     0.85571   0.53313   0.71578   0.00000  Uiso   1.00
H233   H     0.77882   0.45198   0.20185   0.00000  Uiso   1.00
H234   H     0.83110   0.45448   0.11685   0.00000  Uiso   1.00
H235   H     0.91587   0.55771   0.24678   0.00000  Uiso   1.00
H236   H     0.86333   0.55507   0.32998   0.00000  Uiso   1.00
H237   H     0.69667   0.55667   0.32838   0.00000  Uiso   1.00
H238   H     0.64630   0.55929   0.24589   0.00000  Uiso   1.00
H239   H     0.62453   0.45399   0.12107   0.00000  Uiso   1.00
H240   H     0.67486   0.45141   0.20463   0.00000  Uiso   1.00
H241   H     0.69561   0.55604   0.67102   0.00000  Uiso   1.00
H242   H     0.64521   0.55847   0.75374   0.00000  Uiso   1.00
H243   H     0.62430   0.45363   0.87930   0.00000  Uiso   1.00
H244   H     0.67466   0.45123   0.79544   0.00000  Uiso   1.00
H245   H     0.77877   0.45227   0.79833   0.00000  Uiso   1.00
H246   H     0.83119   0.45489   0.88292   0.00000  Uiso   1.00
H247   H     0.91567   0.55829   0.75299   0.00000  Uiso   1.00
H248   H     0.86296   0.55553   0.67019   0.00000  Uiso   1.00
C249   C     0.49644   0.28054   0.67303   0.00000  Uiso   1.00
C250   C     0.49719   0.24935   0.71401   0.00000  Uiso   1.00
C251   C     0.49756   0.21809   0.67273   0.00000  Uiso   1.00
C252   C     0.49786   0.21851   0.58591   0.00000  Uiso   1.00
C253   C     0.49702   0.24945   0.54250   0.00000  Uiso   1.00
C254   C     0.49689   0.28070   0.58606   0.00000  Uiso   1.00
C255   C     0.49888   0.31208   0.54116   0.00000  Uiso   1.00
C256   C     0.49914   0.31223   0.45626   0.00000  Uiso   1.00
C257   C     0.49738   0.28099   0.41133   0.00000  Uiso   1.00
C258   C     0.49717   0.24956   0.45497   0.00000  Uiso   1.00
C259   C     0.50058   0.18957   0.54107   0.00000  Uiso   1.00
C260   C     0.50056   0.18958   0.45638   0.00000  Uiso   1.00
C261   C     0.49794   0.21860   0.41162   0.00000  Uiso   1.00
C262   C     0.49769   0.21826   0.32488   0.00000  Uiso   1.00
C263   C     0.49792   0.24979   0.28346   0.00000  Uiso   1.00
C264   C     0.49746   0.28111   0.32430   0.00000  Uiso   1.00
H265   H     0.50113   0.33751   0.57120   0.00000  Uiso   1.00
H266   H     0.50152   0.33773   0.42623   0.00000  Uiso   1.00
H267   H     0.50354   0.16676   0.57099   0.00000  Uiso   1.00
H268   H     0.50348   0.16676   0.42639   0.00000  Uiso   1.00
H269   H     0.49654   0.24889   0.77976   0.00000  Uiso   1.00
H270   H     0.49746   0.24942   0.21770   0.00000  Uiso   1.00
C271   C     0.49671   0.18536   0.27522   0.00000  Uiso   1.00
C272   C     0.49633   0.31275   0.27337   0.00000  Uiso   1.00
C273   C     0.49502   0.31207   0.72373   0.00000  Uiso   1.00
C274   C     0.49688   0.18524   0.72249   0.00000  Uiso   1.00
C275   C     0.52424   0.33268   0.21178   0.00000  Uiso   1.00
C276   C     0.52284   0.36154   0.16309   0.00000  Uiso   1.00
X277   C     0.49326   0.37153   0.17382   0.00000  Uiso   1.00
C278   C     0.46485   0.35077   0.23456   0.00000  Uiso   1.00
C279   C     0.46624   0.32187   0.28278   0.00000  Uiso   1.00
C280   C     0.46656   0.14615   0.28510   0.00000  Uiso   1.00
C281   C     0.46573   0.11563   0.23872   0.00000  Uiso   1.00
X282   C     0.49472   0.12326   0.17984   0.00000  Uiso   1.00
C283   C     0.52449   0.16264   0.16903   0.00000  Uiso   1.00
C284   C     0.52538   0.19312   0.21571   0.00000  Uiso   1.00
C285   C     0.46697   0.14598   0.71231   0.00000  Uiso   1.00
C286   C     0.46638   0.11545   0.75820   0.00000  Uiso   1.00
X287   C     0.49538   0.12298   0.81710   0.00000  Uiso   1.00
C288   C     0.52488   0.16243   0.82853   0.00000  Uiso   1.00
C289   C     0.52553   0.19299   0.78224   0.00000  Uiso   1.00
C290   C     0.52258   0.33161   0.78592   0.00000  Uiso   1.00
C291   C     0.52118   0.36044   0.83441   0.00000  Uiso   1.00
X292   C     0.49202   0.37094   0.82281   0.00000  Uiso   1.00
C293   C     0.46399   0.35077   0.76119   0.00000  Uiso   1.00
C294   C     0.46530   0.32171   0.71321   0.00000  Uiso   1.00
H295   H     0.54756   0.32617   0.20179   0.00000  Uiso   1.00
H296   H     0.54541   0.37636   0.11763   0.00000  Uiso   1.00
H297   H     0.44129   0.35684   0.24551   0.00000  Uiso   1.00
H298   H     0.44360   0.30651   0.32780   0.00000  Uiso   1.00
H299   H     0.44355   0.13910   0.32910   0.00000  Uiso   1.00
H300   H     0.44214   0.08595   0.24896   0.00000  Uiso   1.00
H301   H     0.54740   0.17003   0.12463   0.00000  Uiso   1.00
H302   H     0.54883   0.22290   0.20582   0.00000  Uiso   1.00
H303   H     0.44395   0.13886   0.66830   0.00000  Uiso   1.00
H304   H     0.44295   0.08575   0.74740   0.00000  Uiso   1.00
H305   H     0.54777   0.16975   0.87298   0.00000  Uiso   1.00
H306   H     0.54880   0.22283   0.79252   0.00000  Uiso   1.00
H307   H     0.54564   0.32479   0.79665   0.00000  Uiso   1.00
H308   H     0.54347   0.37477   0.88055   0.00000  Uiso   1.00
H309   H     0.44079   0.35731   0.74970   0.00000  Uiso   1.00
H310   H     0.44293   0.30666   0.66752   0.00000  Uiso   1.00
C311   C     0.71889   0.21782   0.67576   0.00000  Uiso   1.00
C312   C     0.75044   0.24926   0.71712   0.00000  Uiso   1.00
C313   C     0.78227   0.28068   0.67624   0.00000  Uiso   1.00
C314   C     0.78192   0.28077   0.58912   0.00000  Uiso   1.00
C315   C     0.75047   0.24952   0.54546   0.00000  Uiso   1.00
C316   C     0.71880   0.21846   0.58887   0.00000  Uiso   1.00
C317   C     0.68703   0.18961   0.54397   0.00000  Uiso   1.00
C318   C     0.68684   0.18979   0.45920   0.00000  Uiso   1.00
C319   C     0.71837   0.21886   0.41431   0.00000  Uiso   1.00
C320   C     0.75025   0.24970   0.45782   0.00000  Uiso   1.00
C321   C     0.81136   0.31203   0.54411   0.00000  Uiso   1.00
C322   C     0.81121   0.31214   0.45915   0.00000  Uiso   1.00
C323   C     0.78153   0.28106   0.41421   0.00000  Uiso   1.00
C324   C     0.78148   0.28127   0.32718   0.00000  Uiso   1.00
C325   C     0.74947   0.25021   0.28620   0.00000  Uiso   1.00
C326   C     0.71804   0.21870   0.32738   0.00000  Uiso   1.00
H327   H     0.66130   0.16678   0.57392   0.00000  Uiso   1.00
H328   H     0.66104   0.16705   0.42923   0.00000  Uiso   1.00
H329   H     0.83468   0.33737   0.57413   0.00000  Uiso   1.00
H330   H     0.83445   0.33752   0.42904   0.00000  Uiso   1.00
H331   H     0.75075   0.24872   0.78285   0.00000  Uiso   1.00
H332   H     0.74955   0.24999   0.22043   0.00000  Uiso   1.00
C333   C     0.81445   0.31272   0.27632   0.00000  Uiso   1.00
C334   C     0.68611   0.18580   0.27714   0.00000  Uiso   1.00
C335   C     0.68701   0.18457   0.72550   0.00000  Uiso   1.00
C336   C     0.81540   0.31226   0.72712   0.00000  Uiso   1.00
C337   C     0.66556   0.19350   0.21644   0.00000  Uiso   1.00
C338   C     0.63636   0.16299   0.16871   0.00000  Uiso   1.00
X339   C     0.62682   0.12363   0.17951   0.00000  Uiso   1.00
C340   C     0.64790   0.11615   0.23949   0.00000  Uiso   1.00
C341   C     0.67709   0.14662   0.28688   0.00000  Uiso   1.00
C342   C     0.85346   0.32099   0.28482   0.00000  Uiso   1.00
C343   C     0.88385   0.34950   0.23611   0.00000  Uiso   1.00
X344   C     0.87641   0.37061   0.17612   0.00000  Uiso   1.00
C345   C     0.83720   0.36179   0.16661   0.00000  Uiso   1.00
C346   C     0.80681   0.33326   0.21554   0.00000  Uiso   1.00
C347   C     0.85462   0.32149   0.71673   0.00000  Uiso   1.00
C348   C     0.88520   0.35042   0.76457   0.00000  Uiso   1.00
X349   C     0.87791   0.37117   0.82599   0.00000  Uiso   1.00
C350   C     0.83835   0.36109   0.83766   0.00000  Uiso   1.00
C351   C     0.80780   0.33219   0.78939   0.00000  Uiso   1.00
C352   C     0.66664   0.19192   0.78706   0.00000  Uiso   1.00
C353   C     0.63699   0.16108   0.83330   0.00000  Uiso   1.00
X354   C     0.62657   0.12151   0.82004   0.00000  Uiso   1.00
C355   C     0.64764   0.11444   0.75916   0.00000  Uiso   1.00
C356   C     0.67740   0.14532   0.71349   0.00000  Uiso   1.00
H357   H     0.67190   0.22328   0.20636   0.00000  Uiso   1.00
H358   H     0.62104   0.17028   0.12360   0.00000  Uiso   1.00
H359   H     0.64192   0.08653   0.25000   0.00000  Uiso   1.00
H360   H     0.69279   0.13952   0.33144   0.00000  Uiso   1.00
H361   H     0.86047   0.30522   0.32937   0.00000  Uiso   1.00
H362   H     0.91338   0.35506   0.24581   0.00000  Uiso   1.00
H363   H     0.82995   0.37724   0.12174   0.00000  Uiso   1.00
H364   H     0.77715   0.32747   0.20635   0.00000  Uiso   1.00
H365   H     0.86171   0.30622   0.67114   0.00000  Uiso   1.00
H366   H     0.91479   0.35655   0.75278   0.00000  Uiso   1.00
H367   H     0.83081   0.37586   0.88362   0.00000  Uiso   1.00
H368   H     0.77802   0.32568   0.80023   0.00000  Uiso   1.00
H369   H     0.67339   0.22170   0.79886   0.00000  Uiso   1.00
H370   H     0.62201   0.16842   0.87912   0.00000  Uiso   1.00
H371   H     0.64130   0.08486   0.74646   0.00000  Uiso   1.00
H372   H     0.69296   0.13846   0.66814   0.00000  Uiso   1.00
O373   O     1.05554   0.46858  -0.15169   0.00000  Uiso   1.00
O374   O     1.09945   0.52105  -0.07538   0.00000  Uiso   1.00
X375   C     1.09137   0.49528  -0.13305   0.00000  Uiso   1.00
O376   O     0.94566   0.53420  -0.14619   0.00000  Uiso   1.00
O377   O     0.90158   0.48080  -0.07237   0.00000  Uiso   1.00
X378   C     0.90980   0.50748  -0.12810   0.00000  Uiso   1.00
O379   O     1.05571   0.58648  -0.15136   0.00000  Uiso   1.00
O380   O     1.09955   0.57784  -0.07515   0.00000  Uiso   1.00
X381   C     1.09151   0.59554  -0.13281   0.00000  Uiso   1.00
O382   O     0.94532   0.41096  -0.14657   0.00000  Uiso   1.00
O383   O     0.90141   0.42057  -0.07266   0.00000  Uiso   1.00
X384   C     0.90946   0.40193  -0.12835   0.00000  Uiso   1.00
Zr385  Zr    1.00044   0.45714  -0.10316   0.00000  Uiso   1.00
O386   O     0.99967   0.45964  -0.23140   0.00000  Uiso   1.00
O387   O     1.00136   0.40402  -0.09501   0.00000  Uiso   1.00
Zr388  Zr    1.00062   0.54280  -0.10312   0.00000  Uiso   1.00
O389   O     0.99968   0.53849  -0.23107   0.00000  Uiso   1.00
O390   O     1.00359   0.59796  -0.10374   0.00000  Uiso   1.00
O391   O     1.03573   0.51755  -0.11832   0.00000  Uiso   1.00
O392   O     0.96605   0.48281  -0.11735   0.00000  Uiso   1.00
O393   O     0.94535   0.41168   0.14572   0.00000  Uiso   1.00
O394   O     0.90138   0.42084   0.07091   0.00000  Uiso   1.00
X395   C     0.90958   0.40262   0.12710   0.00000  Uiso   1.00
O396   O     1.05554   0.58616   0.14994   0.00000  Uiso   1.00
O397   O     1.09951   0.57765   0.07407   0.00000  Uiso   1.00
X398   C     1.09136   0.59519   0.13185   0.00000  Uiso   1.00
O399   O     0.94565   0.53383   0.14515   0.00000  Uiso   1.00
O400   O     0.90154   0.48053   0.07119   0.00000  Uiso   1.00
X401   C     0.90978   0.50709   0.12723   0.00000  Uiso   1.00
O402   O     1.05527   0.46928   0.15126   0.00000  Uiso   1.00
O403   O     1.09936   0.52123   0.07426   0.00000  Uiso   1.00
X404   C     1.09114   0.49582   0.13264   0.00000  Uiso   1.00
Zr405  Zr    1.00036   0.45676   0.09992   0.00000  Uiso   1.00
O406   O     0.99981   0.45029   0.22731   0.00000  Uiso   1.00
O407   O     1.00093   0.40397   0.08168   0.00000  Uiso   1.00
Zr408  Zr    1.00048   0.54295   0.10052   0.00000  Uiso   1.00
O409   O     0.99787   0.54440   0.22863   0.00000  Uiso   1.00
O410   O     1.00174   0.59694   0.08793   0.00000  Uiso   1.00
Zr411  Zr    1.05999   0.52969  -0.00073   0.00000  Uiso   1.00
Zr412  Zr    0.94076   0.47023  -0.00093   0.00000  Uiso   1.00
O413   O     0.96642   0.48292   0.11533   0.00000  Uiso   1.00
O414   O     1.03520   0.51721   0.11662   0.00000  Uiso   1.00
O415   O     0.96460   0.43264  -0.00157   0.00000  Uiso   1.00
O416   O     1.03539   0.56638  -0.00108   0.00000  Uiso   1.00
O417   O     1.03546   0.46845  -0.00139   0.00000  Uiso   1.00
O418   O     0.96489   0.53166  -0.00122   0.00000  Uiso   1.00
H419   H     0.94891   0.47425  -0.16583   0.00000  Uiso   1.00
H420   H     1.05347   0.59511  -0.00108   0.00000  Uiso   1.00
H421   H     0.94952   0.47461   0.16415   0.00000  Uiso   1.00
H422   H     1.05367   0.45795  -0.00122   0.00000  Uiso   1.00
H423   H     0.98368   0.59630  -0.06483   0.00000  Uiso   1.00
H424   H     1.00230   0.60643   0.14384   0.00000  Uiso   1.00
H425   H     1.01539   0.53525   0.25004   0.00000  Uiso   1.00
H426   H     0.99415   0.46999   0.25082   0.00000  Uiso   1.00
H427   H     1.00240   0.39451   0.13654   0.00000  Uiso   1.00
H428   H     1.00217   0.39571  -0.15133   0.00000  Uiso   1.00
H429   H     0.99916   0.43577  -0.25203   0.00000  Uiso   1.00
H430   H     0.99951   0.56200  -0.25198   0.00000  Uiso   1.00
O431   O     0.41391   0.46923   0.15118   0.00000  Uiso   1.00
O432   O     0.42279   0.52186   0.07493   0.00000  Uiso   1.00
X433   C     0.40502   0.49604   0.13229   0.00000  Uiso   1.00
O434   O     0.58947   0.53442   0.14649   0.00000  Uiso   1.00
O435   O     0.57986   0.48098   0.07242   0.00000  Uiso   1.00
X436   C     0.59845   0.50768   0.12788   0.00000  Uiso   1.00
O437   O     0.53207   0.58684   0.15203   0.00000  Uiso   1.00
O438   O     0.47981   0.57848   0.07541   0.00000  Uiso   1.00
X439   C     0.50544   0.59591   0.13315   0.00000  Uiso   1.00
O440   O     0.46593   0.41134   0.14589   0.00000  Uiso   1.00
O441   O     0.51963   0.42095   0.07277   0.00000  Uiso   1.00
X442   C     0.49274   0.40229   0.12804   0.00000  Uiso   1.00
Zr443  Zr    0.45746   0.45768   0.10258   0.00000  Uiso   1.00
O444   O     0.46035   0.45974   0.23087   0.00000  Uiso   1.00
O445   O     0.40332   0.40472   0.09332   0.00000  Uiso   1.00
Zr446  Zr    0.54326   0.54322   0.10322   0.00000  Uiso   1.00
O447   O     0.53987   0.53879   0.23117   0.00000  Uiso   1.00
O448   O     0.59549   0.59834   0.10377   0.00000  Uiso   1.00
O449   O     0.48289   0.51810   0.11839   0.00000  Uiso   1.00
O450   O     0.51751   0.48319   0.11733   0.00000  Uiso   1.00
O451   O     0.46554   0.41143  -0.14704   0.00000  Uiso   1.00
O452   O     0.52108   0.41977  -0.06831   0.00000  Uiso   1.00
X453   C     0.49170   0.40139  -0.13005   0.00000  Uiso   1.00
O454   O     0.53139   0.58613  -0.15128   0.00000  Uiso   1.00
O455   O     0.47944   0.57815  -0.07435   0.00000  Uiso   1.00
X456   C     0.50491   0.59549  -0.13247   0.00000  Uiso   1.00
O457   O     0.58869   0.53367  -0.14621   0.00000  Uiso   1.00
O458   O     0.57970   0.48077  -0.07097   0.00000  Uiso   1.00
X459   C     0.59790   0.50713  -0.12727   0.00000  Uiso   1.00
O460   O     0.41374   0.46870  -0.15134   0.00000  Uiso   1.00
O461   O     0.42189   0.52377  -0.07123   0.00000  Uiso   1.00
X462   C     0.40407   0.49518  -0.13449   0.00000  Uiso   1.00
Zr463  Zr    0.45728   0.45746  -0.10072   0.00000  Uiso   1.00
O464   O     0.45588   0.45373  -0.22887   0.00000  Uiso   1.00
O465   O     0.40356   0.40470  -0.08521   0.00000  Uiso   1.00
Zr466  Zr    0.54347   0.54338  -0.10058   0.00000  Uiso   1.00
O467   O     0.54858   0.54860  -0.22833   0.00000  Uiso   1.00
O468   O     0.59637   0.59692  -0.08495   0.00000  Uiso   1.00
Zr469  Zr    0.47096   0.53041   0.00092   0.00000  Uiso   1.00
Zr470  Zr    0.53023   0.47065   0.00101   0.00000  Uiso   1.00
O471   O     0.51733   0.48312  -0.11538   0.00000  Uiso   1.00
O472   O     0.48292   0.51792  -0.11668   0.00000  Uiso   1.00
O473   O     0.46884   0.43321   0.00075   0.00000  Uiso   1.00
O474   O     0.53223   0.56698   0.00118   0.00000  Uiso   1.00
O475   O     0.43399   0.46927   0.00066   0.00000  Uiso   1.00
O476   O     0.56777   0.53205   0.00125   0.00000  Uiso   1.00
H477   H     0.52600   0.47454   0.16582   0.00000  Uiso   1.00
H478   H     0.54286   0.59571   0.00108   0.00000  Uiso   1.00
H479   H     0.52569   0.47415  -0.16351   0.00000  Uiso   1.00
H480   H     0.40532   0.45894   0.00041   0.00000  Uiso   1.00
H481   H     0.61415   0.59634   0.06661   0.00000  Uiso   1.00
H482   H     0.60561   0.60721  -0.14029   0.00000  Uiso   1.00
H483   H     0.53228   0.52205  -0.25113   0.00000  Uiso   1.00
H484   H     0.46608   0.48064  -0.24989   0.00000  Uiso   1.00
H485   H     0.39324   0.39553  -0.14057   0.00000  Uiso   1.00
H486   H     0.39392   0.39629   0.14946   0.00000  Uiso   1.00
H487   H     0.43682   0.43591   0.25110   0.00000  Uiso   1.00
H488   H     0.56362   0.56220   0.25219   0.00000  Uiso   1.00
O489   O     0.46782   0.05457   0.14841   0.00000  Uiso   1.00
O490   O     0.52269   0.10150   0.06714   0.00000  Uiso   1.00
X491   C     0.49416   0.09060   0.13060   0.00000  Uiso   1.00
O492   O     0.53335  -0.05512   0.14513   0.00000  Uiso   1.00
O493   O     0.48021  -0.09927   0.07057   0.00000  Uiso   1.00
X494   C     0.50669  -0.09092   0.12672   0.00000  Uiso   1.00
O495   O     0.58571   0.05470   0.14975   0.00000  Uiso   1.00
O496   O     0.57752   0.09846   0.07217   0.00000  Uiso   1.00
X497   C     0.59484   0.09039   0.13054   0.00000  Uiso   1.00
O498   O     0.41056  -0.05524   0.14274   0.00000  Uiso   1.00
O499   O     0.42015  -0.09932   0.06927   0.00000  Uiso   1.00
X500   C     0.40161  -0.09105   0.12464   0.00000  Uiso   1.00
Zr501  Zr    0.45681  -0.00021   0.09908   0.00000  Uiso   1.00
O502   O     0.45899  -0.00078   0.22739   0.00000  Uiso   1.00
O503   O     0.40380   0.00084   0.08913   0.00000  Uiso   1.00
Zr504  Zr    0.54220  -0.00023   0.10109   0.00000  Uiso   1.00
O505   O     0.53722  -0.00085   0.22890   0.00000  Uiso   1.00
O506   O     0.59726   0.00256   0.10344   0.00000  Uiso   1.00
O507   O     0.51714   0.03520   0.11452   0.00000  Uiso   1.00
O508   O     0.48221  -0.03471   0.11452   0.00000  Uiso   1.00
O509   O     0.41147  -0.05584  -0.14881   0.00000  Uiso   1.00
O510   O     0.42075  -0.09967  -0.07406   0.00000  Uiso   1.00
X511   C     0.40236  -0.09166  -0.13031   0.00000  Uiso   1.00
O512   O     0.58673   0.05406  -0.15264   0.00000  Uiso   1.00
O513   O     0.57799   0.09809  -0.07776   0.00000  Uiso   1.00
X514   C     0.59583   0.08992  -0.13468   0.00000  Uiso   1.00
O515   O     0.53382  -0.05600  -0.14603   0.00000  Uiso   1.00
O516   O     0.48019  -0.09970  -0.07239   0.00000  Uiso   1.00
X517   C     0.50692  -0.09175  -0.12776   0.00000  Uiso   1.00
O518   O     0.46864   0.05401  -0.15459   0.00000  Uiso   1.00
O519   O     0.52029   0.09812  -0.07693   0.00000  Uiso   1.00
X520   C     0.49482   0.08981  -0.13512   0.00000  Uiso   1.00
Zr521  Zr    0.45698  -0.00077  -0.10419   0.00000  Uiso   1.00
O522   O     0.45144  -0.00376  -0.23198   0.00000  Uiso   1.00
O523   O     0.40422   0.00022  -0.08899   0.00000  Uiso   1.00
Zr524  Zr    0.54313  -0.00085  -0.10293   0.00000  Uiso   1.00
O525   O     0.54529  -0.00427  -0.23077   0.00000  Uiso   1.00
O526   O     0.59697   0.00028  -0.08848   0.00000  Uiso   1.00
Zr527  Zr    0.52980   0.05894  -0.00349   0.00000  Uiso   1.00
Zr528  Zr    0.46998  -0.06015  -0.00178   0.00000  Uiso   1.00
O529   O     0.48309  -0.03477  -0.11836   0.00000  Uiso   1.00
O530   O     0.51760   0.03404  -0.12063   0.00000  Uiso   1.00
O531   O     0.43251  -0.03623  -0.00239   0.00000  Uiso   1.00
O532   O     0.56633   0.03421  -0.00139   0.00000  Uiso   1.00
O533   O     0.46858   0.03455  -0.00296   0.00000  Uiso   1.00
O534   O     0.53140  -0.03616  -0.00044   0.00000  Uiso   1.00
H535   H     0.47352  -0.05173   0.16320   0.00000  Uiso   1.00
H536   H     0.59506   0.05227  -0.00092   0.00000  Uiso   1.00
H537   H     0.47479  -0.05165  -0.16724   0.00000  Uiso   1.00
H538   H     0.45805   0.05272  -0.00298   0.00000  Uiso   1.00
H539   H     0.59580  -0.01728   0.06458   0.00000  Uiso   1.00
H540   H     0.60664   0.00048  -0.14407   0.00000  Uiso   1.00
H541   H     0.53613   0.01297  -0.25351   0.00000  Uiso   1.00
H542   H     0.47825   0.01105  -0.25439   0.00000  Uiso   1.00
H543   H     0.39479   0.00071  -0.14445   0.00000  Uiso   1.00
H544   H     0.39499   0.00127   0.14519   0.00000  Uiso   1.00
H545   H     0.43482  -0.00176   0.24762   0.00000  Uiso   1.00
H546   H     0.56043  -0.00133   0.25070   0.00000  Uiso   1.00
loop_
_geom_bond_atom_site_label_1
_geom_bond_atom_site_label_2
_geom_bond_distance
_geom_bond_site_symmetry_2
_ccdc_geom_bond_type
C1     C2      1.416   .     A
C1     C6      1.433   .     A
C1     C25     1.523   .     S
C2     C3      1.416   .     A
C2     H21     1.084   .     S
C3     C4      1.433   .     A
C3     C26     1.523   .     S
C4     C5      1.428   .     A
C4     C11     1.407   .     A
C5     C6      1.427   .     A
C5     C10     1.443   .     A
C6     C7      1.408   .     A
C7     C8      1.398   .     A
C7     H17     1.081   .     S
C8     C9      1.407   .     A
C8     H18     1.081   .     S
C9     C10     1.428   .     A
C9     C16     1.434   .     A
C10    C13     1.427   .     A
C11    C12     1.397   .     A
C11    H19     1.081   .     S
C12    C13     1.407   .     A
C12    H20     1.081   .     S
C13    C14     1.431   .     A
C14    C15     1.414   .     A
C14    C23     1.519   .     S
C15    C16     1.415   .     A
C15    H22     1.084   .     S
C16    C24     1.523   .     S
C23    C32     1.409   .     A
C23    C36     1.411   .     A
C24    C27     1.411   .     A
C24    C31     1.409   .     A
C25    C42     1.411   .     A
C25    C46     1.409   .     A
C26    C37     1.411   .     A
C26    C41     1.409   .     A
C27    C28     1.415   .     A
C27    H47     1.083   .     S
C28    X29     1.415   .     A
C28    H48     1.083   .     S
X29    C30     1.416   .     A
X29    X404    1.436   1_455 A
C30    C31     1.412   .     A
C30    H49     1.083   .     S
C31    H50     1.083   .     S
C32    C33     1.411   .     A
C32    H51     1.083   .     S
C33    X34     1.413   .     A
C33    H52     1.083   .     S
X34    C35     1.412   .     A
X34    X433    1.515   .     S
C35    C36     1.414   .     A
C35    H53     1.083   .     S
C36    H54     1.083   .     S
C37    C38     1.414   .     A
C37    H55     1.083   .     S
C38    X39     1.416   .     A
C38    H56     1.083   .     S
X39    C40     1.416   .     A
X39    X462    1.436   1_556 A
C40    C41     1.413   .     A
C40    H57     1.083   .     S
C41    H58     1.083   .     S
C42    C43     1.416   .     A
C42    H59     1.083   .     S
C43    X44     1.416   .     A
C43    H60     1.083   .     S
X44    C45     1.416   .     A
X44    X375    1.437   1_456 A
C45    C46     1.411   .     A
C45    H61     1.083   .     S
C46    H62     1.083   .     S
C63    C64     1.414   .     A
C63    C68     1.432   .     A
C63    C87     1.522   .     S
C64    C65     1.415   .     A
C64    H83     1.084   .     S
C65    C66     1.434   .     A
C65    C88     1.521   .     S
C66    C67     1.427   .     A
C66    C73     1.409   .     A
C67    C68     1.428   .     A
C67    C72     1.443   .     A
C68    C69     1.407   .     A
C69    C70     1.397   .     A
C69    H79     1.081   .     S
C70    C71     1.407   .     A
C70    H80     1.081   .     S
C71    C72     1.427   .     A
C71    C78     1.430   .     A
C72    C75     1.429   .     A
C73    C74     1.400   .     A
C73    H81     1.081   .     S
C74    C75     1.407   .     A
C74    H82     1.081   .     S
C75    C76     1.434   .     A
C76    C77     1.413   .     A
C76    C85     1.520   .     S
C77    C78     1.412   .     A
C77    H84     1.084   .     S
C78    C86     1.516   .     S
C85    C94     1.409   .     A
C85    C98     1.412   .     A
C86    C89     1.410   .     A
C86    C93     1.408   .     A
C87    C104    1.411   .     A
C87    C108    1.409   .     A
C88    C99     1.408   .     A
C88    C103    1.411   .     A
C89    C90     1.413   .     A
C89    H109    1.083   .     S
C90    X91     1.412   .     A
C90    H110    1.083   .     S
X91    C92     1.412   .     A
X91    X439    1.512   .     S
C92    C93     1.410   .     A
C92    H111    1.083   .     S
C93    H112    1.083   .     S
C94    C95     1.412   .     A
C94    H113    1.083   .     S
C95    X96     1.414   .     A
C95    H114    1.083   .     S
X96    C97     1.412   .     A
X96    X494    1.516   1_565 S
C97    C98     1.414   .     A
C97    H115    1.083   .     S
C98    H116    1.083   .     S
C99    C100    1.411   .     A
C99    H117    1.083   .     S
C100   X101    1.417   .     A
C100   H118    1.083   .     S
X101   C102    1.415   .     A
X101   X517    1.436   1_566 A
C102   C103    1.414   .     A
C102   H119    1.083   .     S
C103   H120    1.083   .     S
C104   C105    1.415   .     A
C104   H121    1.083   .     S
C105   X106    1.415   .     A
C105   H122    1.083   .     S
X106   C107    1.416   .     A
X106   X456    1.436   1_556 A
C107   C108    1.411   .     A
C107   H123    1.083   .     S
C108   H124    1.083   .     S
C125   C126    1.416   .     A
C125   C130    1.436   .     A
C125   C149    1.525   .     S
C126   C127    1.415   .     A
C126   H145    1.084   .     S
C127   C128    1.433   .     A
C127   C150    1.523   .     S
C128   C129    1.428   .     A
C128   C135    1.408   .     A
C129   C130    1.429   .     A
C129   C134    1.445   .     A
C130   C131    1.408   .     A
C131   C132    1.400   .     A
C131   H141    1.081   .     S
C132   C133    1.408   .     A
C132   H142    1.081   .     S
C133   C134    1.428   .     A
C133   C140    1.435   .     A
C134   C137    1.429   .     A
C135   C136    1.398   .     A
C135   H143    1.081   .     S
C136   C137    1.407   .     A
C136   H144    1.081   .     S
C137   C138    1.434   .     A
C138   C139    1.414   .     A
C138   C147    1.523   .     S
C139   C140    1.414   .     A
C139   H146    1.084   .     S
C140   C148    1.522   .     S
C147   C156    1.409   .     A
C147   C160    1.412   .     A
C148   C151    1.412   .     A
C148   C155    1.410   .     A
C149   C166    1.412   .     A
C149   C170    1.409   .     A
C150   C161    1.409   .     A
C150   C165    1.411   .     A
C151   C152    1.415   .     A
C151   H171    1.083   .     S
C152   X153    1.412   .     A
C152   H172    1.083   .     S
X153   C154    1.414   .     A
X153   X500    1.518   1_565 S
C154   C155    1.413   .     A
C154   H173    1.083   .     S
C155   H174    1.083   .     S
C156   C157    1.412   .     A
C156   H175    1.083   .     S
C157   X158    1.417   .     A
C157   H176    1.083   .     S
X158   C159    1.415   .     A
X158   X398    1.437   1_455 A
C159   C160    1.416   .     A
C159   H177    1.083   .     S
C160   H178    1.083   .     S
C161   C162    1.411   .     A
C161   H179    1.083   .     S
C162   X163    1.417   .     A
C162   H180    1.083   .     S
X163   C164    1.416   .     A
X163   X381    1.437   1_456 A
C164   C165    1.416   .     A
C164   H181    1.083   .     S
C165   H182    1.083   .     S
C166   C167    1.416   .     A
C166   H183    1.083   .     S
C167   X168    1.415   .     A
C167   H184    1.083   .     S
X168   C169    1.417   .     A
X168   X511    1.439   1_566 A
C169   C170    1.413   .     A
C169   H185    1.083   .     S
C170   H186    1.083   .     S
C187   C188    1.414   .     A
C187   C192    1.435   .     A
C187   C211    1.523   .     S
C188   C189    1.414   .     A
C188   H207    1.084   .     S
C189   C190    1.434   .     A
C189   C212    1.523   .     S
C190   C191    1.429   .     A
C190   C197    1.408   .     A
C191   C192    1.429   .     A
C191   C196    1.445   .     A
C192   C193    1.408   .     A
C193   C194    1.400   .     A
C193   H203    1.081   .     S
C194   C195    1.408   .     A
C194   H204    1.081   .     S
C195   C196    1.429   .     A
C195   C202    1.436   .     A
C196   C199    1.428   .     A
C197   C198    1.399   .     A
C197   H205    1.081   .     S
C198   C199    1.408   .     A
C198   H206    1.081   .     S
C199   C200    1.433   .     A
C200   C201    1.413   .     A
C200   C209    1.521   .     S
C201   C202    1.414   .     A
C201   H208    1.084   .     S
C202   C210    1.524   .     S
C209   C218    1.409   .     A
C209   C222    1.412   .     A
C210   C213    1.412   .     A
C210   C217    1.408   .     A
C211   C228    1.412   .     A
C211   C232    1.408   .     A
C212   C223    1.409   .     A
C212   C227    1.412   .     A
C213   C214    1.416   .     A
C213   H233    1.083   .     S
C214   X215    1.415   .     A
C214   H234    1.083   .     S
X215   C216    1.418   .     A
X215   X401    1.438   .     A
C216   C217    1.412   .     A
C216   H235    1.083   .     S
C217   H236    1.083   .     S
C218   C219    1.412   .     A
C218   H237    1.083   .     S
C219   X220    1.414   .     A
C219   H238    1.083   .     S
X220   C221    1.412   .     A
X220   X436    1.517   .     S
C221   C222    1.415   .     A
C221   H239    1.083   .     S
C222   H240    1.083   .     S
C223   C224    1.412   .     A
C223   H241    1.083   .     S
C224   X225    1.414   .     A
C224   H242    1.083   .     S
X225   C226    1.412   .     A
X225   X459    1.519   1_556 S
C226   C227    1.415   .     A
C226   H243    1.083   .     S
C227   H244    1.083   .     S
C228   C229    1.415   .     A
C228   H245    1.083   .     S
C229   X230    1.415   .     A
C229   H246    1.083   .     S
X230   C231    1.417   .     A
X230   X378    1.437   1_556 A
C231   C232    1.412   .     A
C231   H247    1.083   .     S
C232   H248    1.083   .     S
C249   C250    1.415   .     A
C249   C254    1.434   .     A
C249   C273    1.521   .     S
C250   C251    1.413   .     A
C250   H269    1.084   .     S
C251   C252    1.431   .     A
C251   C274    1.521   .     S
C252   C253    1.428   .     A
C252   C259    1.407   .     A
C253   C254    1.427   .     A
C253   C258    1.443   .     A
C254   C255    1.409   .     A
C255   C256    1.399   .     A
C255   H265    1.081   .     S
C256   C257    1.408   .     A
C256   H266    1.081   .     S
C257   C258    1.428   .     A
C257   C264    1.435   .     A
C258   C261    1.427   .     A
C259   C260    1.396   .     A
C259   H267    1.081   .     S
C260   C261    1.407   .     A
C260   H268    1.081   .     S
C261   C262    1.430   .     A
C262   C263    1.413   .     A
C262   C271    1.517   .     S
C263   C264    1.414   .     A
C263   H270    1.084   .     S
C264   C272    1.522   .     S
C271   C280    1.410   .     A
C271   C284    1.409   .     A
C272   C275    1.412   .     A
C272   C279    1.408   .     A
C273   C290    1.409   .     A
C273   C294    1.410   .     A
C274   C285    1.409   .     A
C274   C289    1.411   .     A
C275   C276    1.415   .     A
C275   H295    1.083   .     S
C276   X277    1.415   .     A
C276   H296    1.083   .     S
X277   C278    1.417   .     A
X277   X442    1.436   .     A
C278   C279    1.412   .     A
C278   H297    1.083   .     S
C279   H298    1.083   .     S
C280   C281    1.411   .     A
C280   H299    1.083   .     S
C281   X282    1.412   .     A
C281   H300    1.083   .     S
X282   C283    1.412   .     A
X282   X491    1.512   .     S
C283   C284    1.412   .     A
C283   H301    1.083   .     S
C284   H302    1.083   .     S
C285   C286    1.411   .     A
C285   H303    1.083   .     S
C286   X287    1.413   .     A
C286   H304    1.083   .     S
X287   C288    1.412   .     A
X287   X520    1.516   1_556 S
C288   C289    1.415   .     A
C288   H305    1.083   .     S
C289   H306    1.083   .     S
C290   C291    1.412   .     A
C290   H307    1.083   .     S
C291   X292    1.415   .     A
C291   H308    1.083   .     S
X292   C293    1.416   .     A
X292   X453    1.434   1_556 A
C293   C294    1.413   .     A
C293   H309    1.083   .     S
C294   H310    1.083   .     S
C311   C312    1.416   .     A
C311   C316    1.432   .     A
C311   C335    1.523   .     S
C312   C313    1.416   .     A
C312   H331    1.084   .     S
C313   C314    1.436   .     A
C313   C336    1.526   .     S
C314   C315    1.429   .     A
C314   C321    1.408   .     A
C315   C316    1.428   .     A
C315   C320    1.445   .     A
C316   C317    1.408   .     A
C317   C318    1.397   .     A
C317   H327    1.081   .     S
C318   C319    1.407   .     A
C318   H328    1.081   .     S
C319   C320    1.429   .     A
C319   C326    1.433   .     A
C320   C323    1.428   .     A
C321   C322    1.400   .     A
C321   H329    1.081   .     S
C322   C323    1.408   .     A
C322   H330    1.081   .     S
C323   C324    1.435   .     A
C324   C325    1.414   .     A
C324   C333    1.521   .     S
C325   C326    1.413   .     A
C325   H332    1.084   .     S
C326   C334    1.522   .     S
C333   C342    1.409   .     A
C333   C346    1.412   .     A
C334   C337    1.412   .     A
C334   C341    1.409   .     A
C335   C352    1.410   .     A
C335   C356    1.410   .     A
C336   C347    1.409   .     A
C336   C351    1.412   .     A
C337   C338    1.416   .     A
C337   H357    1.083   .     S
C338   X339    1.412   .     A
C338   H358    1.083   .     S
X339   C340    1.414   .     A
X339   X497    1.518   .     S
C340   C341    1.411   .     A
C340   H359    1.083   .     S
C341   H360    1.083   .     S
C342   C343    1.412   .     A
C342   H361    1.083   .     S
C343   X344    1.414   .     A
C343   H362    1.083   .     S
X344   C345    1.412   .     A
X344   X395    1.517   .     S
C345   C346    1.415   .     A
C345   H363    1.083   .     S
C346   H364    1.083   .     S
C347   C348    1.414   .     A
C347   H365    1.083   .     S
C348   X349    1.418   .     A
C348   H366    1.083   .     S
X349   C350    1.416   .     A
X349   X384    1.440   1_556 A
C350   C351    1.417   .     A
C350   H367    1.083   .     S
C351   H368    1.083   .     S
C352   C353    1.415   .     A
C352   H369    1.083   .     S
C353   X354    1.416   .     A
C353   H370    1.083   .     S
X354   C355    1.416   .     A
X354   X514    1.437   1_556 A
C355   C356    1.412   .     A
C355   H371    1.083   .     S
C356   H372    1.083   .     S
O373   Zr385   2.139   .     S
O373   X375    1.307   .     A
O374   Zr411   2.139   .     S
O374   X375    1.308   .     A
X375   X44     1.437   1_654 A
O376   Zr388   2.138   .     S
O376   X378    1.306   .     A
O377   Zr412   2.141   .     S
O377   X378    1.309   .     A
X378   X230    1.437   1_554 A
O379   Zr388   2.137   .     S
O379   X381    1.306   .     A
O380   Zr411   2.139   .     S
O380   X381    1.308   .     A
X381   X163    1.437   1_654 A
O382   Zr385   2.141   .     S
O382   X384    1.307   .     A
O383   Zr412   2.143   .     S
O383   X384    1.310   .     A
X384   X349    1.440   1_554 A
Zr385  Zr411   3.133   .     S
Zr385  Zr412   3.137   .     S
Zr385  O386    2.117   .     S
Zr385  O387    2.115   .     S
Zr385  O391    2.085   .     S
Zr385  O392    2.069   .     S
Zr385  O415    2.089   .     S
Zr385  O417    2.074   .     S
O386   H429    0.991   .     S
O387   H428    0.990   .     S
Zr388  Zr412   3.135   .     S
Zr388  Zr411   3.129   .     S
Zr388  O389    2.115   .     S
Zr388  O390    2.116   .     S
Zr388  O392    2.068   .     S
Zr388  O391    2.083   .     S
Zr388  O416    2.072   .     S
Zr388  O418    2.092   .     S
O389   H430    0.991   .     S
O390   H423    0.990   .     S
O391   Zr411   2.107   .     S
O392   Zr412   2.104   .     S
O392   H419    0.990   .     S
O393   Zr405   2.138   .     S
O393   X395    1.305   .     A
O394   Zr412   2.139   .     S
O394   X395    1.307   .     A
O396   Zr408   2.138   .     S
O396   X398    1.305   .     A
O397   Zr411   2.138   .     S
O397   X398    1.307   .     A
X398   X158    1.437   1_655 A
O399   Zr408   2.135   .     S
O399   X401    1.306   .     A
O400   Zr412   2.143   .     S
O400   X401    1.309   .     A
O402   Zr405   2.138   .     S
O402   X404    1.306   .     A
O403   Zr411   2.136   .     S
O403   X404    1.307   .     A
X404   X29     1.436   1_655 A
Zr405  Zr412   3.130   .     S
Zr405  Zr411   3.126   .     S
Zr405  O406    2.114   .     S
Zr405  O407    2.112   .     S
Zr405  O413    2.071   .     S
Zr405  O414    2.088   .     S
Zr405  O417    2.068   .     S
Zr405  O415    2.085   .     S
O406   H426    0.988   .     S
O407   H427    0.990   .     S
Zr408  Zr411   3.126   .     S
Zr408  Zr412   3.130   .     S
Zr408  O409    2.116   .     S
Zr408  O410    2.112   .     S
Zr408  O414    2.087   .     S
Zr408  O413    2.068   .     S
Zr408  O418    2.086   .     S
Zr408  O416    2.068   .     S
O409   H425    0.989   .     S
O410   H424    0.991   .     S
Zr411  O414    2.111   .     S
Zr411  O416    2.104   .     S
Zr411  O417    2.103   .     S
Zr412  O413    2.107   .     S
Zr412  O415    2.113   .     S
Zr412  O418    2.112   .     S
O413   H421    0.990   .     S
O416   H420    0.991   .     S
O417   H422    0.991   .     S
O431   Zr443   2.138   .     S
O431   X433    1.305   .     A
O432   Zr469   2.136   .     S
O432   X433    1.306   .     A
O434   Zr446   2.138   .     S
O434   X436    1.304   .     A
O435   Zr470   2.139   .     S
O435   X436    1.307   .     A
O437   Zr446   2.133   .     S
O437   X439    1.304   .     A
O438   Zr469   2.134   .     S
O438   X439    1.305   .     A
O440   Zr443   2.136   .     S
O440   X442    1.306   .     A
O441   Zr470   2.142   .     S
O441   X442    1.309   .     A
Zr443  Zr469   3.126   .     S
Zr443  Zr470   3.133   .     S
Zr443  O444    2.117   .     S
Zr443  O445    2.115   .     S
Zr443  O449    2.086   .     S
Zr443  O450    2.070   .     S
Zr443  O473    2.093   .     S
Zr443  O475    2.075   .     S
O444   H487    0.991   .     S
O445   H486    0.990   .     S
Zr446  Zr470   3.131   .     S
Zr446  Zr469   3.126   .     S
Zr446  O447    2.115   .     S
Zr446  O448    2.117   .     S
Zr446  O450    2.067   .     S
Zr446  O449    2.084   .     S
Zr446  O474    2.074   .     S
Zr446  O476    2.092   .     S
O447   H488    0.991   .     S
O448   H481    0.990   .     S
O449   Zr469   2.105   .     S
O450   Zr470   2.102   .     S
O450   H477    0.990   .     S
O451   Zr463   2.137   .     S
O451   X453    1.306   .     A
O452   Zr470   2.175   .     S
O452   X453    1.436   .     S
X453   X292    1.434   1_554 A
O454   Zr466   2.136   .     S
O454   X456    1.305   .     A
O455   Zr469   2.135   .     S
O455   X456    1.306   .     A
X456   X106    1.436   1_554 A
O457   Zr466   2.136   .     S
O457   X459    1.304   .     A
O458   Zr470   2.141   .     S
O458   X459    1.307   .     A
X459   X225    1.519   1_554 S
O460   Zr463   2.143   .     S
O460   X462    1.306   .     A
O461   Zr469   2.171   .     S
O461   X462    1.434   .     S
X462   X39     1.436   1_554 A
Zr463  Zr470   3.138   .     S
Zr463  Zr469   3.131   .     S
Zr463  O464    2.116   .     S
Zr463  O465    2.113   .     S
Zr463  O471    2.070   .     S
Zr463  O472    2.087   .     S
Zr463  O475    2.068   .     S
Zr463  O473    2.086   .     S
O464   H484    0.990   .     S
O465   H485    0.991   .     S
Zr466  Zr469   3.124   .     S
Zr466  Zr470   3.128   .     S
Zr466  O467    2.116   .     S
Zr466  O468    2.112   .     S
Zr466  O472    2.091   .     S
Zr466  O471    2.076   .     S
Zr466  O476    2.088   .     S
Zr466  O474    2.070   .     S
O467   H483    0.988   .     S
O468   H482    0.991   .     S
Zr469  O472    2.110   .     S
Zr469  O474    2.103   .     S
Zr469  O475    2.101   .     S
Zr470  O471    2.105   .     S
Zr470  O473    2.111   .     S
Zr470  O476    2.112   .     S
O471   H479    0.989   .     S
O474   H478    0.991   .     S
O475   H480    0.991   .     S
O489   Zr501   2.137   .     S
O489   X491    1.305   .     A
O490   Zr527   2.171   .     S
O490   X491    1.435   .     S
O492   Zr504   2.138   .     S
O492   X494    1.305   .     A
O493   Zr528   2.140   .     S
O493   X494    1.308   .     A
X494   X96     1.516   1_545 S
O495   Zr504   2.134   .     S
O495   X497    1.304   .     A
O496   Zr527   2.141   .     S
O496   X497    1.307   .     A
O498   Zr501   2.141   .     S
O498   X500    1.306   .     A
O499   Zr528   2.139   .     S
O499   X500    1.308   .     A
X500   X153    1.518   1_545 S
Zr501  Zr527   3.139   .     S
Zr501  Zr528   3.136   .     S
Zr501  O502    2.117   .     S
Zr501  O503    2.115   .     S
Zr501  O507    2.084   .     S
Zr501  O508    2.067   .     S
Zr501  O531    2.090   .     S
Zr501  O533    2.070   .     S
O502   H545    0.991   .     S
O503   H544    0.990   .     S
Zr504  Zr528   3.134   .     S
Zr504  Zr527   3.127   .     S
Zr504  O505    2.115   .     S
Zr504  O506    2.116   .     S
Zr504  O508    2.066   .     S
Zr504  O507    2.085   .     S
Zr504  O532    2.076   .     S
Zr504  O534    2.093   .     S
O505   H546    0.991   .     S
O506   H539    0.990   .     S
O507   Zr527   2.107   .     S
O508   Zr528   2.104   .     S
O508   H535    0.990   .     S
O509   Zr521   2.138   .     S
O509   X511    1.306   .     A
O510   Zr528   2.141   .     S
O510   X511    1.309   .     A
X511   X168    1.439   1_544 A
O512   Zr524   2.141   .     S
O512   X514    1.306   .     A
O513   Zr527   2.134   .     S
O513   X514    1.305   .     A
X514   X354    1.437   1_554 A
O515   Zr524   2.136   .     S
O515   X517    1.306   .     S
O516   Zr528   2.137   .     S
O516   X517    1.308   .     D
X517   X101    1.436   1_544 A
O518   Zr521   2.137   .     S
O518   X520    1.304   .     A
O519   Zr527   2.137   .     S
O519   X520    1.306   .     A
X520   X287    1.516   1_554 S
Zr521  Zr528   3.127   .     S
Zr521  Zr527   3.125   .     S
Zr521  O522    2.115   .     S
Zr521  O523    2.113   .     S
Zr521  O529    2.069   .     S
Zr521  O530    2.093   .     S
Zr521  O533    2.072   .     S
Zr521  O531    2.085   .     S
O522   H542    0.988   .     S
O523   H543    0.991   .     S
Zr524  Zr527   3.121   .     S
Zr524  Zr528   3.131   .     S
Zr524  O525    2.116   .     S
Zr524  O526    2.112   .     S
Zr524  O530    2.089   .     S
Zr524  O529    2.069   .     S
Zr524  O534    2.088   .     S
Zr524  O532    2.069   .     S
O525   H541    0.988   .     S
O526   H540    0.991   .     S
Zr527  O530    2.109   .     S
Zr527  O532    2.102   .     S
Zr527  O533    2.103   .     S
Zr528  O529    2.108   .     S
Zr528  O531    2.111   .     S
Zr528  O534    2.112   .     S
O529   H537    0.990   .     S
O532   H536    0.991   .     S
O533   H538    0.991   .     S
