data_ja406030p_si_009_clean
_audit_creation_date              2015-10-30
_audit_creation_method            'Materials Studio'
_symmetry_space_group_name_H-M    'P1'
_symmetry_Int_Tables_number       1
_symmetry_cell_setting            triclinic
loop_
_symmetry_equiv_pos_as_xyz
  x,y,z
_cell_length_a                    19.2343
_cell_length_b                    19.2343
_cell_length_c                    36.0090
_cell_angle_alpha                 90.0000
_cell_angle_beta                  90.0000
_cell_angle_gamma                 120.0000
loop_
_atom_site_label
_atom_site_type_symbol
_atom_site_fract_x
_atom_site_fract_y
_atom_site_fract_z
_atom_site_U_iso_or_equiv
_atom_site_adp_type
_atom_site_occupancy
H1     H     0.28220   0.92240   0.91990   0.01267  Uiso   1.00
H2     H     0.90990   0.55500   0.59300   0.01267  Uiso   1.00
H3     H     0.23220   0.96460   0.88290   0.01267  Uiso   1.00
H4     H     0.67480   0.14230   0.84770   0.01267  Uiso   1.00
C5     C     0.10190   0.49310   0.39495   0.01267  Uiso   1.00
C6     C     0.79410   0.07770   0.13540   0.01267  Uiso   1.00
C7     C     0.56700   0.72130   0.95909   0.01267  Uiso   1.00
C8     C     0.90213   0.35763   0.02344   0.01267  Uiso   1.00
C9     C     0.37300   0.50550   0.14070   0.01267  Uiso   1.00
C10    C     0.37880   0.12970   0.42920   0.01267  Uiso   1.00
O11    O     0.63013   0.11332   0.99128   0.01267  Uiso   1.00
O12    O     0.44493   0.40603   0.04242   0.01267  Uiso   1.00
O13    O     0.34060   0.79788   0.21003   0.01267  Uiso   1.00
H14    H     0.07760   0.35980   0.91990   0.01267  Uiso   1.00
H15    H     0.44500   0.35490   0.59300   0.01267  Uiso   1.00
H16    H     0.85770   0.53250   0.84770   0.01267  Uiso   1.00
H17    H     0.24590   0.33030   0.85120   0.01267  Uiso   1.00
C18    C     0.50690   0.60880   0.39495   0.01267  Uiso   1.00
C19    C     0.92230   0.71640   0.13540   0.01267  Uiso   1.00
C20    C     0.27870   0.84570   0.95909   0.01267  Uiso   1.00
C21    C     0.64237   0.54450   0.02344   0.01267  Uiso   1.00
C22    C     0.49450   0.86750   0.14070   0.01267  Uiso   1.00
C23    C     0.87030   0.24910   0.42920   0.01267  Uiso   1.00
O24    O     0.88668   0.51681   0.99128   0.01267  Uiso   1.00
O25    O     0.59397   0.03890   0.04242   0.01267  Uiso   1.00
O26    O     0.20212   0.54272   0.21003   0.01267  Uiso   1.00
H27    H     0.93650   0.76020   0.34730   0.01267  Uiso   1.00
H28    H     0.64020   0.71780   0.91990   0.01267  Uiso   1.00
H29    H     0.64510   0.09010   0.59300   0.01267  Uiso   1.00
H30    H     0.46750   0.32520   0.84770   0.01267  Uiso   1.00
H31    H     0.66970   0.91560   0.85120   0.01267  Uiso   1.00
C32    C     0.39120   0.89810   0.39495   0.01267  Uiso   1.00
C33    C     0.28360   0.20590   0.13540   0.01267  Uiso   1.00
C34    C     0.15430   0.43300   0.95909   0.01267  Uiso   1.00
C35    C     0.45550   0.09787   0.02344   0.01267  Uiso   1.00
C36    C     0.13250   0.62700   0.14070   0.01267  Uiso   1.00
C37    C     0.75090   0.62120   0.42920   0.01267  Uiso   1.00
O38    O     0.48319   0.36987   0.99128   0.01267  Uiso   1.00
O39    O     0.96110   0.55507   0.04242   0.01267  Uiso   1.00
O40    O     0.45728   0.65940   0.21003   0.01267  Uiso   1.00
H41    H     0.71780   0.07760   0.41990   0.01267  Uiso   1.00
H42    H     0.09010   0.44500   0.09300   0.01267  Uiso   1.00
H43    H     0.32520   0.85770   0.34770   0.01267  Uiso   1.00
H44    H     0.91560   0.24590   0.35120   0.01267  Uiso   1.00
C45    C     0.89810   0.50690   0.89495   0.01267  Uiso   1.00
C46    C     0.43300   0.27870   0.45909   0.01267  Uiso   1.00
C47    C     0.09787   0.64237   0.52344   0.01267  Uiso   1.00
C48    C     0.62700   0.49450   0.64070   0.01267  Uiso   1.00
C49    C     0.62120   0.87030   0.92920   0.01267  Uiso   1.00
O50    O     0.36987   0.88668   0.49128   0.01267  Uiso   1.00
O51    O     0.55507   0.59397   0.54242   0.01267  Uiso   1.00
O52    O     0.65940   0.20212   0.71003   0.01267  Uiso   1.00
H53    H     0.17630   0.93650   0.84730   0.01267  Uiso   1.00
H54    H     0.92240   0.64020   0.41990   0.01267  Uiso   1.00
H55    H     0.55500   0.64510   0.09300   0.01267  Uiso   1.00
H56    H     0.96460   0.73240   0.38290   0.01267  Uiso   1.00
H57    H     0.14230   0.46750   0.34770   0.01267  Uiso   1.00
C58    C     0.49310   0.39120   0.89495   0.01267  Uiso   1.00
C59    C     0.07770   0.28360   0.63540   0.01267  Uiso   1.00
C60    C     0.72130   0.15430   0.45909   0.01267  Uiso   1.00
C61    C     0.35763   0.45550   0.52344   0.01267  Uiso   1.00
C62    C     0.50550   0.13250   0.64070   0.01267  Uiso   1.00
C63    C     0.12970   0.75090   0.92920   0.01267  Uiso   1.00
O64    O     0.11332   0.48319   0.49128   0.01267  Uiso   1.00
O65    O     0.40603   0.96110   0.54242   0.01267  Uiso   1.00
O66    O     0.79788   0.45728   0.71003   0.01267  Uiso   1.00
H67    H     0.35980   0.28220   0.41990   0.01267  Uiso   1.00
H68    H     0.35490   0.90990   0.09300   0.01267  Uiso   1.00
H69    H     0.53250   0.67480   0.34770   0.01267  Uiso   1.00
H70    H     0.33030   0.08440   0.35120   0.01267  Uiso   1.00
C71    C     0.60880   0.10190   0.89495   0.01267  Uiso   1.00
C72    C     0.71640   0.79410   0.63540   0.01267  Uiso   1.00
C73    C     0.84570   0.56700   0.45909   0.01267  Uiso   1.00
C74    C     0.54450   0.90213   0.52344   0.01267  Uiso   1.00
C75    C     0.86750   0.37300   0.64070   0.01267  Uiso   1.00
C76    C     0.24910   0.37880   0.92920   0.01267  Uiso   1.00
O77    O     0.51681   0.63013   0.49128   0.01267  Uiso   1.00
O78    O     0.03890   0.44493   0.54242   0.01267  Uiso   1.00
O79    O     0.54272   0.34060   0.71003   0.01267  Uiso   1.00
H80    H     0.92240   0.28220   0.08010   0.01267  Uiso   1.00
H81    H     0.55500   0.90990   0.40700   0.01267  Uiso   1.00
H82    H     0.14230   0.67480   0.15230   0.01267  Uiso   1.00
H83    H     0.75410   0.08440   0.14880   0.01267  Uiso   1.00
C84    C     0.49310   0.10190   0.60505   0.01267  Uiso   1.00
C85    C     0.72130   0.56700   0.04091   0.01267  Uiso   1.00
C86    C     0.35763   0.90213   0.97656   0.01267  Uiso   1.00
C87    C     0.50550   0.37300   0.85930   0.01267  Uiso   1.00
C88    C     0.12970   0.37880   0.57080   0.01267  Uiso   1.00
O89    O     0.11332   0.63013   0.00872   0.01267  Uiso   1.00
O90    O     0.40603   0.44493   0.95758   0.01267  Uiso   1.00
O91    O     0.79788   0.34060   0.78997   0.01267  Uiso   1.00
H92    H     0.06350   0.82370   0.65270   0.01267  Uiso   1.00
H93    H     0.35980   0.07760   0.08010   0.01267  Uiso   1.00
H94    H     0.35490   0.44500   0.40700   0.01267  Uiso   1.00
H95    H     0.53250   0.85770   0.15230   0.01267  Uiso   1.00
H96    H     0.33030   0.24590   0.14880   0.01267  Uiso   1.00
C97    C     0.60880   0.50690   0.60505   0.01267  Uiso   1.00
C98    C     0.71640   0.92230   0.86460   0.01267  Uiso   1.00
C99    C     0.84570   0.27870   0.04091   0.01267  Uiso   1.00
C100   C     0.54450   0.64237   0.97656   0.01267  Uiso   1.00
C101   C     0.86750   0.49450   0.85930   0.01267  Uiso   1.00
C102   C     0.24910   0.87030   0.57080   0.01267  Uiso   1.00
O103   O     0.51681   0.88668   0.00872   0.01267  Uiso   1.00
O104   O     0.03890   0.59397   0.95758   0.01267  Uiso   1.00
O105   O     0.54272   0.20212   0.78997   0.01267  Uiso   1.00
H106   H     0.71780   0.64020   0.08010   0.01267  Uiso   1.00
H107   H     0.09010   0.64510   0.40700   0.01267  Uiso   1.00
H108   H     0.32520   0.46750   0.15230   0.01267  Uiso   1.00
H109   H     0.91560   0.66970   0.14880   0.01267  Uiso   1.00
C110   C     0.89810   0.39120   0.60505   0.01267  Uiso   1.00
C111   C     0.20590   0.28360   0.86460   0.01267  Uiso   1.00
C112   C     0.43300   0.15430   0.04091   0.01267  Uiso   1.00
C113   C     0.09787   0.45550   0.97656   0.01267  Uiso   1.00
C114   C     0.62700   0.13250   0.85930   0.01267  Uiso   1.00
C115   C     0.62120   0.75090   0.57080   0.01267  Uiso   1.00
O116   O     0.36987   0.48319   0.00872   0.01267  Uiso   1.00
O117   O     0.55507   0.96110   0.95758   0.01267  Uiso   1.00
O118   O     0.65940   0.45728   0.78997   0.01267  Uiso   1.00
H119   H     0.07760   0.71780   0.58010   0.01267  Uiso   1.00
H120   H     0.44500   0.09010   0.90700   0.01267  Uiso   1.00
H121   H     0.03540   0.76780   0.61710   0.01267  Uiso   1.00
H122   H     0.85770   0.32520   0.65230   0.01267  Uiso   1.00
C123   C     0.50690   0.89810   0.10505   0.01267  Uiso   1.00
C124   C     0.92230   0.20590   0.36460   0.01267  Uiso   1.00
C125   C     0.27870   0.43300   0.54091   0.01267  Uiso   1.00
C126   C     0.64237   0.09787   0.47656   0.01267  Uiso   1.00
C127   C     0.49450   0.62700   0.35930   0.01267  Uiso   1.00
C128   C     0.87030   0.62120   0.07080   0.01267  Uiso   1.00
O129   O     0.88668   0.36987   0.50872   0.01267  Uiso   1.00
O130   O     0.59397   0.55507   0.45758   0.01267  Uiso   1.00
O131   O     0.20212   0.65940   0.28997   0.01267  Uiso   1.00
H132   H     0.64020   0.92240   0.58010   0.01267  Uiso   1.00
H133   H     0.64510   0.55500   0.90700   0.01267  Uiso   1.00
H134   H     0.46750   0.14230   0.65230   0.01267  Uiso   1.00
H135   H     0.66970   0.75410   0.64880   0.01267  Uiso   1.00
C136   C     0.39120   0.49310   0.10505   0.01267  Uiso   1.00
C137   C     0.28360   0.07770   0.36460   0.01267  Uiso   1.00
C138   C     0.15430   0.72130   0.54091   0.01267  Uiso   1.00
C139   C     0.45550   0.35763   0.47656   0.01267  Uiso   1.00
C140   C     0.13250   0.50550   0.35930   0.01267  Uiso   1.00
C141   C     0.75090   0.12970   0.07080   0.01267  Uiso   1.00
O142   O     0.48319   0.11332   0.50872   0.01267  Uiso   1.00
O143   O     0.96110   0.40603   0.45758   0.01267  Uiso   1.00
O144   O     0.45728   0.79788   0.28997   0.01267  Uiso   1.00
H145   H     0.28220   0.35980   0.58010   0.01267  Uiso   1.00
H146   H     0.90990   0.35490   0.90700   0.01267  Uiso   1.00
H147   H     0.67480   0.53250   0.65230   0.01267  Uiso   1.00
H148   H     0.08440   0.33030   0.64880   0.01267  Uiso   1.00
C149   C     0.10190   0.60880   0.10505   0.01267  Uiso   1.00
C150   C     0.56700   0.84570   0.54091   0.01267  Uiso   1.00
C151   C     0.90213   0.54450   0.47656   0.01267  Uiso   1.00
C152   C     0.37300   0.86750   0.35930   0.01267  Uiso   1.00
C153   C     0.37880   0.24910   0.07080   0.01267  Uiso   1.00
O154   O     0.63013   0.51681   0.50872   0.01267  Uiso   1.00
O155   O     0.44493   0.03890   0.45758   0.01267  Uiso   1.00
O156   O     0.34060   0.54272   0.28997   0.01267  Uiso   1.00
H157   H     0.76020   0.82370   0.65270   0.01267  Uiso   1.00
H158   H     0.71780   0.07760   0.08010   0.01267  Uiso   1.00
H159   H     0.09010   0.44500   0.40700   0.01267  Uiso   1.00
H160   H     0.76780   0.03540   0.11710   0.01267  Uiso   1.00
H161   H     0.32520   0.85770   0.15230   0.01267  Uiso   1.00
C162   C     0.89810   0.50690   0.60505   0.01267  Uiso   1.00
C163   C     0.20590   0.92230   0.86460   0.01267  Uiso   1.00
C164   C     0.43300   0.27870   0.04091   0.01267  Uiso   1.00
C165   C     0.09787   0.64237   0.97656   0.01267  Uiso   1.00
C166   C     0.62700   0.49450   0.85930   0.01267  Uiso   1.00
C167   C     0.62120   0.87030   0.57080   0.01267  Uiso   1.00
O168   O     0.36987   0.88668   0.00872   0.01267  Uiso   1.00
O169   O     0.55507   0.59397   0.95758   0.01267  Uiso   1.00
O170   O     0.65940   0.20212   0.78997   0.01267  Uiso   1.00
H171   H     0.92240   0.64020   0.08010   0.01267  Uiso   1.00
H172   H     0.55500   0.64510   0.40700   0.01267  Uiso   1.00
H173   H     0.96460   0.73240   0.11710   0.01267  Uiso   1.00
H174   H     0.14230   0.46750   0.15230   0.01267  Uiso   1.00
C175   C     0.49310   0.39120   0.60505   0.01267  Uiso   1.00
C176   C     0.72130   0.15430   0.04091   0.01267  Uiso   1.00
C177   C     0.35763   0.45550   0.97656   0.01267  Uiso   1.00
C178   C     0.50550   0.13250   0.85930   0.01267  Uiso   1.00
C179   C     0.12970   0.75090   0.57080   0.01267  Uiso   1.00
O180   O     0.11332   0.48319   0.00872   0.01267  Uiso   1.00
O181   O     0.40603   0.96110   0.95758   0.01267  Uiso   1.00
O182   O     0.79788   0.45728   0.78997   0.01267  Uiso   1.00
H183   H     0.06350   0.23980   0.65270   0.01267  Uiso   1.00
H184   H     0.35980   0.28220   0.08010   0.01267  Uiso   1.00
H185   H     0.35490   0.90990   0.40700   0.01267  Uiso   1.00
H186   H     0.26760   0.23220   0.11710   0.01267  Uiso   1.00
H187   H     0.53250   0.67480   0.15230   0.01267  Uiso   1.00
C188   C     0.60880   0.10190   0.60505   0.01267  Uiso   1.00
C189   C     0.84570   0.56700   0.04091   0.01267  Uiso   1.00
C190   C     0.54450   0.90213   0.97656   0.01267  Uiso   1.00
C191   C     0.86750   0.37300   0.85930   0.01267  Uiso   1.00
C192   C     0.24910   0.37880   0.57080   0.01267  Uiso   1.00
O193   O     0.51681   0.63013   0.00872   0.01267  Uiso   1.00
O194   O     0.03890   0.44493   0.95758   0.01267  Uiso   1.00
O195   O     0.54272   0.34060   0.78997   0.01267  Uiso   1.00
H196   H     0.23980   0.17630   0.15270   0.01267  Uiso   1.00
H197   H     0.28220   0.92240   0.58010   0.01267  Uiso   1.00
H198   H     0.90990   0.55500   0.90700   0.01267  Uiso   1.00
H199   H     0.67480   0.14230   0.65230   0.01267  Uiso   1.00
H200   H     0.08440   0.75410   0.64880   0.01267  Uiso   1.00
C201   C     0.10190   0.49310   0.10505   0.01267  Uiso   1.00
C202   C     0.56700   0.72130   0.54091   0.01267  Uiso   1.00
C203   C     0.90213   0.35763   0.47656   0.01267  Uiso   1.00
C204   C     0.37300   0.50550   0.35930   0.01267  Uiso   1.00
C205   C     0.37880   0.12970   0.07080   0.01267  Uiso   1.00
O206   O     0.63013   0.11332   0.50872   0.01267  Uiso   1.00
O207   O     0.44493   0.40603   0.45758   0.01267  Uiso   1.00
O208   O     0.34060   0.79788   0.28997   0.01267  Uiso   1.00
H209   H     0.82370   0.06350   0.15270   0.01267  Uiso   1.00
H210   H     0.07760   0.35980   0.58010   0.01267  Uiso   1.00
H211   H     0.44500   0.35490   0.90700   0.01267  Uiso   1.00
H212   H     0.03540   0.26760   0.61710   0.01267  Uiso   1.00
H213   H     0.85770   0.53250   0.65230   0.01267  Uiso   1.00
C214   C     0.50690   0.60880   0.10505   0.01267  Uiso   1.00
C215   C     0.92230   0.71640   0.36460   0.01267  Uiso   1.00
C216   C     0.27870   0.84570   0.54091   0.01267  Uiso   1.00
C217   C     0.64237   0.54450   0.47656   0.01267  Uiso   1.00
C218   C     0.49450   0.86750   0.35930   0.01267  Uiso   1.00
C219   C     0.87030   0.24910   0.07080   0.01267  Uiso   1.00
O220   O     0.88668   0.51681   0.50872   0.01267  Uiso   1.00
O221   O     0.59397   0.03890   0.45758   0.01267  Uiso   1.00
O222   O     0.20212   0.54272   0.28997   0.01267  Uiso   1.00
H223   H     0.93650   0.76020   0.15270   0.01267  Uiso   1.00
H224   H     0.64020   0.71780   0.58010   0.01267  Uiso   1.00
H225   H     0.64510   0.09010   0.90700   0.01267  Uiso   1.00
H226   H     0.73240   0.76780   0.61710   0.01267  Uiso   1.00
H227   H     0.46750   0.32520   0.65230   0.01267  Uiso   1.00
C228   C     0.39120   0.89810   0.10505   0.01267  Uiso   1.00
C229   C     0.15430   0.43300   0.54091   0.01267  Uiso   1.00
C230   C     0.45550   0.09787   0.47656   0.01267  Uiso   1.00
C231   C     0.13250   0.62700   0.35930   0.01267  Uiso   1.00
C232   C     0.75090   0.62120   0.07080   0.01267  Uiso   1.00
O233   O     0.48319   0.36987   0.50872   0.01267  Uiso   1.00
O234   O     0.96110   0.55507   0.45758   0.01267  Uiso   1.00
O235   O     0.45728   0.65940   0.28997   0.01267  Uiso   1.00
H236   H     0.07760   0.71780   0.91990   0.01267  Uiso   1.00
H237   H     0.44500   0.09010   0.59300   0.01267  Uiso   1.00
H238   H     0.85770   0.32520   0.84770   0.01267  Uiso   1.00
H239   H     0.24590   0.91560   0.85120   0.01267  Uiso   1.00
C240   C     0.50690   0.89810   0.39495   0.01267  Uiso   1.00
C241   C     0.27870   0.43300   0.95909   0.01267  Uiso   1.00
C242   C     0.64237   0.09787   0.02344   0.01267  Uiso   1.00
C243   C     0.49450   0.62700   0.14070   0.01267  Uiso   1.00
C244   C     0.87030   0.62120   0.42920   0.01267  Uiso   1.00
O245   O     0.88668   0.36987   0.99128   0.01267  Uiso   1.00
O246   O     0.59397   0.55507   0.04242   0.01267  Uiso   1.00
O247   O     0.20212   0.65940   0.21003   0.01267  Uiso   1.00
H248   H     0.93650   0.17630   0.34730   0.01267  Uiso   1.00
H249   H     0.64020   0.92240   0.91990   0.01267  Uiso   1.00
H250   H     0.64510   0.55500   0.59300   0.01267  Uiso   1.00
H251   H     0.73240   0.96460   0.88290   0.01267  Uiso   1.00
H252   H     0.46750   0.14230   0.84770   0.01267  Uiso   1.00
C253   C     0.39120   0.49310   0.39495   0.01267  Uiso   1.00
C254   C     0.15430   0.72130   0.95909   0.01267  Uiso   1.00
C255   C     0.45550   0.35763   0.02344   0.01267  Uiso   1.00
C256   C     0.13250   0.50550   0.14070   0.01267  Uiso   1.00
C257   C     0.75090   0.12970   0.42920   0.01267  Uiso   1.00
O258   O     0.48319   0.11332   0.99128   0.01267  Uiso   1.00
O259   O     0.96110   0.40603   0.04242   0.01267  Uiso   1.00
O260   O     0.45728   0.79788   0.21003   0.01267  Uiso   1.00
H261   H     0.23980   0.06350   0.34730   0.01267  Uiso   1.00
H262   H     0.28220   0.35980   0.91990   0.01267  Uiso   1.00
H263   H     0.90990   0.35490   0.59300   0.01267  Uiso   1.00
H264   H     0.23220   0.26760   0.88290   0.01267  Uiso   1.00
H265   H     0.67480   0.53250   0.84770   0.01267  Uiso   1.00
C266   C     0.10190   0.60880   0.39495   0.01267  Uiso   1.00
C267   C     0.56700   0.84570   0.95909   0.01267  Uiso   1.00
C268   C     0.90213   0.54450   0.02344   0.01267  Uiso   1.00
C269   C     0.37300   0.86750   0.14070   0.01267  Uiso   1.00
C270   C     0.37880   0.24910   0.42920   0.01267  Uiso   1.00
O271   O     0.63013   0.51681   0.99128   0.01267  Uiso   1.00
O272   O     0.44493   0.03890   0.04242   0.01267  Uiso   1.00
O273   O     0.34060   0.54272   0.21003   0.01267  Uiso   1.00
H274   H     0.17630   0.23980   0.84730   0.01267  Uiso   1.00
H275   H     0.92240   0.28220   0.41990   0.01267  Uiso   1.00
H276   H     0.55500   0.90990   0.09300   0.01267  Uiso   1.00
H277   H     0.96460   0.23220   0.38290   0.01267  Uiso   1.00
H278   H     0.14230   0.67480   0.34770   0.01267  Uiso   1.00
C279   C     0.49310   0.10190   0.89495   0.01267  Uiso   1.00
C280   C     0.07770   0.79410   0.63540   0.01267  Uiso   1.00
C281   C     0.72130   0.56700   0.45909   0.01267  Uiso   1.00
C282   C     0.35763   0.90213   0.52344   0.01267  Uiso   1.00
C283   C     0.50550   0.37300   0.64070   0.01267  Uiso   1.00
C284   C     0.12970   0.37880   0.92920   0.01267  Uiso   1.00
O285   O     0.11332   0.63013   0.49128   0.01267  Uiso   1.00
O286   O     0.40603   0.44493   0.54242   0.01267  Uiso   1.00
O287   O     0.79788   0.34060   0.71003   0.01267  Uiso   1.00
H288   H     0.35980   0.07760   0.41990   0.01267  Uiso   1.00
H289   H     0.35490   0.44500   0.09300   0.01267  Uiso   1.00
H290   H     0.26760   0.03540   0.38290   0.01267  Uiso   1.00
H291   H     0.53250   0.85770   0.34770   0.01267  Uiso   1.00
C292   C     0.60880   0.50690   0.89495   0.01267  Uiso   1.00
C293   C     0.84570   0.27870   0.45909   0.01267  Uiso   1.00
C294   C     0.54450   0.64237   0.52344   0.01267  Uiso   1.00
C295   C     0.86750   0.49450   0.64070   0.01267  Uiso   1.00
C296   C     0.24910   0.87030   0.92920   0.01267  Uiso   1.00
O297   O     0.51681   0.88668   0.49128   0.01267  Uiso   1.00
O298   O     0.03890   0.59397   0.54242   0.01267  Uiso   1.00
O299   O     0.54272   0.20212   0.71003   0.01267  Uiso   1.00
H300   H     0.76020   0.93650   0.84730   0.01267  Uiso   1.00
H301   H     0.71780   0.64020   0.41990   0.01267  Uiso   1.00
H302   H     0.09010   0.64510   0.09300   0.01267  Uiso   1.00
H303   H     0.32520   0.46750   0.34770   0.01267  Uiso   1.00
H304   H     0.91560   0.66970   0.35120   0.01267  Uiso   1.00
C305   C     0.89810   0.39120   0.89495   0.01267  Uiso   1.00
C306   C     0.43300   0.15430   0.45909   0.01267  Uiso   1.00
C307   C     0.09787   0.45550   0.52344   0.01267  Uiso   1.00
C308   C     0.62700   0.13250   0.64070   0.01267  Uiso   1.00
C309   C     0.62120   0.75090   0.92920   0.01267  Uiso   1.00
O310   O     0.36987   0.48319   0.49128   0.01267  Uiso   1.00
O311   O     0.55507   0.96110   0.54242   0.01267  Uiso   1.00
O312   O     0.65940   0.45728   0.71003   0.01267  Uiso   1.00
Zn313  Zn    0.04610   0.52305   0.03449   0.01267  Uiso   1.00
Zn314  Zn    0.47695   0.52305   0.03449   0.01267  Uiso   1.00
Zn315  Zn    0.47695   0.95390   0.03449   0.01267  Uiso   1.00
Zn316  Zn    0.95390   0.47695   0.53449   0.01267  Uiso   1.00
Zn317  Zn    0.52305   0.47695   0.53449   0.01267  Uiso   1.00
Zn318  Zn    0.52305   0.04610   0.53449   0.01267  Uiso   1.00
Zn319  Zn    0.52305   0.04610   0.96551   0.01267  Uiso   1.00
Zn320  Zn    0.52305   0.47695   0.96551   0.01267  Uiso   1.00
Zn321  Zn    0.95390   0.47695   0.96551   0.01267  Uiso   1.00
Zn322  Zn    0.47695   0.95390   0.46551   0.01267  Uiso   1.00
Zn323  Zn    0.47695   0.52305   0.46551   0.01267  Uiso   1.00
Zn324  Zn    0.04610   0.52305   0.46551   0.01267  Uiso   1.00
Cr325  Cr    0.44809   0.72404   0.25000   0.01267  Uiso   1.00
Cr326  Cr    0.27596   0.72404   0.25000   0.01267  Uiso   1.00
Cr327  Cr    0.27596   0.55191   0.25000   0.01267  Uiso   1.00
Cr328  Cr    0.55191   0.27596   0.75000   0.01267  Uiso   1.00
Cr329  Cr    0.72404   0.27596   0.75000   0.01267  Uiso   1.00
Cr330  Cr    0.72404   0.44809   0.75000   0.01267  Uiso   1.00
H331   H     0.76430   0.23570   0.99970   0.01267  Uiso   1.00
C332   C     0.17575   0.82425   0.58750   0.01267  Uiso   1.00
H333   H     0.76430   0.52860   0.99970   0.01267  Uiso   1.00
C334   C     0.17575   0.35150   0.58750   0.01267  Uiso   1.00
H335   H     0.47140   0.23570   0.99970   0.01267  Uiso   1.00
C336   C     0.64850   0.82425   0.58750   0.01267  Uiso   1.00
H337   H     0.23570   0.76430   0.49970   0.01267  Uiso   1.00
C338   C     0.82425   0.17575   0.08750   0.01267  Uiso   1.00
H339   H     0.23570   0.47140   0.49970   0.01267  Uiso   1.00
C340   C     0.82425   0.64850   0.08750   0.01267  Uiso   1.00
H341   H     0.52860   0.76430   0.49970   0.01267  Uiso   1.00
C342   C     0.35150   0.17575   0.08750   0.01267  Uiso   1.00
H343   H     0.23570   0.76430   0.00030   0.01267  Uiso   1.00
C344   C     0.82425   0.17575   0.41250   0.01267  Uiso   1.00
H345   H     0.52860   0.76430   0.00030   0.01267  Uiso   1.00
C346   C     0.35150   0.17575   0.41250   0.01267  Uiso   1.00
H347   H     0.23570   0.47140   0.00030   0.01267  Uiso   1.00
C348   C     0.82425   0.64850   0.41250   0.01267  Uiso   1.00
H349   H     0.76430   0.23570   0.50030   0.01267  Uiso   1.00
C350   C     0.17575   0.82425   0.91250   0.01267  Uiso   1.00
H351   H     0.47140   0.23570   0.50030   0.01267  Uiso   1.00
C352   C     0.64850   0.82425   0.91250   0.01267  Uiso   1.00
H353   H     0.76430   0.52860   0.50030   0.01267  Uiso   1.00
C354   C     0.17575   0.35150   0.91250   0.01267  Uiso   1.00
C355   C     0.85214   0.42607   0.84139   0.01267  Uiso   1.00
C356   C     0.44900   0.22450   0.47635   0.01267  Uiso   1.00
N357   N     0.91158   0.45579   0.91295   0.01267  Uiso   1.00
O358   O     0.30290   0.15145   0.38290   0.01267  Uiso   1.00
C359   C     0.57393   0.42607   0.84139   0.01267  Uiso   1.00
C360   C     0.77550   0.22450   0.47635   0.01267  Uiso   1.00
N361   N     0.54421   0.45579   0.91295   0.01267  Uiso   1.00
O362   O     0.84855   0.15145   0.38290   0.01267  Uiso   1.00
C363   C     0.57393   0.14786   0.84139   0.01267  Uiso   1.00
C364   C     0.77550   0.55100   0.47635   0.01267  Uiso   1.00
N365   N     0.54421   0.08842   0.91295   0.01267  Uiso   1.00
O366   O     0.84855   0.69710   0.38290   0.01267  Uiso   1.00
C367   C     0.14786   0.57393   0.34139   0.01267  Uiso   1.00
C368   C     0.55100   0.77550   0.97635   0.01267  Uiso   1.00
N369   N     0.08842   0.54421   0.41295   0.01267  Uiso   1.00
O370   O     0.69710   0.84855   0.88290   0.01267  Uiso   1.00
C371   C     0.42607   0.57393   0.34139   0.01267  Uiso   1.00
C372   C     0.22450   0.77550   0.97635   0.01267  Uiso   1.00
N373   N     0.45579   0.54421   0.41295   0.01267  Uiso   1.00
O374   O     0.15145   0.84855   0.88290   0.01267  Uiso   1.00
C375   C     0.42607   0.85214   0.34139   0.01267  Uiso   1.00
C376   C     0.22450   0.44900   0.97635   0.01267  Uiso   1.00
N377   N     0.45579   0.91158   0.41295   0.01267  Uiso   1.00
O378   O     0.15145   0.30290   0.88290   0.01267  Uiso   1.00
C379   C     0.42607   0.85214   0.15861   0.01267  Uiso   1.00
C380   C     0.22450   0.44900   0.52365   0.01267  Uiso   1.00
N381   N     0.45579   0.91158   0.08705   0.01267  Uiso   1.00
O382   O     0.15145   0.30290   0.61710   0.01267  Uiso   1.00
C383   C     0.42607   0.57393   0.15861   0.01267  Uiso   1.00
C384   C     0.22450   0.77550   0.52365   0.01267  Uiso   1.00
N385   N     0.45579   0.54421   0.08705   0.01267  Uiso   1.00
O386   O     0.15145   0.84855   0.61710   0.01267  Uiso   1.00
C387   C     0.14786   0.57393   0.15861   0.01267  Uiso   1.00
C388   C     0.55100   0.77550   0.52365   0.01267  Uiso   1.00
N389   N     0.08842   0.54421   0.08705   0.01267  Uiso   1.00
O390   O     0.69710   0.84855   0.61710   0.01267  Uiso   1.00
C391   C     0.57393   0.14786   0.65861   0.01267  Uiso   1.00
C392   C     0.77550   0.55100   0.02365   0.01267  Uiso   1.00
N393   N     0.54421   0.08842   0.58705   0.01267  Uiso   1.00
O394   O     0.84855   0.69710   0.11710   0.01267  Uiso   1.00
C395   C     0.57393   0.42607   0.65861   0.01267  Uiso   1.00
C396   C     0.77550   0.22450   0.02365   0.01267  Uiso   1.00
N397   N     0.54421   0.45579   0.58705   0.01267  Uiso   1.00
O398   O     0.84855   0.15145   0.11710   0.01267  Uiso   1.00
C399   C     0.85214   0.42607   0.65861   0.01267  Uiso   1.00
C400   C     0.44900   0.22450   0.02365   0.01267  Uiso   1.00
N401   N     0.91158   0.45579   0.58705   0.01267  Uiso   1.00
O402   O     0.30290   0.15145   0.11710   0.01267  Uiso   1.00
C403   C     0.40602   0.81204   0.19620   0.01267  Uiso   1.00
C404   C     0.18796   0.59398   0.19620   0.01267  Uiso   1.00
C405   C     0.40602   0.59398   0.19620   0.01267  Uiso   1.00
C406   C     0.59398   0.18796   0.69620   0.01267  Uiso   1.00
C407   C     0.81204   0.40602   0.69620   0.01267  Uiso   1.00
C408   C     0.59398   0.40602   0.69620   0.01267  Uiso   1.00
C409   C     0.81204   0.40602   0.80380   0.01267  Uiso   1.00
C410   C     0.59398   0.18796   0.80380   0.01267  Uiso   1.00
C411   C     0.59398   0.40602   0.80380   0.01267  Uiso   1.00
C412   C     0.18796   0.59398   0.30380   0.01267  Uiso   1.00
C413   C     0.40602   0.81204   0.30380   0.01267  Uiso   1.00
C414   C     0.40602   0.59398   0.30380   0.01267  Uiso   1.00
O415   O     0.33333   0.66667   0.25000   0.01267  Uiso   1.00
O416   O     0.66667   0.33333   0.75000   0.01267  Uiso   1.00
loop_
_geom_bond_atom_site_label_1
_geom_bond_atom_site_label_2
_geom_bond_distance
_geom_bond_site_symmetry_2
_ccdc_geom_bond_type
H1     C296    0.940   .     S
H2     C162    0.941   .     S
H3     C163    0.970   .     S
H4     C114    0.939   .     S
C5     H159    0.941   .     S
C5     C140    1.382   .     A
C5     N369    1.307   .     A
C6     H209    0.971   .     S
C6     H160    0.970   .     S
C6     H83     0.970   .     S
C6     O398    1.434   .     S
C7     C368    1.374   .     A
C7     C309    1.406   .     A
C7     C100    1.494   .     S
C8     C99     1.494   .     S
C8     O259    1.251   .     A
C8     O245    1.247   1_554 A
C9     H108    0.939   .     S
C9     C383    1.359   .     A
C9     C136    1.382   .     A
C10    H288    0.940   .     S
C10    C306    1.406   .     A
C10    C346    1.374   .     A
O11    C242    1.247   1_556 A
O11    Zn319   2.028   .     S
O12    Zn314   2.035   .     S
O12    C255    1.251   .     A
O13    C403    1.250   .     A
O13    Cr326   1.967   .     S
H14    C284    0.940   .     S
H15    C175    0.941   .     S
H16    C101    0.939   .     S
H17    C111    0.970   .     S
C18    H172    0.941   .     S
C18    C127    1.382   .     A
C18    N373    1.307   .     A
C19    H223    0.971   .     S
C19    H173    0.970   .     S
C19    H109    0.970   .     S
C19    O394    1.434   .     S
C20    C372    1.374   .     A
C20    C296    1.406   .     A
C20    C86     1.494   .     S
C21    C85     1.494   .     S
C21    O246    1.251   .     A
C21    O271    1.247   1_554 A
C22    H95     0.939   .     S
C22    C379    1.359   .     A
C22    C123    1.382   .     A
C23    H275    0.940   .     S
C23    C293    1.406   .     A
C23    C344    1.374   .     A
O24    C268    1.247   1_556 A
O24    Zn321   2.028   .     S
O25    Zn315   2.035   1_545 S
O25    C242    1.251   .     A
O26    C404    1.250   .     A
O26    Cr327   1.967   .     S
H27    C215    0.971   .     S
H28    C309    0.940   .     S
H29    C188    0.941   .     S
H30    C87     0.939   .     S
H31    C98     0.970   .     S
C32    H185    0.941   .     S
C32    C152    1.382   .     A
C32    N377    1.307   .     A
C33    H196    0.971   .     S
C33    H186    0.970   .     S
C33    H96     0.970   .     S
C33    O402    1.434   .     S
C34    C376    1.374   .     A
C34    C284    1.406   .     A
C34    C113    1.494   .     S
C35    C112    1.494   .     S
C35    O272    1.251   .     A
C35    O258    1.247   1_554 A
C36    H82     0.939   .     S
C36    C387    1.359   .     A
C36    C149    1.382   .     A
C37    H301    0.940   .     S
C37    C281    1.406   .     A
C37    C348    1.374   .     A
O38    C255    1.247   1_556 A
O38    Zn320   2.028   .     S
O39    Zn313   2.035   1_655 S
O39    C268    1.251   .     A
O40    C405    1.250   .     A
O40    Cr325   1.967   .     S
H41    C257    0.940   .     S
H42    C201    0.941   .     S
H43    C152    0.939   .     S
H44    C124    0.970   .     S
C45    H198    0.941   .     S
C45    C101    1.382   .     A
C45    N357    1.307   .     A
C46    C356    1.374   .     A
C46    C270    1.406   .     A
C46    C139    1.494   .     S
C47    C138    1.494   .     S
C47    O298    1.251   .     A
C47    O285    1.247   .     A
C48    H147    0.939   .     S
C48    C395    1.359   .     A
C48    C97     1.382   .     A
C49    H249    0.940   .     S
C49    C267    1.406   .     A
C49    C352    1.374   .     A
O50    C282    1.247   .     A
O50    Zn322   2.028   .     S
O51    Zn317   2.035   .     S
O51    C294    1.251   .     A
O52    C406    1.250   .     A
O52    Cr329   1.967   .     S
H53    C163    0.971   .     S
H54    C244    0.940   .     S
H55    C214    0.941   .     S
H56    C215    0.970   .     S
H57    C140    0.939   .     S
C58    H211    0.941   .     S
C58    C87     1.382   .     A
C58    N361    1.307   .     A
C59    H183    0.971   .     S
C59    H212    0.970   .     S
C59    H148    0.970   .     S
C59    O382    1.434   .     S
C60    C360    1.374   .     A
C60    C257    1.406   .     A
C60    C126    1.494   .     S
C61    C125    1.494   .     S
C61    O286    1.251   .     A
C61    O310    1.247   .     A
C62    H134    0.939   .     S
C62    C391    1.359   .     A
C62    C84     1.382   .     A
C63    H236    0.940   .     S
C63    C254    1.406   .     A
C63    C350    1.374   .     A
O64    C307    1.247   .     A
O64    Zn324   2.028   .     S
O65    Zn318   2.035   1_565 S
O65    C282    1.251   .     A
O66    C407    1.250   .     A
O66    Cr330   1.967   .     S
H67    C270    0.940   .     S
H68    C228    0.941   .     S
H69    C127    0.939   .     S
H70    C137    0.970   .     S
C71    H225    0.941   .     S
C71    C114    1.382   .     A
C71    N365    1.307   .     A
C72    H157    0.971   .     S
C72    H226    0.970   .     S
C72    H135    0.970   .     S
C72    O390    1.434   .     S
C73    C364    1.374   .     A
C73    C244    1.406   .     A
C73    C151    1.494   .     S
C74    C150    1.494   .     S
C74    O311    1.251   .     A
C74    O297    1.247   .     A
C75    H122    0.939   .     S
C75    C399    1.359   .     A
C75    C110    1.382   .     A
C76    H262    0.940   .     S
C76    C241    1.406   .     A
C76    C354    1.374   .     A
O77    C294    1.247   .     A
O77    Zn323   2.028   .     S
O78    Zn316   2.035   1_455 S
O78    C307    1.251   .     A
O79    C408    1.250   .     A
O79    Cr328   1.967   .     S
H80    C219    0.940   .     S
H81    C240    0.941   .     S
C84    H237    0.941   .     S
C84    N393    1.307   .     A
C85    C392    1.374   .     A
C85    C232    1.406   .     A
C86    O181    1.251   .     A
C86    O168    1.247   1_556 A
C87    C359    1.359   .     A
C88    H210    0.940   .     S
C88    C229    1.406   .     A
C88    C334    1.374   .     A
O89    C165    1.247   1_554 A
O89    Zn313   2.028   .     S
O90    Zn320   2.035   .     S
O90    C177    1.251   .     A
O91    C409    1.250   .     A
O91    Cr329   1.967   .     S
H92    C280    0.971   .     S
H93    C205    0.940   .     S
H94    C253    0.941   .     S
C97    H250    0.941   .     S
C97    N397    1.307   .     A
C98    H300    0.971   .     S
C98    H251    0.970   .     S
C98    O370    1.434   .     S
C99    C396    1.374   .     A
C99    C219    1.406   .     A
C100   O169    1.251   .     A
C100   O193    1.247   1_556 A
C101   C355    1.359   .     A
C102   H197    0.940   .     S
C102   C216    1.406   .     A
C102   C332    1.374   .     A
O103   C190    1.247   1_554 A
O103   Zn315   2.028   .     S
O104   Zn321   2.035   1_455 S
O104   C165    1.251   .     A
O105   C410    1.250   .     A
O105   Cr328   1.967   .     S
H106   C232    0.940   .     S
H107   C266    0.941   .     S
C110   H263    0.941   .     S
C110   N401    1.307   .     A
C111   H274    0.971   .     S
C111   H264    0.970   .     S
C111   O378    1.434   .     S
C112   C400    1.374   .     A
C112   C205    1.406   .     A
C113   O194    1.251   .     A
C113   O180    1.247   1_556 A
C114   C363    1.359   .     A
C115   H224    0.940   .     S
C115   C202    1.406   .     A
C115   C336    1.374   .     A
O116   C177    1.247   1_554 A
O116   Zn314   2.028   .     S
O117   Zn319   2.035   1_565 S
O117   C190    1.251   .     A
O118   C411    1.250   .     A
O118   Cr330   1.967   .     S
H119   C179    0.940   .     S
H120   C279    0.941   .     S
H121   C280    0.970   .     S
C123   H276    0.941   .     S
C123   N381    1.307   .     A
C124   H248    0.971   .     S
C124   H277    0.970   .     S
C124   O362    1.434   .     S
C125   C380    1.374   .     A
C125   C192    1.406   .     A
C126   O221    1.251   .     A
C126   O206    1.247   .     A
C127   C371    1.359   .     A
C128   H171    0.940   .     S
C128   C189    1.406   .     A
C128   C340    1.374   .     A
O129   C203    1.247   .     A
O129   Zn316   2.028   .     S
O130   Zn323   2.035   .     S
O130   C217    1.251   .     A
O131   C412    1.250   .     A
O131   Cr326   1.967   .     S
H132   C167    0.940   .     S
H133   C292    0.941   .     S
C136   H289    0.941   .     S
C136   N385    1.307   .     A
C137   H261    0.971   .     S
C137   H290    0.970   .     S
C137   O358    1.434   .     S
C138   C384    1.374   .     A
C138   C179    1.406   .     A
C139   O207    1.251   .     A
C139   O233    1.247   .     A
C140   C367    1.359   .     A
C141   H158    0.940   .     S
C141   C176    1.406   .     A
C141   C338    1.374   .     A
O142   C230    1.247   .     A
O142   Zn318   2.028   .     S
O143   Zn324   2.035   1_655 S
O143   C203    1.251   .     A
O144   C413    1.250   .     A
O144   Cr325   1.967   .     S
H145   C192    0.940   .     S
H146   C305    0.941   .     S
C149   H302    0.941   .     S
C149   N389    1.307   .     A
C150   C388    1.374   .     A
C150   C167    1.406   .     A
C151   O234    1.251   .     A
C151   O220    1.247   .     A
C152   C375    1.359   .     A
C153   H184    0.940   .     S
C153   C164    1.406   .     A
C153   C342    1.374   .     A
O154   C217    1.247   .     A
O154   Zn317   2.028   .     S
O155   Zn322   2.035   1_545 S
O155   C230    1.251   .     A
O156   C414    1.250   .     A
O156   Cr327   1.967   .     S
H161   C269    0.939   .     S
C162   C295    1.382   .     A
C162   N401    1.307   .     A
C163   H239    0.970   .     S
C163   O374    1.434   .     S
C164   C400    1.374   .     A
C164   C255    1.494   .     S
C165   C254    1.494   .     S
C165   O89     1.247   1_556 A
C166   H265    0.939   .     S
C166   C359    1.359   .     A
C166   C292    1.382   .     A
C167   C336    1.374   .     A
O168   C86     1.247   1_554 A
O168   Zn315   2.028   .     S
O169   Zn320   2.035   .     S
O170   C410    1.250   .     A
O170   Cr329   1.967   .     S
H174   C256    0.939   .     S
C175   C283    1.382   .     A
C175   N397    1.307   .     A
C176   C396    1.374   .     A
C176   C242    1.494   .     S
C177   C241    1.494   .     S
C177   O116    1.247   1_556 A
C178   H252    0.939   .     S
C178   C363    1.359   .     A
C178   C279    1.382   .     A
C179   C332    1.374   .     A
O180   C113    1.247   1_554 A
O180   Zn313   2.028   .     S
O181   Zn319   2.035   1_565 S
O182   C409    1.250   .     A
O182   Cr330   1.967   .     S
H187   C243    0.939   .     S
C188   C308    1.382   .     A
C188   N393    1.307   .     A
C189   C392    1.374   .     A
C189   C268    1.494   .     S
C190   C267    1.494   .     S
C190   O103    1.247   1_556 A
C191   H238    0.939   .     S
C191   C355    1.359   .     A
C191   C305    1.382   .     A
C192   C334    1.374   .     A
O193   C100    1.247   1_554 A
O193   Zn314   2.028   .     S
O194   Zn321   2.035   1_455 S
O195   C411    1.250   .     A
O195   Cr328   1.967   .     S
H199   C308    0.939   .     S
H200   C280    0.970   .     S
C201   C256    1.382   .     A
C201   N389    1.307   .     A
C202   C388    1.374   .     A
C202   C294    1.494   .     S
C203   C293    1.494   .     S
C204   H303    0.939   .     S
C204   C371    1.359   .     A
C204   C253    1.382   .     A
C205   C342    1.374   .     A
O206   Zn318   2.028   .     S
O207   Zn323   2.035   .     S
O208   C413    1.250   .     A
O208   Cr326   1.967   .     S
H213   C295    0.939   .     S
C214   C243    1.382   .     A
C214   N385    1.307   .     A
C215   H304    0.970   .     S
C215   O366    1.434   .     S
C216   C384    1.374   .     A
C216   C282    1.494   .     S
C217   C281    1.494   .     S
C218   H291    0.939   .     S
C218   C375    1.359   .     A
C218   C240    1.382   .     A
C219   C338    1.374   .     A
O220   Zn316   2.028   .     S
O221   Zn322   2.035   1_545 S
O222   C412    1.250   .     A
O222   Cr327   1.967   .     S
H227   C283    0.939   .     S
C228   C269    1.382   .     A
C228   N381    1.307   .     A
C229   C380    1.374   .     A
C229   C307    1.494   .     S
C230   C306    1.494   .     S
C231   H278    0.939   .     S
C231   C367    1.359   .     A
C231   C266    1.382   .     A
C232   C340    1.374   .     A
O233   Zn317   2.028   .     S
O234   Zn324   2.035   1_655 S
O235   C414    1.250   .     A
O235   Cr325   1.967   .     S
C240   N377    1.307   .     A
C241   C376    1.374   .     A
C242   O11     1.247   1_554 A
C243   C383    1.359   .     A
C244   C348    1.374   .     A
O245   C8      1.247   1_556 A
O245   Zn321   2.028   .     S
O246   Zn314   2.035   .     S
O247   C404    1.250   .     A
O247   Cr326   1.967   .     S
C253   N373    1.307   .     A
C254   C372    1.374   .     A
C255   O38     1.247   1_554 A
C256   C387    1.359   .     A
C257   C344    1.374   .     A
O258   C35     1.247   1_556 A
O258   Zn319   2.028   .     S
O259   Zn313   2.035   1_655 S
O260   C403    1.250   .     A
O260   Cr325   1.967   .     S
C266   N369    1.307   .     A
C267   C368    1.374   .     A
C268   O24     1.247   1_554 A
C269   C379    1.359   .     A
C270   C346    1.374   .     A
O271   C21     1.247   1_556 A
O271   Zn320   2.028   .     S
O272   Zn315   2.035   1_545 S
O273   C405    1.250   .     A
O273   Cr327   1.967   .     S
C279   N365    1.307   .     A
C280   O386    1.434   .     S
C281   C364    1.374   .     A
C283   C395    1.359   .     A
C284   C354    1.374   .     A
O285   Zn324   2.028   .     S
O286   Zn317   2.035   .     S
O287   C407    1.250   .     A
O287   Cr329   1.967   .     S
C292   N361    1.307   .     A
C293   C360    1.374   .     A
C295   C399    1.359   .     A
C296   C350    1.374   .     A
O297   Zn322   2.028   .     S
O298   Zn316   2.035   1_455 S
O299   C406    1.250   .     A
O299   Cr328   1.967   .     S
C305   N357    1.307   .     A
C306   C356    1.374   .     A
C308   C391    1.359   .     A
C309   C352    1.374   .     A
O310   Zn323   2.028   .     S
O311   Zn318   2.035   1_565 S
O312   C408    1.250   .     A
O312   Cr330   1.967   .     S
Zn313  N389    2.020   .     S
Zn313  O259    2.035   1_455 S
Zn313  O39     2.035   1_455 S
Zn314  N385    2.020   .     S
Zn315  N381    2.020   .     S
Zn315  O272    2.035   1_565 S
Zn315  O25     2.035   1_565 S
Zn316  N401    2.020   .     S
Zn316  O298    2.035   1_655 S
Zn316  O78     2.035   1_655 S
Zn317  N397    2.020   .     S
Zn318  N393    2.020   .     S
Zn318  O311    2.035   1_545 S
Zn318  O65     2.035   1_545 S
Zn319  N365    2.020   .     S
Zn319  O181    2.035   1_545 S
Zn319  O117    2.035   1_545 S
Zn320  N361    2.020   .     S
Zn321  N357    2.020   .     S
Zn321  O194    2.035   1_655 S
Zn321  O104    2.035   1_655 S
Zn322  N377    2.020   .     S
Zn322  O221    2.035   1_565 S
Zn322  O155    2.035   1_565 S
Zn323  N373    2.020   .     S
Zn324  N369    2.020   .     S
Zn324  O234    2.035   1_455 S
Zn324  O143    2.035   1_455 S
Cr325  O415    1.911   .     S
Cr326  O415    1.911   .     S
Cr327  O415    1.911   .     S
Cr328  O416    1.911   .     S
Cr329  O416    1.911   .     S
Cr330  O416    1.911   .     S
H331   C396    0.940   1_556 S
C332   O386    1.338   .     S
H333   C392    0.940   1_556 S
C334   O382    1.338   .     S
H335   C400    0.940   1_556 S
C336   O390    1.338   .     S
H337   C384    0.940   .     S
C338   O398    1.338   .     S
H339   C380    0.940   .     S
C340   O394    1.338   .     S
H341   C388    0.940   .     S
C342   O402    1.338   .     S
H343   C372    0.940   1_554 S
C344   O362    1.338   .     S
H345   C368    0.940   1_554 S
C346   O358    1.338   .     S
H347   C376    0.940   1_554 S
C348   O366    1.338   .     S
H349   C360    0.940   .     S
C350   O374    1.338   .     S
H351   C356    0.940   .     S
C352   O370    1.338   .     S
H353   C364    0.940   .     S
C354   O378    1.338   .     S
C355   C409    1.509   .     S
C359   C411    1.509   .     S
C363   C410    1.509   .     S
C367   C412    1.509   .     S
C368   H345    0.940   1_556 S
C371   C414    1.509   .     S
C372   H343    0.940   1_556 S
C375   C413    1.509   .     S
C376   H347    0.940   1_556 S
C379   C403    1.509   .     S
C383   C405    1.509   .     S
C387   C404    1.509   .     S
C391   C406    1.509   .     S
C392   H333    0.940   1_554 S
C395   C408    1.509   .     S
C396   H331    0.940   1_554 S
C399   C407    1.509   .     S
C400   H335    0.940   1_554 S
