data_ja406030p_si_008_clean
_audit_creation_date              2015-10-30
_audit_creation_method            'Materials Studio'
_symmetry_space_group_name_H-M    'P1'
_symmetry_Int_Tables_number       1
_symmetry_cell_setting            triclinic
loop_
_symmetry_equiv_pos_as_xyz
  x,y,z
_cell_length_a                    19.2040
_cell_length_b                    19.2040
_cell_length_c                    35.9980
_cell_angle_alpha                 90.0000
_cell_angle_beta                  90.0000
_cell_angle_gamma                 120.0000
loop_
_atom_site_label
_atom_site_type_symbol
_atom_site_fract_x
_atom_site_fract_y
_atom_site_fract_z
_atom_site_U_iso_or_equiv
_atom_site_adp_type
_atom_site_occupancy
H1     H     0.60240   0.90630   0.90990   0.01267  Uiso   1.00
H2     H     0.09120   0.44570   0.09260   0.01267  Uiso   1.00
H3     H     0.20360   0.33820   0.86450   0.01267  Uiso   1.00
H4     H     0.53290   0.67440   0.34770   0.01267  Uiso   1.00
C5     C     0.89780   0.39120   0.60482   0.01267  Uiso   1.00
C6     C     0.35748   0.45520   0.52362   0.01267  Uiso   1.00
C7     C     0.73410   0.59380   0.42230   0.01267  Uiso   1.00
C8     C     0.62660   0.13200   0.85937   0.01267  Uiso   1.00
C9     C     0.84650   0.56830   0.04095   0.01267  Uiso   1.00
O10    O     0.51649   0.63005   0.00855   0.01267  Uiso   1.00
O11    O     0.45739   0.65909   0.28989   0.01267  Uiso   1.00
O12    O     0.03840   0.59422   0.54258   0.01267  Uiso   1.00
H13    H     0.09370   0.69610   0.90990   0.01267  Uiso   1.00
H14    H     0.55430   0.64550   0.09260   0.01267  Uiso   1.00
H15    H     0.66180   0.86540   0.86450   0.01267  Uiso   1.00
H16    H     0.32560   0.85850   0.34770   0.01267  Uiso   1.00
C17    C     0.60880   0.50660   0.60482   0.01267  Uiso   1.00
C18    C     0.54480   0.90228   0.52362   0.01267  Uiso   1.00
C19    C     0.40620   0.14030   0.42230   0.01267  Uiso   1.00
C20    C     0.86800   0.49460   0.85937   0.01267  Uiso   1.00
C21    C     0.43170   0.27820   0.04095   0.01267  Uiso   1.00
O22    O     0.36995   0.88644   0.00855   0.01267  Uiso   1.00
O23    O     0.34091   0.79830   0.28989   0.01267  Uiso   1.00
O24    O     0.40578   0.44418   0.54258   0.01267  Uiso   1.00
H25    H     0.30390   0.39760   0.90990   0.01267  Uiso   1.00
H26    H     0.35450   0.90880   0.09260   0.01267  Uiso   1.00
H27    H     0.13460   0.79640   0.86450   0.01267  Uiso   1.00
H28    H     0.14150   0.46710   0.34770   0.01267  Uiso   1.00
C29    C     0.49340   0.10220   0.60482   0.01267  Uiso   1.00
C30    C     0.09772   0.64252   0.52362   0.01267  Uiso   1.00
C31    C     0.85970   0.26590   0.42230   0.01267  Uiso   1.00
C32    C     0.50540   0.37340   0.85937   0.01267  Uiso   1.00
C33    C     0.72180   0.15350   0.04095   0.01267  Uiso   1.00
O34    O     0.11356   0.48351   0.00855   0.01267  Uiso   1.00
O35    O     0.20170   0.54261   0.28989   0.01267  Uiso   1.00
O36    O     0.55582   0.96160   0.54258   0.01267  Uiso   1.00
H37    H     0.39760   0.09370   0.40990   0.01267  Uiso   1.00
H38    H     0.90880   0.55430   0.59260   0.01267  Uiso   1.00
H39    H     0.79640   0.66180   0.36450   0.01267  Uiso   1.00
H40    H     0.46710   0.32560   0.84770   0.01267  Uiso   1.00
C41    C     0.10220   0.60880   0.10482   0.01267  Uiso   1.00
C42    C     0.64252   0.54480   0.02362   0.01267  Uiso   1.00
C43    C     0.26590   0.40620   0.92230   0.01267  Uiso   1.00
C44    C     0.37340   0.86800   0.35937   0.01267  Uiso   1.00
C45    C     0.15350   0.43170   0.54095   0.01267  Uiso   1.00
O46    O     0.48351   0.36995   0.50855   0.01267  Uiso   1.00
O47    O     0.54261   0.34091   0.78989   0.01267  Uiso   1.00
O48    O     0.96160   0.40578   0.04258   0.01267  Uiso   1.00
H49    H     0.90630   0.30390   0.40990   0.01267  Uiso   1.00
H50    H     0.44570   0.35450   0.59260   0.01267  Uiso   1.00
H51    H     0.33820   0.13460   0.36450   0.01267  Uiso   1.00
H52    H     0.67440   0.14150   0.84770   0.01267  Uiso   1.00
C53    C     0.39120   0.49340   0.10482   0.01267  Uiso   1.00
C54    C     0.45520   0.09772   0.02362   0.01267  Uiso   1.00
C55    C     0.59380   0.85970   0.92230   0.01267  Uiso   1.00
C56    C     0.13200   0.50540   0.35937   0.01267  Uiso   1.00
C57    C     0.56830   0.72180   0.54095   0.01267  Uiso   1.00
O58    O     0.63005   0.11356   0.50855   0.01267  Uiso   1.00
O59    O     0.65909   0.20170   0.78989   0.01267  Uiso   1.00
O60    O     0.59422   0.55582   0.04258   0.01267  Uiso   1.00
H61    H     0.69610   0.60240   0.40990   0.01267  Uiso   1.00
H62    H     0.64550   0.09120   0.59260   0.01267  Uiso   1.00
H63    H     0.86540   0.20360   0.36450   0.01267  Uiso   1.00
H64    H     0.85850   0.53290   0.84770   0.01267  Uiso   1.00
C65    C     0.50660   0.89780   0.10482   0.01267  Uiso   1.00
C66    C     0.90228   0.35748   0.02362   0.01267  Uiso   1.00
C67    C     0.14030   0.73410   0.92230   0.01267  Uiso   1.00
C68    C     0.49460   0.62660   0.35937   0.01267  Uiso   1.00
C69    C     0.27820   0.84650   0.54095   0.01267  Uiso   1.00
O70    O     0.88644   0.51649   0.50855   0.01267  Uiso   1.00
O71    O     0.79830   0.45739   0.78989   0.01267  Uiso   1.00
O72    O     0.44418   0.03840   0.04258   0.01267  Uiso   1.00
H73    H     0.90630   0.60240   0.09010   0.01267  Uiso   1.00
H74    H     0.44570   0.09120   0.90740   0.01267  Uiso   1.00
H75    H     0.33820   0.20360   0.13550   0.01267  Uiso   1.00
H76    H     0.67440   0.53290   0.65230   0.01267  Uiso   1.00
C77    C     0.39120   0.89780   0.39518   0.01267  Uiso   1.00
C78    C     0.45520   0.35748   0.47638   0.01267  Uiso   1.00
C79    C     0.59380   0.73410   0.57770   0.01267  Uiso   1.00
C80    C     0.13200   0.62660   0.14063   0.01267  Uiso   1.00
C81    C     0.56830   0.84650   0.95905   0.01267  Uiso   1.00
O82    O     0.63005   0.51649   0.99145   0.01267  Uiso   1.00
O83    O     0.65909   0.45739   0.71011   0.01267  Uiso   1.00
O84    O     0.59422   0.03840   0.45742   0.01267  Uiso   1.00
H85    H     0.69610   0.09370   0.09010   0.01267  Uiso   1.00
H86    H     0.64550   0.55430   0.90740   0.01267  Uiso   1.00
H87    H     0.86540   0.66180   0.13550   0.01267  Uiso   1.00
H88    H     0.85850   0.32560   0.65230   0.01267  Uiso   1.00
C89    C     0.50660   0.60880   0.39518   0.01267  Uiso   1.00
C90    C     0.90228   0.54480   0.47638   0.01267  Uiso   1.00
C91    C     0.14030   0.40620   0.57770   0.01267  Uiso   1.00
C92    C     0.49460   0.86800   0.14063   0.01267  Uiso   1.00
C93    C     0.27820   0.43170   0.95905   0.01267  Uiso   1.00
O94    O     0.88644   0.36995   0.99145   0.01267  Uiso   1.00
O95    O     0.79830   0.34091   0.71011   0.01267  Uiso   1.00
O96    O     0.44418   0.40578   0.45742   0.01267  Uiso   1.00
H97    H     0.39760   0.30390   0.09010   0.01267  Uiso   1.00
H98    H     0.90880   0.35450   0.90740   0.01267  Uiso   1.00
H99    H     0.79640   0.13460   0.13550   0.01267  Uiso   1.00
H100   H     0.46710   0.14150   0.65230   0.01267  Uiso   1.00
C101   C     0.10220   0.49340   0.39518   0.01267  Uiso   1.00
C102   C     0.64252   0.09772   0.47638   0.01267  Uiso   1.00
C103   C     0.26590   0.85970   0.57770   0.01267  Uiso   1.00
C104   C     0.37340   0.50540   0.14063   0.01267  Uiso   1.00
C105   C     0.15350   0.72180   0.95905   0.01267  Uiso   1.00
O106   O     0.48351   0.11356   0.99145   0.01267  Uiso   1.00
O107   O     0.54261   0.20170   0.71011   0.01267  Uiso   1.00
O108   O     0.96160   0.55582   0.45742   0.01267  Uiso   1.00
H109   H     0.09370   0.39760   0.59010   0.01267  Uiso   1.00
H110   H     0.55430   0.90880   0.40740   0.01267  Uiso   1.00
H111   H     0.66180   0.79640   0.63550   0.01267  Uiso   1.00
H112   H     0.32560   0.46710   0.15230   0.01267  Uiso   1.00
C113   C     0.60880   0.10220   0.89518   0.01267  Uiso   1.00
C114   C     0.54480   0.64252   0.97638   0.01267  Uiso   1.00
C115   C     0.40620   0.26590   0.07770   0.01267  Uiso   1.00
C116   C     0.86800   0.37340   0.64063   0.01267  Uiso   1.00
C117   C     0.43170   0.15350   0.45905   0.01267  Uiso   1.00
O118   O     0.36995   0.48351   0.49145   0.01267  Uiso   1.00
O119   O     0.34091   0.54261   0.21011   0.01267  Uiso   1.00
O120   O     0.40578   0.96160   0.95742   0.01267  Uiso   1.00
H121   H     0.30390   0.90630   0.59010   0.01267  Uiso   1.00
H122   H     0.35450   0.44570   0.40740   0.01267  Uiso   1.00
H123   H     0.13460   0.33820   0.63550   0.01267  Uiso   1.00
H124   H     0.14150   0.67440   0.15230   0.01267  Uiso   1.00
C125   C     0.49340   0.39120   0.89518   0.01267  Uiso   1.00
C126   C     0.09772   0.45520   0.97638   0.01267  Uiso   1.00
C127   C     0.85970   0.59380   0.07770   0.01267  Uiso   1.00
C128   C     0.50540   0.13200   0.64063   0.01267  Uiso   1.00
C129   C     0.72180   0.56830   0.45905   0.01267  Uiso   1.00
O130   O     0.11356   0.63005   0.49145   0.01267  Uiso   1.00
O131   O     0.20170   0.65909   0.21011   0.01267  Uiso   1.00
O132   O     0.55582   0.59422   0.95742   0.01267  Uiso   1.00
H133   H     0.60240   0.69610   0.59010   0.01267  Uiso   1.00
H134   H     0.09120   0.64550   0.40740   0.01267  Uiso   1.00
H135   H     0.20360   0.86540   0.63550   0.01267  Uiso   1.00
H136   H     0.53290   0.85850   0.15230   0.01267  Uiso   1.00
C137   C     0.89780   0.50660   0.89518   0.01267  Uiso   1.00
C138   C     0.35748   0.90228   0.97638   0.01267  Uiso   1.00
C139   C     0.73410   0.14030   0.07770   0.01267  Uiso   1.00
C140   C     0.62660   0.49460   0.64063   0.01267  Uiso   1.00
C141   C     0.84650   0.27820   0.45905   0.01267  Uiso   1.00
O142   O     0.51649   0.88644   0.49145   0.01267  Uiso   1.00
O143   O     0.45739   0.79830   0.21011   0.01267  Uiso   1.00
O144   O     0.03840   0.44418   0.95742   0.01267  Uiso   1.00
H145   H     0.39760   0.09370   0.09010   0.01267  Uiso   1.00
H146   H     0.90880   0.55430   0.90740   0.01267  Uiso   1.00
H147   H     0.79640   0.66180   0.13550   0.01267  Uiso   1.00
H148   H     0.46710   0.32560   0.65230   0.01267  Uiso   1.00
C149   C     0.10220   0.60880   0.39518   0.01267  Uiso   1.00
C150   C     0.64252   0.54480   0.47638   0.01267  Uiso   1.00
C151   C     0.26590   0.40620   0.57770   0.01267  Uiso   1.00
C152   C     0.37340   0.86800   0.14063   0.01267  Uiso   1.00
C153   C     0.15350   0.43170   0.95905   0.01267  Uiso   1.00
O154   O     0.48351   0.36995   0.99145   0.01267  Uiso   1.00
O155   O     0.54261   0.34091   0.71011   0.01267  Uiso   1.00
O156   O     0.96160   0.40578   0.45742   0.01267  Uiso   1.00
H157   H     0.90630   0.30390   0.09010   0.01267  Uiso   1.00
H158   H     0.44570   0.35450   0.90740   0.01267  Uiso   1.00
H159   H     0.33820   0.13460   0.13550   0.01267  Uiso   1.00
H160   H     0.67440   0.14150   0.65230   0.01267  Uiso   1.00
C161   C     0.39120   0.49340   0.39518   0.01267  Uiso   1.00
C162   C     0.45520   0.09772   0.47638   0.01267  Uiso   1.00
C163   C     0.59380   0.85970   0.57770   0.01267  Uiso   1.00
C164   C     0.13200   0.50540   0.14063   0.01267  Uiso   1.00
C165   C     0.56830   0.72180   0.95905   0.01267  Uiso   1.00
O166   O     0.63005   0.11356   0.99145   0.01267  Uiso   1.00
O167   O     0.65909   0.20170   0.71011   0.01267  Uiso   1.00
O168   O     0.59422   0.55582   0.45742   0.01267  Uiso   1.00
H169   H     0.69610   0.60240   0.09010   0.01267  Uiso   1.00
H170   H     0.64550   0.09120   0.90740   0.01267  Uiso   1.00
H171   H     0.86540   0.20360   0.13550   0.01267  Uiso   1.00
H172   H     0.85850   0.53290   0.65230   0.01267  Uiso   1.00
C173   C     0.50660   0.89780   0.39518   0.01267  Uiso   1.00
C174   C     0.90228   0.35748   0.47638   0.01267  Uiso   1.00
C175   C     0.14030   0.73410   0.57770   0.01267  Uiso   1.00
C176   C     0.49460   0.62660   0.14063   0.01267  Uiso   1.00
C177   C     0.27820   0.84650   0.95905   0.01267  Uiso   1.00
O178   O     0.88644   0.51649   0.99145   0.01267  Uiso   1.00
O179   O     0.79830   0.45739   0.71011   0.01267  Uiso   1.00
O180   O     0.44418   0.03840   0.45742   0.01267  Uiso   1.00
H181   H     0.60240   0.90630   0.59010   0.01267  Uiso   1.00
H182   H     0.09120   0.44570   0.40740   0.01267  Uiso   1.00
H183   H     0.20360   0.33820   0.63550   0.01267  Uiso   1.00
H184   H     0.53290   0.67440   0.15230   0.01267  Uiso   1.00
C185   C     0.89780   0.39120   0.89518   0.01267  Uiso   1.00
C186   C     0.35748   0.45520   0.97638   0.01267  Uiso   1.00
C187   C     0.73410   0.59380   0.07770   0.01267  Uiso   1.00
C188   C     0.62660   0.13200   0.64063   0.01267  Uiso   1.00
C189   C     0.84650   0.56830   0.45905   0.01267  Uiso   1.00
O190   O     0.51649   0.63005   0.49145   0.01267  Uiso   1.00
O191   O     0.45739   0.65909   0.21011   0.01267  Uiso   1.00
O192   O     0.03840   0.59422   0.95742   0.01267  Uiso   1.00
H193   H     0.09370   0.69610   0.59010   0.01267  Uiso   1.00
H194   H     0.55430   0.64550   0.40740   0.01267  Uiso   1.00
H195   H     0.66180   0.86540   0.63550   0.01267  Uiso   1.00
H196   H     0.32560   0.85850   0.15230   0.01267  Uiso   1.00
C197   C     0.60880   0.50660   0.89518   0.01267  Uiso   1.00
C198   C     0.54480   0.90228   0.97638   0.01267  Uiso   1.00
C199   C     0.40620   0.14030   0.07770   0.01267  Uiso   1.00
C200   C     0.86800   0.49460   0.64063   0.01267  Uiso   1.00
C201   C     0.43170   0.27820   0.45905   0.01267  Uiso   1.00
O202   O     0.36995   0.88644   0.49145   0.01267  Uiso   1.00
O203   O     0.34091   0.79830   0.21011   0.01267  Uiso   1.00
O204   O     0.40578   0.44418   0.95742   0.01267  Uiso   1.00
H205   H     0.30390   0.39760   0.59010   0.01267  Uiso   1.00
H206   H     0.35450   0.90880   0.40740   0.01267  Uiso   1.00
H207   H     0.13460   0.79640   0.63550   0.01267  Uiso   1.00
H208   H     0.14150   0.46710   0.15230   0.01267  Uiso   1.00
C209   C     0.49340   0.10220   0.89518   0.01267  Uiso   1.00
C210   C     0.09772   0.64252   0.97638   0.01267  Uiso   1.00
C211   C     0.85970   0.26590   0.07770   0.01267  Uiso   1.00
C212   C     0.50540   0.37340   0.64063   0.01267  Uiso   1.00
C213   C     0.72180   0.15350   0.45905   0.01267  Uiso   1.00
O214   O     0.11356   0.48351   0.49145   0.01267  Uiso   1.00
O215   O     0.20170   0.54261   0.21011   0.01267  Uiso   1.00
O216   O     0.55582   0.96160   0.95742   0.01267  Uiso   1.00
H217   H     0.09370   0.39760   0.90990   0.01267  Uiso   1.00
H218   H     0.55430   0.90880   0.09260   0.01267  Uiso   1.00
H219   H     0.66180   0.79640   0.86450   0.01267  Uiso   1.00
H220   H     0.32560   0.46710   0.34770   0.01267  Uiso   1.00
C221   C     0.60880   0.10220   0.60482   0.01267  Uiso   1.00
C222   C     0.54480   0.64252   0.52362   0.01267  Uiso   1.00
C223   C     0.40620   0.26590   0.42230   0.01267  Uiso   1.00
C224   C     0.86800   0.37340   0.85937   0.01267  Uiso   1.00
C225   C     0.43170   0.15350   0.04095   0.01267  Uiso   1.00
O226   O     0.36995   0.48351   0.00855   0.01267  Uiso   1.00
O227   O     0.34091   0.54261   0.28989   0.01267  Uiso   1.00
O228   O     0.40578   0.96160   0.54258   0.01267  Uiso   1.00
H229   H     0.30390   0.90630   0.90990   0.01267  Uiso   1.00
H230   H     0.35450   0.44570   0.09260   0.01267  Uiso   1.00
H231   H     0.13460   0.33820   0.86450   0.01267  Uiso   1.00
H232   H     0.14150   0.67440   0.34770   0.01267  Uiso   1.00
C233   C     0.49340   0.39120   0.60482   0.01267  Uiso   1.00
C234   C     0.09772   0.45520   0.52362   0.01267  Uiso   1.00
C235   C     0.85970   0.59380   0.42230   0.01267  Uiso   1.00
C236   C     0.50540   0.13200   0.85937   0.01267  Uiso   1.00
C237   C     0.72180   0.56830   0.04095   0.01267  Uiso   1.00
O238   O     0.11356   0.63005   0.00855   0.01267  Uiso   1.00
O239   O     0.20170   0.65909   0.28989   0.01267  Uiso   1.00
O240   O     0.55582   0.59422   0.54258   0.01267  Uiso   1.00
H241   H     0.60240   0.69610   0.90990   0.01267  Uiso   1.00
H242   H     0.09120   0.64550   0.09260   0.01267  Uiso   1.00
H243   H     0.20360   0.86540   0.86450   0.01267  Uiso   1.00
H244   H     0.53290   0.85850   0.34770   0.01267  Uiso   1.00
C245   C     0.89780   0.50660   0.60482   0.01267  Uiso   1.00
C246   C     0.35748   0.90228   0.52362   0.01267  Uiso   1.00
C247   C     0.73410   0.14030   0.42230   0.01267  Uiso   1.00
C248   C     0.62660   0.49460   0.85937   0.01267  Uiso   1.00
C249   C     0.84650   0.27820   0.04095   0.01267  Uiso   1.00
O250   O     0.51649   0.88644   0.00855   0.01267  Uiso   1.00
O251   O     0.45739   0.79830   0.28989   0.01267  Uiso   1.00
O252   O     0.03840   0.44418   0.54258   0.01267  Uiso   1.00
H253   H     0.90630   0.60240   0.40990   0.01267  Uiso   1.00
H254   H     0.44570   0.09120   0.59260   0.01267  Uiso   1.00
H255   H     0.33820   0.20360   0.36450   0.01267  Uiso   1.00
H256   H     0.67440   0.53290   0.84770   0.01267  Uiso   1.00
C257   C     0.39120   0.89780   0.10482   0.01267  Uiso   1.00
C258   C     0.45520   0.35748   0.02362   0.01267  Uiso   1.00
C259   C     0.59380   0.73410   0.92230   0.01267  Uiso   1.00
C260   C     0.13200   0.62660   0.35937   0.01267  Uiso   1.00
C261   C     0.56830   0.84650   0.54095   0.01267  Uiso   1.00
O262   O     0.63005   0.51649   0.50855   0.01267  Uiso   1.00
O263   O     0.65909   0.45739   0.78989   0.01267  Uiso   1.00
O264   O     0.59422   0.03840   0.04258   0.01267  Uiso   1.00
H265   H     0.69610   0.09370   0.40990   0.01267  Uiso   1.00
H266   H     0.64550   0.55430   0.59260   0.01267  Uiso   1.00
H267   H     0.86540   0.66180   0.36450   0.01267  Uiso   1.00
H268   H     0.85850   0.32560   0.84770   0.01267  Uiso   1.00
C269   C     0.50660   0.60880   0.10482   0.01267  Uiso   1.00
C270   C     0.90228   0.54480   0.02362   0.01267  Uiso   1.00
C271   C     0.14030   0.40620   0.92230   0.01267  Uiso   1.00
C272   C     0.49460   0.86800   0.35937   0.01267  Uiso   1.00
C273   C     0.27820   0.43170   0.54095   0.01267  Uiso   1.00
O274   O     0.88644   0.36995   0.50855   0.01267  Uiso   1.00
O275   O     0.79830   0.34091   0.78989   0.01267  Uiso   1.00
O276   O     0.44418   0.40578   0.04258   0.01267  Uiso   1.00
H277   H     0.39760   0.30390   0.40990   0.01267  Uiso   1.00
H278   H     0.90880   0.35450   0.59260   0.01267  Uiso   1.00
H279   H     0.79640   0.13460   0.36450   0.01267  Uiso   1.00
H280   H     0.46710   0.14150   0.84770   0.01267  Uiso   1.00
C281   C     0.10220   0.49340   0.10482   0.01267  Uiso   1.00
C282   C     0.64252   0.09772   0.02362   0.01267  Uiso   1.00
C283   C     0.26590   0.85970   0.92230   0.01267  Uiso   1.00
C284   C     0.37340   0.50540   0.35937   0.01267  Uiso   1.00
C285   C     0.15350   0.72180   0.54095   0.01267  Uiso   1.00
O286   O     0.48351   0.11356   0.50855   0.01267  Uiso   1.00
O287   O     0.54261   0.20170   0.78989   0.01267  Uiso   1.00
O288   O     0.96160   0.55582   0.04258   0.01267  Uiso   1.00
Zn289  Zn    0.95377   0.47689   0.96565   0.01267  Uiso   1.00
H290   H     0.47610   0.23805   0.00040   0.01267  Uiso   1.00
C291   C     0.81328   0.40664   0.69634   0.01267  Uiso   1.00
Zn292  Zn    0.52311   0.47689   0.96565   0.01267  Uiso   1.00
H293   H     0.76195   0.23805   0.00040   0.01267  Uiso   1.00
C294   C     0.59336   0.40664   0.69634   0.01267  Uiso   1.00
Zn295  Zn    0.52311   0.04623   0.96565   0.01267  Uiso   1.00
H296   H     0.76195   0.52390   0.00040   0.01267  Uiso   1.00
C297   C     0.59336   0.18672   0.69634   0.01267  Uiso   1.00
Zn298  Zn    0.04623   0.52311   0.46565   0.01267  Uiso   1.00
H299   H     0.52390   0.76195   0.50040   0.01267  Uiso   1.00
C300   C     0.18672   0.59336   0.19634   0.01267  Uiso   1.00
Zn301  Zn    0.47689   0.52311   0.46565   0.01267  Uiso   1.00
H302   H     0.23805   0.76195   0.50040   0.01267  Uiso   1.00
C303   C     0.40664   0.59336   0.19634   0.01267  Uiso   1.00
Zn304  Zn    0.47689   0.95377   0.46565   0.01267  Uiso   1.00
H305   H     0.23805   0.47610   0.50040   0.01267  Uiso   1.00
C306   C     0.40664   0.81328   0.19634   0.01267  Uiso   1.00
Zn307  Zn    0.47689   0.95377   0.03435   0.01267  Uiso   1.00
H308   H     0.23805   0.47610   0.99960   0.01267  Uiso   1.00
C309   C     0.40664   0.81328   0.30366   0.01267  Uiso   1.00
Zn310  Zn    0.47689   0.52311   0.03435   0.01267  Uiso   1.00
H311   H     0.23805   0.76195   0.99960   0.01267  Uiso   1.00
C312   C     0.40664   0.59336   0.30366   0.01267  Uiso   1.00
Zn313  Zn    0.04623   0.52311   0.03435   0.01267  Uiso   1.00
H314   H     0.52390   0.76195   0.99960   0.01267  Uiso   1.00
C315   C     0.18672   0.59336   0.30366   0.01267  Uiso   1.00
Zn316  Zn    0.52311   0.04623   0.53435   0.01267  Uiso   1.00
H317   H     0.76195   0.52390   0.49960   0.01267  Uiso   1.00
C318   C     0.59336   0.18672   0.80366   0.01267  Uiso   1.00
Zn319  Zn    0.52311   0.47689   0.53435   0.01267  Uiso   1.00
H320   H     0.76195   0.23805   0.49960   0.01267  Uiso   1.00
C321   C     0.59336   0.40664   0.80366   0.01267  Uiso   1.00
Zn322  Zn    0.95377   0.47689   0.53435   0.01267  Uiso   1.00
H323   H     0.47610   0.23805   0.49960   0.01267  Uiso   1.00
C324   C     0.81328   0.40664   0.80366   0.01267  Uiso   1.00
Cr325  Cr    0.27583   0.72417   0.25000   0.01267  Uiso   1.00
Cr326  Cr    0.27583   0.55166   0.25000   0.01267  Uiso   1.00
Cr327  Cr    0.44834   0.72417   0.25000   0.01267  Uiso   1.00
Cr328  Cr    0.72417   0.27583   0.75000   0.01267  Uiso   1.00
Cr329  Cr    0.72417   0.44834   0.75000   0.01267  Uiso   1.00
Cr330  Cr    0.55166   0.27583   0.75000   0.01267  Uiso   1.00
C331   C     0.57357   0.14714   0.65854   0.01267  Uiso   1.00
O332   O     0.81635   0.63270   0.13190   0.01267  Uiso   1.00
C333   C     0.85286   0.42643   0.65854   0.01267  Uiso   1.00
O334   O     0.36730   0.18365   0.13190   0.01267  Uiso   1.00
C335   C     0.57357   0.42643   0.65854   0.01267  Uiso   1.00
O336   O     0.81635   0.18365   0.13190   0.01267  Uiso   1.00
C337   C     0.42643   0.85286   0.15854   0.01267  Uiso   1.00
O338   O     0.18365   0.36730   0.63190   0.01267  Uiso   1.00
C339   C     0.14714   0.57357   0.15854   0.01267  Uiso   1.00
O340   O     0.63270   0.81635   0.63190   0.01267  Uiso   1.00
C341   C     0.42643   0.57357   0.15854   0.01267  Uiso   1.00
O342   O     0.18365   0.81635   0.63190   0.01267  Uiso   1.00
C343   C     0.14714   0.57357   0.34146   0.01267  Uiso   1.00
O344   O     0.63270   0.81635   0.86810   0.01267  Uiso   1.00
C345   C     0.42643   0.85286   0.34146   0.01267  Uiso   1.00
O346   O     0.18365   0.36730   0.86810   0.01267  Uiso   1.00
C347   C     0.42643   0.57357   0.34146   0.01267  Uiso   1.00
O348   O     0.18365   0.81635   0.86810   0.01267  Uiso   1.00
C349   C     0.85286   0.42643   0.84146   0.01267  Uiso   1.00
O350   O     0.36730   0.18365   0.36810   0.01267  Uiso   1.00
C351   C     0.57357   0.14714   0.84146   0.01267  Uiso   1.00
O352   O     0.81635   0.63270   0.36810   0.01267  Uiso   1.00
C353   C     0.57357   0.42643   0.84146   0.01267  Uiso   1.00
O354   O     0.81635   0.18365   0.36810   0.01267  Uiso   1.00
C355   C     0.22530   0.45060   0.52373   0.01267  Uiso   1.00
N356   N     0.45580   0.91160   0.08714   0.01267  Uiso   1.00
C357   C     0.54940   0.77470   0.52373   0.01267  Uiso   1.00
N358   N     0.08840   0.54420   0.08714   0.01267  Uiso   1.00
C359   C     0.22530   0.77470   0.52373   0.01267  Uiso   1.00
N360   N     0.45580   0.54420   0.08714   0.01267  Uiso   1.00
C361   C     0.77470   0.54940   0.02373   0.01267  Uiso   1.00
N362   N     0.54420   0.08840   0.58714   0.01267  Uiso   1.00
C363   C     0.45060   0.22530   0.02373   0.01267  Uiso   1.00
N364   N     0.91160   0.45580   0.58714   0.01267  Uiso   1.00
C365   C     0.77470   0.22530   0.02373   0.01267  Uiso   1.00
N366   N     0.54420   0.45580   0.58714   0.01267  Uiso   1.00
C367   C     0.45060   0.22530   0.47627   0.01267  Uiso   1.00
N368   N     0.91160   0.45580   0.91286   0.01267  Uiso   1.00
C369   C     0.77470   0.54940   0.47627   0.01267  Uiso   1.00
N370   N     0.54420   0.08840   0.91286   0.01267  Uiso   1.00
C371   C     0.77470   0.22530   0.47627   0.01267  Uiso   1.00
N372   N     0.54420   0.45580   0.91286   0.01267  Uiso   1.00
C373   C     0.54940   0.77470   0.97627   0.01267  Uiso   1.00
N374   N     0.08840   0.54420   0.41286   0.01267  Uiso   1.00
C375   C     0.22530   0.45060   0.97627   0.01267  Uiso   1.00
N376   N     0.45580   0.91160   0.41286   0.01267  Uiso   1.00
C377   C     0.22530   0.77470   0.97627   0.01267  Uiso   1.00
N378   N     0.45580   0.54420   0.41286   0.01267  Uiso   1.00
C379   C     0.80320   0.19680   0.09580   0.01267  Uiso   1.00
C380   C     0.80320   0.60640   0.09580   0.01267  Uiso   1.00
C381   C     0.39360   0.19680   0.09580   0.01267  Uiso   1.00
C382   C     0.19680   0.80320   0.59580   0.01267  Uiso   1.00
C383   C     0.19680   0.39360   0.59580   0.01267  Uiso   1.00
C384   C     0.60640   0.80320   0.59580   0.01267  Uiso   1.00
C385   C     0.19680   0.80320   0.90420   0.01267  Uiso   1.00
C386   C     0.60640   0.80320   0.90420   0.01267  Uiso   1.00
C387   C     0.19680   0.39360   0.90420   0.01267  Uiso   1.00
C388   C     0.80320   0.19680   0.40420   0.01267  Uiso   1.00
C389   C     0.39360   0.19680   0.40420   0.01267  Uiso   1.00
C390   C     0.80320   0.60640   0.40420   0.01267  Uiso   1.00
O391   O     0.33333   0.66667   0.25000   0.01267  Uiso   1.00
O392   O     0.66667   0.33333   0.75000   0.01267  Uiso   1.00
loop_
_geom_bond_atom_site_label_1
_geom_bond_atom_site_label_2
_geom_bond_distance
_geom_bond_site_symmetry_2
_ccdc_geom_bond_type
H1     C55     0.938   .     S
H2     C281    0.940   .     S
H3     O346    0.831   .     S
H4     C68     0.941   .     S
C5     H278    0.940   .     S
C5     C116    1.382   .     A
C5     N364    1.298   .     A
C6     C273    1.491   .     S
C6     O118    1.251   .     A
C6     O24     1.252   .     A
C7     H61     0.938   .     S
C7     C129    1.389   .     A
C7     C390    1.387   .     A
C8     H52     0.941   .     S
C8     C351    1.354   .     A
C8     C113    1.382   .     A
C9     C127    1.389   .     A
C9     C270    1.491   .     S
C9     C361    1.384   .     A
O10    Zn310   2.024   .     S
O10    C114    1.251   1_554 A
O11    C312    1.248   .     A
O11    Cr327   1.968   .     S
O12    C30     1.252   .     A
O12    Zn322   2.036   1_455 S
H13    C67     0.938   .     S
H14    C269    0.940   .     S
H15    O344    0.831   .     S
H16    C44     0.941   .     S
C17    H266    0.940   .     S
C17    C140    1.382   .     A
C17    N366    1.298   .     A
C18    C261    1.491   .     S
C18    O142    1.251   .     A
C18    O36     1.252   .     A
C19    H37     0.938   .     S
C19    C117    1.389   .     A
C19    C389    1.387   .     A
C20    H64     0.941   .     S
C20    C349    1.354   .     A
C20    C137    1.382   .     A
C21    C115    1.389   .     A
C21    C258    1.491   .     S
C21    C363    1.384   .     A
O22    Zn307   2.024   .     S
O22    C138    1.251   1_554 A
O23    C309    1.248   .     A
O23    Cr325   1.968   .     S
O24    Zn319   2.036   .     S
H25    C43     0.938   .     S
H26    C257    0.940   .     S
H27    O348    0.831   .     S
H28    C56     0.941   .     S
C29    H254    0.940   .     S
C29    C128    1.382   .     A
C29    N362    1.298   .     A
C30    C285    1.491   .     S
C30    O130    1.251   .     A
C31    H49     0.938   .     S
C31    C141    1.389   .     A
C31    C388    1.387   .     A
C32    H40     0.941   .     S
C32    C353    1.354   .     A
C32    C125    1.382   .     A
C33    C139    1.389   .     A
C33    C282    1.491   .     S
C33    C365    1.384   .     A
O34    Zn313   2.024   .     S
O34    C126    1.251   1_554 A
O35    C315    1.248   .     A
O35    Cr326   1.968   .     S
O36    Zn316   2.036   1_565 S
H38    C245    0.940   .     S
H39    O352    0.831   .     S
C41    H242    0.940   .     S
C41    C80     1.382   .     A
C41    N358    1.298   .     A
C42    C237    1.491   .     S
C42    O82     1.251   1_554 A
C42    O60     1.252   .     A
C43    C93     1.389   .     A
C43    C387    1.387   .     A
C44    C345    1.354   .     A
C44    C77     1.382   .     A
C45    C91     1.389   .     A
C45    C234    1.491   .     S
C45    C355    1.384   .     A
O46    Zn319   2.024   .     S
O46    C78     1.251   .     A
O47    C321    1.248   .     A
O47    Cr330   1.968   .     S
O48    C66     1.252   .     A
O48    Zn313   2.036   1_655 S
H50    C233    0.940   .     S
H51    O350    0.831   .     S
C53    H230    0.940   .     S
C53    C104    1.382   .     A
C53    N360    1.298   .     A
C54    C225    1.491   .     S
C54    O106    1.251   1_554 A
C54    O72     1.252   .     A
C55    C81     1.389   .     A
C55    C386    1.387   .     A
C56    C343    1.354   .     A
C56    C101    1.382   .     A
C57    C79     1.389   .     A
C57    C222    1.491   .     S
C57    C357    1.384   .     A
O58    Zn316   2.024   .     S
O58    C102    1.251   .     A
O59    C318    1.248   .     A
O59    Cr328   1.968   .     S
O60    Zn310   2.036   .     S
H62    C221    0.940   .     S
H63    O354    0.831   .     S
C65    H218    0.940   .     S
C65    C92     1.382   .     A
C65    N356    1.298   .     A
C66    C249    1.491   .     S
C66    O94     1.251   1_554 A
C67    C105    1.389   .     A
C67    C385    1.387   .     A
C68    C347    1.354   .     A
C68    C89     1.382   .     A
C69    C103    1.389   .     A
C69    C246    1.491   .     S
C69    C359    1.384   .     A
O70    Zn322   2.024   .     S
O70    C90     1.251   .     A
O71    C324    1.248   .     A
O71    Cr329   1.968   .     S
O72    Zn307   2.036   1_545 S
H73    C127    0.938   .     S
H74    C209    0.940   .     S
H75    O334    0.831   .     S
H76    C140    0.941   .     S
C77    H206    0.940   .     S
C77    N376    1.298   .     A
C78    C201    1.491   .     S
C78    O96     1.252   .     A
C79    H133    0.938   .     S
C79    C384    1.387   .     A
C80    H124    0.941   .     S
C80    C339    1.354   .     A
C81    C198    1.491   .     S
C81    C373    1.384   .     A
O82    Zn292   2.024   .     S
O82    C42     1.251   1_556 A
O83    C294    1.248   .     A
O83    Cr329   1.968   .     S
O84    C102    1.252   .     A
O84    Zn304   2.036   1_545 S
H85    C139    0.938   .     S
H86    C197    0.940   .     S
H87    O332    0.831   .     S
H88    C116    0.941   .     S
C89    H194    0.940   .     S
C89    N378    1.298   .     A
C90    C189    1.491   .     S
C90    O108    1.252   .     A
C91    H109    0.938   .     S
C91    C383    1.387   .     A
C92    H136    0.941   .     S
C92    C337    1.354   .     A
C93    C186    1.491   .     S
C93    C375    1.384   .     A
O94    Zn289   2.024   .     S
O94    C66     1.251   1_556 A
O95    C291    1.248   .     A
O95    Cr328   1.968   .     S
O96    Zn301   2.036   .     S
H97    C115    0.938   .     S
H98    C185    0.940   .     S
H99    O336    0.831   .     S
H100   C128    0.941   .     S
C101   H182    0.940   .     S
C101   N374    1.298   .     A
C102   C213    1.491   .     S
C103   H121    0.938   .     S
C103   C382    1.387   .     A
C104   H112    0.941   .     S
C104   C341    1.354   .     A
C105   C210    1.491   .     S
C105   C377    1.384   .     A
O106   Zn295   2.024   .     S
O106   C54     1.251   1_556 A
O107   C297    1.248   .     A
O107   Cr330   1.968   .     S
O108   Zn298   2.036   1_655 S
H110   C173    0.940   .     S
H111   O340    0.831   .     S
C113   H170    0.940   .     S
C113   N370    1.298   .     A
C114   C165    1.491   .     S
C114   O10     1.251   1_556 A
C114   O132    1.252   .     A
C115   C381    1.387   .     A
C116   C333    1.354   .     A
C117   C162    1.491   .     S
C117   C367    1.384   .     A
O118   Zn301   2.024   .     S
O119   C303    1.248   .     A
O119   Cr326   1.968   .     S
O120   C138    1.252   .     A
O120   Zn295   2.036   1_565 S
H122   C161    0.940   .     S
H123   O338    0.831   .     S
C125   H158    0.940   .     S
C125   N372    1.298   .     A
C126   C153    1.491   .     S
C126   O34     1.251   1_556 A
C126   O144    1.252   .     A
C127   C380    1.387   .     A
C128   C331    1.354   .     A
C129   C150    1.491   .     S
C129   C369    1.384   .     A
O130   Zn298   2.024   .     S
O131   C300    1.248   .     A
O131   Cr325   1.968   .     S
O132   Zn292   2.036   .     S
H134   C149    0.940   .     S
H135   O342    0.831   .     S
C137   H146    0.940   .     S
C137   N368    1.298   .     A
C138   C177    1.491   .     S
C138   O22     1.251   1_556 A
C139   C379    1.387   .     A
C140   C335    1.354   .     A
C141   C174    1.491   .     S
C141   C371    1.384   .     A
O142   Zn304   2.024   .     S
O143   C306    1.248   .     A
O143   Cr327   1.968   .     S
O144   Zn289   2.036   1_455 S
H145   C199    0.938   .     S
H147   O332    0.831   .     S
H148   C212    0.941   .     S
C149   C260    1.382   .     A
C149   N374    1.298   .     A
C150   O262    1.251   .     A
C150   O168    1.252   .     A
C151   H205    0.938   .     S
C151   C273    1.389   .     A
C151   C383    1.387   .     A
C152   H196    0.941   .     S
C152   C337    1.354   .     A
C152   C257    1.382   .     A
C153   C271    1.389   .     A
C153   C375    1.384   .     A
O154   Zn292   2.024   .     S
O154   C258    1.251   1_556 A
O155   C294    1.248   .     A
O155   Cr330   1.968   .     S
O156   C174    1.252   .     A
O156   Zn298   2.036   1_655 S
H157   C211    0.938   .     S
H159   O334    0.831   .     S
H160   C188    0.941   .     S
C161   C284    1.382   .     A
C161   N378    1.298   .     A
C162   O286    1.251   .     A
C162   O180    1.252   .     A
C163   H181    0.938   .     S
C163   C261    1.389   .     A
C163   C384    1.387   .     A
C164   H208    0.941   .     S
C164   C339    1.354   .     A
C164   C281    1.382   .     A
C165   C259    1.389   .     A
C165   C373    1.384   .     A
O166   Zn295   2.024   .     S
O166   C282    1.251   1_556 A
O167   C297    1.248   .     A
O167   Cr328   1.968   .     S
O168   Zn301   2.036   .     S
H169   C187    0.938   .     S
H171   O336    0.831   .     S
H172   C200    0.941   .     S
C173   C272    1.382   .     A
C173   N376    1.298   .     A
C174   O274    1.251   .     A
C175   H193    0.938   .     S
C175   C285    1.389   .     A
C175   C382    1.387   .     A
C176   H184    0.941   .     S
C176   C341    1.354   .     A
C176   C269    1.382   .     A
C177   C283    1.389   .     A
C177   C377    1.384   .     A
O178   Zn289   2.024   .     S
O178   C270    1.251   1_556 A
O179   C291    1.248   .     A
O179   Cr329   1.968   .     S
O180   Zn304   2.036   1_545 S
H183   O338    0.831   .     S
C185   C224    1.382   .     A
C185   N368    1.298   .     A
C186   O226    1.251   1_556 A
C186   O204    1.252   .     A
C187   C237    1.389   .     A
C187   C380    1.387   .     A
C188   C331    1.354   .     A
C188   C221    1.382   .     A
C189   C235    1.389   .     A
C189   C369    1.384   .     A
O190   Zn301   2.024   .     S
O190   C222    1.251   .     A
O191   C303    1.248   .     A
O191   Cr327   1.968   .     S
O192   C210    1.252   .     A
O192   Zn289   2.036   1_455 S
H195   O340    0.831   .     S
C197   C248    1.382   .     A
C197   N372    1.298   .     A
C198   O250    1.251   1_556 A
C198   O216    1.252   .     A
C199   C225    1.389   .     A
C199   C381    1.387   .     A
C200   C333    1.354   .     A
C200   C245    1.382   .     A
C201   C223    1.389   .     A
C201   C367    1.384   .     A
O202   Zn304   2.024   .     S
O202   C246    1.251   .     A
O203   C306    1.248   .     A
O203   Cr325   1.968   .     S
O204   Zn292   2.036   .     S
H207   O342    0.831   .     S
C209   C236    1.382   .     A
C209   N370    1.298   .     A
C210   O238    1.251   1_556 A
C211   C249    1.389   .     A
C211   C379    1.387   .     A
C212   C335    1.354   .     A
C212   C233    1.382   .     A
C213   C247    1.389   .     A
C213   C371    1.384   .     A
O214   Zn298   2.024   .     S
O214   C234    1.251   .     A
O215   C300    1.248   .     A
O215   Cr326   1.968   .     S
O216   Zn295   2.036   1_565 S
H217   C271    0.938   .     S
H219   O344    0.831   .     S
H220   C284    0.941   .     S
C221   N362    1.298   .     A
C222   O240    1.252   .     A
C223   H277    0.938   .     S
C223   C389    1.387   .     A
C224   H268    0.941   .     S
C224   C349    1.354   .     A
C225   C363    1.384   .     A
O226   Zn310   2.024   .     S
O226   C186    1.251   1_554 A
O227   C312    1.248   .     A
O227   Cr326   1.968   .     S
O228   C246    1.252   .     A
O228   Zn316   2.036   1_565 S
H229   C283    0.938   .     S
H231   O346    0.831   .     S
H232   C260    0.941   .     S
C233   N366    1.298   .     A
C234   O252    1.252   .     A
C235   H253    0.938   .     S
C235   C390    1.387   .     A
C236   H280    0.941   .     S
C236   C351    1.354   .     A
C237   C361    1.384   .     A
O238   Zn313   2.024   .     S
O238   C210    1.251   1_554 A
O239   C315    1.248   .     A
O239   Cr325   1.968   .     S
O240   Zn319   2.036   .     S
H241   C259    0.938   .     S
H243   O348    0.831   .     S
H244   C272    0.941   .     S
C245   N364    1.298   .     A
C247   H265    0.938   .     S
C247   C388    1.387   .     A
C248   H256    0.941   .     S
C248   C353    1.354   .     A
C249   C365    1.384   .     A
O250   Zn307   2.024   .     S
O250   C198    1.251   1_554 A
O251   C309    1.248   .     A
O251   Cr327   1.968   .     S
O252   Zn322   2.036   1_455 S
H255   O350    0.831   .     S
C257   N356    1.298   .     A
C258   O154    1.251   1_554 A
C258   O276    1.252   .     A
C259   C386    1.387   .     A
C260   C343    1.354   .     A
C261   C357    1.384   .     A
O262   Zn319   2.024   .     S
O263   C321    1.248   .     A
O263   Cr329   1.968   .     S
O264   C282    1.252   .     A
O264   Zn307   2.036   1_545 S
H267   O352    0.831   .     S
C269   N360    1.298   .     A
C270   O178    1.251   1_554 A
C270   O288    1.252   .     A
C271   C387    1.387   .     A
C272   C345    1.354   .     A
C273   C355    1.384   .     A
O274   Zn322   2.024   .     S
O275   C324    1.248   .     A
O275   Cr328   1.968   .     S
O276   Zn310   2.036   .     S
H279   O354    0.831   .     S
C281   N358    1.298   .     A
C282   O166    1.251   1_554 A
C283   C385    1.387   .     A
C284   C347    1.354   .     A
C285   C359    1.384   .     A
O286   Zn316   2.024   .     S
O287   C318    1.248   .     A
O287   Cr330   1.968   .     S
O288   Zn313   2.036   1_655 S
Zn289  N368    2.026   .     S
Zn289  O144    2.036   1_655 S
Zn289  O192    2.036   1_655 S
H290   C363    0.941   .     S
C291   C333    1.512   .     S
Zn292  N372    2.026   .     S
H293   C365    0.941   .     S
C294   C335    1.512   .     S
Zn295  N370    2.026   .     S
Zn295  O120    2.036   1_545 S
Zn295  O216    2.036   1_545 S
H296   C361    0.941   .     S
C297   C331    1.512   .     S
Zn298  N374    2.026   .     S
Zn298  O108    2.036   1_455 S
Zn298  O156    2.036   1_455 S
H299   C357    0.941   .     S
C300   C339    1.512   .     S
Zn301  N378    2.026   .     S
H302   C359    0.941   .     S
C303   C341    1.512   .     S
Zn304  N376    2.026   .     S
Zn304  O84     2.036   1_565 S
Zn304  O180    2.036   1_565 S
H305   C355    0.941   .     S
C306   C337    1.512   .     S
Zn307  N356    2.026   .     S
Zn307  O72     2.036   1_565 S
Zn307  O264    2.036   1_565 S
H308   C375    0.941   .     S
C309   C345    1.512   .     S
Zn310  N360    2.026   .     S
H311   C377    0.941   .     S
C312   C347    1.512   .     S
Zn313  N358    2.026   .     S
Zn313  O48     2.036   1_455 S
Zn313  O288    2.036   1_455 S
H314   C373    0.941   .     S
C315   C343    1.512   .     S
Zn316  N362    2.026   .     S
Zn316  O36     2.036   1_545 S
Zn316  O228    2.036   1_545 S
H317   C369    0.941   .     S
C318   C351    1.512   .     S
Zn319  N366    2.026   .     S
H320   C371    0.941   .     S
C321   C353    1.512   .     S
Zn322  N364    2.026   .     S
Zn322  O12     2.036   1_655 S
Zn322  O252    2.036   1_655 S
H323   C367    0.941   .     S
C324   C349    1.512   .     S
Cr325  O391    1.913   .     S
Cr326  O391    1.913   .     S
Cr327  O391    1.913   .     S
Cr328  O392    1.913   .     S
Cr329  O392    1.913   .     S
Cr330  O392    1.913   .     S
O332   C380    1.371   .     S
O334   C381    1.371   .     S
O336   C379    1.371   .     S
O338   C383    1.371   .     S
O340   C384    1.371   .     S
O342   C382    1.371   .     S
O344   C386    1.371   .     S
O346   C387    1.371   .     S
O348   C385    1.371   .     S
O350   C389    1.371   .     S
O352   C390    1.371   .     S
O354   C388    1.371   .     S
