data_repaired_ja500330a_si_006
_audit_creation_date              2015-11-03
_audit_creation_method            'Materials Studio'
_symmetry_space_group_name_H-M    'P1'
_symmetry_Int_Tables_number       1
_symmetry_cell_setting            triclinic
loop_
_symmetry_equiv_pos_as_xyz
  x,y,z
_cell_length_a                    26.8514
_cell_length_b                    26.8514
_cell_length_c                    26.8514
_cell_angle_alpha                 90.0000
_cell_angle_beta                  90.0000
_cell_angle_gamma                 90.0000
loop_
_atom_site_label
_atom_site_type_symbol
_atom_site_fract_x
_atom_site_fract_y
_atom_site_fract_z
_atom_site_U_iso_or_equiv
_atom_site_adp_type
_atom_site_occupancy
O1     O     0.12872   0.06758  -0.00156   0.00000  Uiso   1.00
O2     O    -0.12880   0.06833   0.00162   0.00000  Uiso   1.00
O3     O     0.00141   0.12902  -0.06684   0.00000  Uiso   1.00
O4     O    -0.00161   0.12753   0.06944   0.00000  Uiso   1.00
O5     O    -0.00083   0.06621   0.12965   0.00000  Uiso   1.00
O6     O     0.00156   0.06928  -0.12842   0.00000  Uiso   1.00
O7     O    -0.06774   0.12851   0.00256   0.00000  Uiso   1.00
O8     O     0.06793   0.12811  -0.00077   0.00000  Uiso   1.00
Zr9    Zr    0.00003   0.08761   0.00078   0.00000  Uiso   1.00
O10    O    -0.04530   0.04446   0.04564   0.00000  Uiso   1.00
O11    O     0.04532   0.04507  -0.04488   0.00000  Uiso   1.00
X12    C     0.11429   0.11401  -0.00209   0.00000  Uiso   1.00
X13    C    -0.11421   0.11466   0.00287   0.00000  Uiso   1.00
X14    C     0.00202   0.11554  -0.11346   0.00000  Uiso   1.00
X15    C    -0.00157   0.11266   0.11570   0.00000  Uiso   1.00
H16    H    -0.06613   0.06664  -0.06588   0.00000  Uiso   1.00
O17    O    -0.04493   0.04513  -0.04485   0.00000  Uiso   1.00
H18    H     0.06625   0.06506   0.06666   0.00000  Uiso   1.00
O19    O     0.04488   0.04393   0.04541   0.00000  Uiso   1.00
O20    O    -0.12935  -0.06793  -0.00325   0.00000  Uiso   1.00
O21    O     0.12832  -0.06906   0.00268   0.00000  Uiso   1.00
O22    O    -0.06836  -0.00067  -0.12922   0.00000  Uiso   1.00
O23    O    -0.06871   0.00057   0.12868   0.00000  Uiso   1.00
O24    O     0.06823  -0.00303   0.12899   0.00000  Uiso   1.00
O25    O     0.06857   0.00249  -0.12875   0.00000  Uiso   1.00
O26    O    -0.00365  -0.12855  -0.06910   0.00000  Uiso   1.00
O27    O     0.00060  -0.12978   0.06684   0.00000  Uiso   1.00
O28    O    -0.00097  -0.06745  -0.12962   0.00000  Uiso   1.00
O29    O     0.00079  -0.06992   0.12831   0.00000  Uiso   1.00
O30    O    -0.12880  -0.00080  -0.06832   0.00000  Uiso   1.00
O31    O     0.12906  -0.00066  -0.06765   0.00000  Uiso   1.00
O32    O     0.12864  -0.00223   0.06809   0.00000  Uiso   1.00
O33    O    -0.12900   0.00128   0.06759   0.00000  Uiso   1.00
O34    O    -0.06888  -0.12902  -0.00169   0.00000  Uiso   1.00
O35    O     0.06735  -0.12966  -0.00054   0.00000  Uiso   1.00
Zr36   Zr   -0.08833  -0.00002  -0.00030   0.00000  Uiso   1.00
Zr37   Zr    0.08803  -0.00075   0.00012   0.00000  Uiso   1.00
Zr38   Zr    0.00002   0.00050  -0.08857   0.00000  Uiso   1.00
Zr39   Zr   -0.00019  -0.00134   0.08837   0.00000  Uiso   1.00
Zr40   Zr   -0.00063  -0.08858  -0.00080   0.00000  Uiso   1.00
O41    O     0.04489  -0.04635   0.04495   0.00000  Uiso   1.00
O42    O    -0.04545  -0.04496  -0.04589   0.00000  Uiso   1.00
X43    C    -0.11511  -0.11434  -0.00334   0.00000  Uiso   1.00
X44    C     0.11369  -0.11532   0.00184   0.00000  Uiso   1.00
X45    C    -0.11479  -0.00127  -0.11475   0.00000  Uiso   1.00
X46    C    -0.11507   0.00183   0.11405   0.00000  Uiso   1.00
X47    C     0.11466  -0.00324   0.11453   0.00000  Uiso   1.00
X48    C     0.11484   0.00117  -0.11400   0.00000  Uiso   1.00
X49    C    -0.00328  -0.11380  -0.11530   0.00000  Uiso   1.00
X50    C     0.00104  -0.11615   0.11339   0.00000  Uiso   1.00
H51    H     0.06572  -0.06645  -0.06662   0.00000  Uiso   1.00
O52    O     0.04458  -0.04510  -0.04535   0.00000  Uiso   1.00
H53    H    -0.06691  -0.06680   0.06554   0.00000  Uiso   1.00
O54    O    -0.04544  -0.04554   0.04451   0.00000  Uiso   1.00
O55    O     0.62826   0.56676  -0.00178   0.00000  Uiso   1.00
O56    O     0.37085   0.56694   0.00160   0.00000  Uiso   1.00
O57    O     0.50148   0.62852  -0.06706   0.00000  Uiso   1.00
O58    O     0.49752   0.62706   0.06942   0.00000  Uiso   1.00
O59    O     0.49932   0.56565   0.12956   0.00000  Uiso   1.00
O60    O     0.50085   0.56867  -0.12857   0.00000  Uiso   1.00
O61    O     0.43117   0.62800   0.00105   0.00000  Uiso   1.00
O62    O     0.56806   0.62789   0.00063   0.00000  Uiso   1.00
Zr63   Zr    0.49961   0.58735   0.00067   0.00000  Uiso   1.00
O64    O     0.45450   0.54390   0.04568   0.00000  Uiso   1.00
O65    O     0.54479   0.54468  -0.04515   0.00000  Uiso   1.00
X66    C     0.61443   0.61325  -0.00022   0.00000  Uiso   1.00
X67    C     0.38479   0.61340   0.00090   0.00000  Uiso   1.00
X68    C     0.50182   0.61495  -0.11367   0.00000  Uiso   1.00
X69    C     0.49808   0.61209   0.11564   0.00000  Uiso   1.00
H70    H     0.43340   0.56561  -0.06596   0.00000  Uiso   1.00
O71    O     0.45466   0.54436  -0.04471   0.00000  Uiso   1.00
H72    H     0.56597   0.56428   0.06649   0.00000  Uiso   1.00
O73    O     0.54459   0.54336   0.04505   0.00000  Uiso   1.00
O74    O     0.37070   0.43084  -0.00140   0.00000  Uiso   1.00
O75    O     0.62825   0.43047   0.00023   0.00000  Uiso   1.00
O76    O     0.43096   0.49843  -0.12903   0.00000  Uiso   1.00
O77    O     0.43146   0.49991   0.12889   0.00000  Uiso   1.00
O78    O     0.56830   0.49620   0.12857   0.00000  Uiso   1.00
O79    O     0.56767   0.50204  -0.12923   0.00000  Uiso   1.00
O80    O     0.49646   0.37087  -0.06897   0.00000  Uiso   1.00
O81    O     0.50136   0.36977   0.06676   0.00000  Uiso   1.00
O82    O     0.49809   0.43181  -0.12959   0.00000  Uiso   1.00
O83    O     0.50115   0.42956   0.12824   0.00000  Uiso   1.00
O84    O     0.37079   0.49736  -0.06788   0.00000  Uiso   1.00
O85    O     0.62838   0.49951  -0.06836   0.00000  Uiso   1.00
O86    O     0.62849   0.49650   0.06743   0.00000  Uiso   1.00
O87    O     0.37104   0.50055   0.06798   0.00000  Uiso   1.00
O88    O     0.43154   0.37014  -0.00146   0.00000  Uiso   1.00
O89    O     0.56727   0.36994  -0.00061   0.00000  Uiso   1.00
Zr90   Zr    0.41154   0.49899   0.00001   0.00000  Uiso   1.00
Zr91   Zr    0.58765   0.49870  -0.00043   0.00000  Uiso   1.00
Zr92   Zr    0.49942   0.49991  -0.08866   0.00000  Uiso   1.00
Zr93   Zr    0.49982   0.49812   0.08826   0.00000  Uiso   1.00
Zr94   Zr    0.49941   0.41092  -0.00082   0.00000  Uiso   1.00
O95    O     0.54494   0.45316   0.04475   0.00000  Uiso   1.00
O96    O     0.45427   0.45425  -0.04580   0.00000  Uiso   1.00
X97    C     0.38522   0.38450  -0.00136   0.00000  Uiso   1.00
X98    C     0.61365   0.38416  -0.00042   0.00000  Uiso   1.00
X99    C     0.38463   0.49707  -0.11437   0.00000  Uiso   1.00
X100   C     0.38506   0.50110   0.11440   0.00000  Uiso   1.00
X101   C     0.61464   0.49554   0.11392   0.00000  Uiso   1.00
X102   C     0.61400   0.50116  -0.11465   0.00000  Uiso   1.00
X103   C     0.49625   0.38542  -0.11521   0.00000  Uiso   1.00
X104   C     0.50187   0.38333   0.11331   0.00000  Uiso   1.00
H105   H     0.56523   0.43316  -0.06724   0.00000  Uiso   1.00
O106   O     0.54419   0.45438  -0.04574   0.00000  Uiso   1.00
H107   H     0.43344   0.43244   0.06598   0.00000  Uiso   1.00
O108   O     0.45467   0.45371   0.04471   0.00000  Uiso   1.00
O109   O     0.12857   0.56849   0.49790   0.00000  Uiso   1.00
O110   O    -0.12876   0.56909   0.50139   0.00000  Uiso   1.00
O111   O     0.00230   0.62902   0.43135   0.00000  Uiso   1.00
O112   O    -0.00178   0.62901   0.56748   0.00000  Uiso   1.00
O113   O    -0.00045   0.56884   0.62866   0.00000  Uiso   1.00
O114   O     0.00124   0.56825   0.37052   0.00000  Uiso   1.00
O115   O    -0.06774   0.62933   0.50106   0.00000  Uiso   1.00
O116   O     0.06783   0.62900   0.49841   0.00000  Uiso   1.00
Zr117  Zr   -0.00005   0.58840   0.49953   0.00000  Uiso   1.00
O118   O    -0.04538   0.54574   0.54496   0.00000  Uiso   1.00
O119   O     0.04520   0.54552   0.45428   0.00000  Uiso   1.00
X120   C     0.11421   0.61492   0.49751   0.00000  Uiso   1.00
X121   C    -0.11418   0.61543   0.50208   0.00000  Uiso   1.00
X122   C     0.00293   0.61451   0.38501   0.00000  Uiso   1.00
X123   C    -0.00083   0.61517   0.61396   0.00000  Uiso   1.00
H124   H    -0.06623   0.56693   0.43339   0.00000  Uiso   1.00
O125   O    -0.04513   0.54547   0.45459   0.00000  Uiso   1.00
H126   H     0.06608   0.56650   0.56572   0.00000  Uiso   1.00
O127   O     0.04470   0.54519   0.54466   0.00000  Uiso   1.00
O128   O    -0.12933   0.43278   0.49828   0.00000  Uiso   1.00
O129   O     0.12826   0.43223   0.50230   0.00000  Uiso   1.00
O130   O    -0.06862   0.49902   0.37079   0.00000  Uiso   1.00
O131   O    -0.06879   0.50331   0.62854   0.00000  Uiso   1.00
O132   O     0.06799   0.49882   0.62871   0.00000  Uiso   1.00
O133   O     0.06813   0.50137   0.37089   0.00000  Uiso   1.00
O134   O    -0.00329   0.37159   0.43094   0.00000  Uiso   1.00
O135   O     0.00151   0.37136   0.56777   0.00000  Uiso   1.00
O136   O    -0.00128   0.43258   0.37087   0.00000  Uiso   1.00
O137   O     0.00111   0.43210   0.62869   0.00000  Uiso   1.00
O138   O    -0.12930   0.49992   0.43173   0.00000  Uiso   1.00
O139   O     0.12871   0.50060   0.43190   0.00000  Uiso   1.00
O140   O     0.12860   0.49941   0.56773   0.00000  Uiso   1.00
O141   O    -0.12912   0.50199   0.56756   0.00000  Uiso   1.00
O142   O    -0.06924   0.37155   0.49850   0.00000  Uiso   1.00
O143   O     0.06762   0.37137   0.50018   0.00000  Uiso   1.00
Zr144  Zr   -0.08844   0.50065   0.49967   0.00000  Uiso   1.00
Zr145  Zr    0.08784   0.50024   0.49977   0.00000  Uiso   1.00
Zr146  Zr   -0.00025   0.50038   0.41139   0.00000  Uiso   1.00
Zr147  Zr   -0.00034   0.50041   0.58816   0.00000  Uiso   1.00
Zr148  Zr   -0.00073   0.41193   0.49954   0.00000  Uiso   1.00
O149   O     0.04461   0.45502   0.54489   0.00000  Uiso   1.00
O150   O    -0.04576   0.45523   0.45430   0.00000  Uiso   1.00
X151   C    -0.11558   0.38624   0.49793   0.00000  Uiso   1.00
X152   C     0.11397   0.38590   0.50212   0.00000  Uiso   1.00
X153   C    -0.11497   0.49951   0.38537   0.00000  Uiso   1.00
X154   C    -0.11516   0.50421   0.61394   0.00000  Uiso   1.00
X155   C     0.11431   0.49915   0.61410   0.00000  Uiso   1.00
X156   C     0.11445   0.50075   0.38553   0.00000  Uiso   1.00
X157   C    -0.00347   0.38621   0.38453   0.00000  Uiso   1.00
X158   C     0.00267   0.38576   0.61415   0.00000  Uiso   1.00
H159   H     0.06558   0.43382   0.43362   0.00000  Uiso   1.00
O160   O     0.04443   0.45526   0.45480   0.00000  Uiso   1.00
H161   H    -0.06668   0.43438   0.56613   0.00000  Uiso   1.00
O162   O    -0.04539   0.45549   0.54476   0.00000  Uiso   1.00
O163   O     0.62842   0.06807   0.49619   0.00000  Uiso   1.00
O164   O     0.37083   0.06631   0.50189   0.00000  Uiso   1.00
O165   O     0.50133   0.12831   0.43097   0.00000  Uiso   1.00
O166   O     0.49682   0.12850   0.56660   0.00000  Uiso   1.00
O167   O     0.49979   0.06885   0.62799   0.00000  Uiso   1.00
O168   O     0.50138   0.06744   0.37032   0.00000  Uiso   1.00
O169   O     0.43027   0.12780   0.49933   0.00000  Uiso   1.00
O170   O     0.56743   0.12870   0.49781   0.00000  Uiso   1.00
Zr171  Zr    0.49925   0.08776   0.49899   0.00000  Uiso   1.00
O172   O     0.45462   0.04467   0.54475   0.00000  Uiso   1.00
O173   O     0.54484   0.04488   0.45390   0.00000  Uiso   1.00
X174   C     0.61383   0.11437   0.49569   0.00000  Uiso   1.00
X175   C     0.38395   0.11284   0.50063   0.00000  Uiso   1.00
X176   C     0.50275   0.11378   0.38471   0.00000  Uiso   1.00
X177   C     0.49826   0.11513   0.61309   0.00000  Uiso   1.00
H178   H     0.43333   0.06526   0.43307   0.00000  Uiso   1.00
O179   O     0.45455   0.04407   0.45441   0.00000  Uiso   1.00
H180   H     0.56610   0.06650   0.56480   0.00000  Uiso   1.00
O181   O     0.54480   0.04492   0.54392   0.00000  Uiso   1.00
O182   O     0.37149  -0.06953   0.49900   0.00000  Uiso   1.00
O183   O     0.62889  -0.06837   0.50080   0.00000  Uiso   1.00
O184   O     0.43138  -0.00249   0.37062   0.00000  Uiso   1.00
O185   O     0.43237   0.00218   0.62888   0.00000  Uiso   1.00
O186   O     0.56895  -0.00053   0.62816   0.00000  Uiso   1.00
O187   O     0.56789   0.00077   0.37034   0.00000  Uiso   1.00
O188   O     0.49712  -0.12917   0.43103   0.00000  Uiso   1.00
O189   O     0.50320  -0.12903   0.56789   0.00000  Uiso   1.00
O190   O     0.49899  -0.06839   0.37074   0.00000  Uiso   1.00
O191   O     0.50264  -0.06817   0.62867   0.00000  Uiso   1.00
O192   O     0.37083  -0.00174   0.43177   0.00000  Uiso   1.00
O193   O     0.62871   0.00002   0.43112   0.00000  Uiso   1.00
O194   O     0.62922  -0.00064   0.56690   0.00000  Uiso   1.00
O195   O     0.37166   0.00022   0.56821   0.00000  Uiso   1.00
O196   O     0.43262  -0.12990   0.49958   0.00000  Uiso   1.00
O197   O     0.56824  -0.12928   0.49951   0.00000  Uiso   1.00
Zr198  Zr    0.41185  -0.00117   0.49982   0.00000  Uiso   1.00
Zr199  Zr    0.58813  -0.00021   0.49912   0.00000  Uiso   1.00
Zr200  Zr    0.49971  -0.00056   0.41114   0.00000  Uiso   1.00
Zr201  Zr    0.50044   0.00004   0.58793   0.00000  Uiso   1.00
Zr202  Zr    0.50026  -0.08872   0.49957   0.00000  Uiso   1.00
O203   O     0.54554  -0.04541   0.54473   0.00000  Uiso   1.00
O204   O     0.45470  -0.04613   0.45428   0.00000  Uiso   1.00
X205   C     0.38623  -0.11579   0.49956   0.00000  Uiso   1.00
X206   C     0.61450  -0.11474   0.50000   0.00000  Uiso   1.00
X207   C     0.38510  -0.00221   0.38533   0.00000  Uiso   1.00
X208   C     0.38593   0.00262   0.61456   0.00000  Uiso   1.00
X209   C     0.61522  -0.00029   0.61336   0.00000  Uiso   1.00
X210   C     0.61425   0.00027   0.38482   0.00000  Uiso   1.00
X211   C     0.49677  -0.11470   0.38457   0.00000  Uiso   1.00
X212   C     0.50436  -0.11456   0.61423   0.00000  Uiso   1.00
H213   H     0.56586  -0.06672   0.43305   0.00000  Uiso   1.00
O214   O     0.54482  -0.04536   0.45440   0.00000  Uiso   1.00
H215   H     0.43462  -0.06668   0.56654   0.00000  Uiso   1.00
O216   O     0.45557  -0.04549   0.54493   0.00000  Uiso   1.00
X217   C     0.15386   0.15419  -0.00363   0.00000  Uiso   1.00
C218   C     0.20463   0.14163   0.00154   0.00000  Uiso   1.00
C219   C     0.24210   0.17831   0.00108   0.00000  Uiso   1.00
C220   C     0.23045   0.22916  -0.00464   0.00000  Uiso   1.00
C221   C     0.17988   0.24189  -0.01028   0.00000  Uiso   1.00
C222   C     0.14186   0.20533  -0.00995   0.00000  Uiso   1.00
C223   C     0.27057   0.26879  -0.00390   0.00000  Uiso   1.00
C224   C     0.31259   0.26413   0.02718   0.00000  Uiso   1.00
C225   C     0.34942   0.30147   0.02976   0.00000  Uiso   1.00
X226   C     0.34578   0.34475  -0.00062   0.00000  Uiso   1.00
C227   C     0.30366   0.34948  -0.03148   0.00000  Uiso   1.00
C228   C     0.26678   0.31225  -0.03315   0.00000  Uiso   1.00
O229   O     0.09219   0.21986  -0.01603   0.00000  Uiso   1.00
O230   O     0.38745   0.29498   0.06479   0.00000  Uiso   1.00
H231   H     0.21565   0.10313   0.00626   0.00000  Uiso   1.00
H232   H     0.28048   0.16657   0.00480   0.00000  Uiso   1.00
H233   H     0.16954   0.28066  -0.01407   0.00000  Uiso   1.00
H234   H     0.31613   0.23209   0.05140   0.00000  Uiso   1.00
H235   H     0.29961   0.38190  -0.05515   0.00000  Uiso   1.00
H236   H     0.23555   0.31731  -0.05812   0.00000  Uiso   1.00
H237   H     0.08745   0.25704  -0.02054   0.00000  Uiso   1.00
H238   H     0.40663   0.32621   0.07329   0.00000  Uiso   1.00
X239   C     0.15391   0.65501   0.49672   0.00000  Uiso   1.00
C240   C     0.20480   0.64193   0.49852   0.00000  Uiso   1.00
C241   C     0.24249   0.67836   0.49847   0.00000  Uiso   1.00
C242   C     0.23094   0.72948   0.49642   0.00000  Uiso   1.00
C243   C     0.18029   0.74282   0.49438   0.00000  Uiso   1.00
C244   C     0.14203   0.70654   0.49454   0.00000  Uiso   1.00
C245   C     0.27128   0.76880   0.49713   0.00000  Uiso   1.00
C246   C     0.31446   0.76277   0.52632   0.00000  Uiso   1.00
C247   C     0.35147   0.79996   0.52902   0.00000  Uiso   1.00
X248   C     0.34684   0.84437   0.50042   0.00000  Uiso   1.00
C249   C     0.30357   0.85033   0.47138   0.00000  Uiso   1.00
C250   C     0.26650   0.81333   0.46978   0.00000  Uiso   1.00
O251   O     0.09226   0.72180   0.49259   0.00000  Uiso   1.00
O252   O     0.39068   0.79207   0.56243   0.00000  Uiso   1.00
H253   H     0.21577   0.60316   0.50011   0.00000  Uiso   1.00
H254   H     0.28093   0.66628   0.49950   0.00000  Uiso   1.00
H255   H     0.17014   0.78182   0.49359   0.00000  Uiso   1.00
H256   H     0.31877   0.72974   0.54905   0.00000  Uiso   1.00
H257   H     0.29868   0.88361   0.44910   0.00000  Uiso   1.00
H258   H     0.23429   0.81941   0.44632   0.00000  Uiso   1.00
H259   H     0.08764   0.75923   0.49104   0.00000  Uiso   1.00
H260   H     0.40974   0.82304   0.57208   0.00000  Uiso   1.00
X261   C     0.84524   0.84614  -0.00422   0.00000  Uiso   1.00
C262   C     0.84990   0.80367   0.02603   0.00000  Uiso   1.00
C263   C     0.81281   0.76669   0.02694   0.00000  Uiso   1.00
C264   C     0.76998   0.76986  -0.00351   0.00000  Uiso   1.00
C265   C     0.76583   0.81225  -0.03450   0.00000  Uiso   1.00
C266   C     0.80255   0.85026  -0.03468   0.00000  Uiso   1.00
C267   C     0.73016   0.72942  -0.00276   0.00000  Uiso   1.00
C268   C     0.74165   0.68008   0.01122   0.00000  Uiso   1.00
C269   C     0.70486   0.64279   0.01498   0.00000  Uiso   1.00
X270   C     0.65470   0.65282   0.00080   0.00000  Uiso   1.00
C271   C     0.64333   0.70205  -0.01369   0.00000  Uiso   1.00
C272   C     0.68001   0.73960  -0.01486   0.00000  Uiso   1.00
O273   O     0.79755   0.89150  -0.06610   0.00000  Uiso   1.00
O274   O     0.71976   0.59713   0.03509   0.00000  Uiso   1.00
H275   H     0.88199   0.79961   0.05015   0.00000  Uiso   1.00
H276   H     0.81770   0.73599   0.05251   0.00000  Uiso   1.00
H277   H     0.73440   0.81581  -0.05942   0.00000  Uiso   1.00
H278   H     0.77949   0.66994   0.02050   0.00000  Uiso   1.00
H279   H     0.60567   0.71180  -0.02434   0.00000  Uiso   1.00
H280   H     0.66851   0.77687  -0.02486   0.00000  Uiso   1.00
H281   H     0.76603   0.89112  -0.08687   0.00000  Uiso   1.00
H282   H     0.69295   0.57967   0.05492   0.00000  Uiso   1.00
X283   C     0.84402   0.34673   0.49742   0.00000  Uiso   1.00
C284   C     0.85646   0.29606   0.49089   0.00000  Uiso   1.00
C285   C     0.81972   0.25858   0.49035   0.00000  Uiso   1.00
C286   C     0.76887   0.27006   0.49648   0.00000  Uiso   1.00
C287   C     0.75622   0.32057   0.50306   0.00000  Uiso   1.00
C288   C     0.79283   0.35861   0.50363   0.00000  Uiso   1.00
C289   C     0.72921   0.22983   0.49581   0.00000  Uiso   1.00
C290   C     0.73334   0.18795   0.46439   0.00000  Uiso   1.00
C291   C     0.69606   0.15088   0.46245   0.00000  Uiso   1.00
X292   C     0.65341   0.15414   0.49377   0.00000  Uiso   1.00
C293   C     0.64929   0.19612   0.52492   0.00000  Uiso   1.00
C294   C     0.68634   0.23321   0.52595   0.00000  Uiso   1.00
O295   O     0.77832   0.40815   0.51072   0.00000  Uiso   1.00
O296   O     0.70205   0.11288   0.42730   0.00000  Uiso   1.00
H297   H     0.89496   0.28511   0.48607   0.00000  Uiso   1.00
H298   H     0.83143   0.22029   0.48579   0.00000  Uiso   1.00
H299   H     0.71745   0.33085   0.50709   0.00000  Uiso   1.00
H300   H     0.76496   0.18464   0.43960   0.00000  Uiso   1.00
H301   H     0.61760   0.19983   0.54953   0.00000  Uiso   1.00
H302   H     0.68171   0.26421   0.55128   0.00000  Uiso   1.00
H303   H     0.74111   0.41283   0.51500   0.00000  Uiso   1.00
H304   H     0.67088   0.09313   0.41995   0.00000  Uiso   1.00
X305   C     0.84621   0.15488   0.00385   0.00000  Uiso   1.00
C306   C     0.79530   0.14198   0.00149   0.00000  Uiso   1.00
C307   C     0.75772   0.17854   0.00135   0.00000  Uiso   1.00
C308   C     0.76937   0.22963   0.00371   0.00000  Uiso   1.00
C309   C     0.82008   0.24278   0.00649   0.00000  Uiso   1.00
C310   C     0.85825   0.20634   0.00658   0.00000  Uiso   1.00
C311   C     0.72905   0.26904   0.00256   0.00000  Uiso   1.00
C312   C     0.68599   0.26291  -0.02682   0.00000  Uiso   1.00
C313   C     0.64887   0.29999  -0.02971   0.00000  Uiso   1.00
X314   C     0.65322   0.34445  -0.00115   0.00000  Uiso   1.00
C315   C     0.69642   0.35058   0.02798   0.00000  Uiso   1.00
C316   C     0.73361   0.31368   0.02981   0.00000  Uiso   1.00
O317   O     0.90808   0.22132   0.00919   0.00000  Uiso   1.00
O318   O     0.60979   0.29191  -0.06324   0.00000  Uiso   1.00
H319   H     0.78421   0.10326  -0.00046   0.00000  Uiso   1.00
H320   H     0.71926   0.16655  -0.00012   0.00000  Uiso   1.00
H321   H     0.83036   0.28174   0.00760   0.00000  Uiso   1.00
H322   H     0.68184   0.22984  -0.04952   0.00000  Uiso   1.00
H323   H     0.70114   0.38389   0.05023   0.00000  Uiso   1.00
H324   H     0.76569   0.31990   0.05340   0.00000  Uiso   1.00
H325   H     0.91285   0.25872   0.01103   0.00000  Uiso   1.00
H326   H     0.59059   0.32280  -0.07292   0.00000  Uiso   1.00
X327   C     0.84631   0.65562   0.50334   0.00000  Uiso   1.00
C328   C     0.79557   0.64305   0.49784   0.00000  Uiso   1.00
C329   C     0.75811   0.67969   0.49791   0.00000  Uiso   1.00
C330   C     0.76971   0.73053   0.50359   0.00000  Uiso   1.00
C331   C     0.82024   0.74331   0.50958   0.00000  Uiso   1.00
C332   C     0.85827   0.70676   0.50961   0.00000  Uiso   1.00
C333   C     0.72956   0.77008   0.50258   0.00000  Uiso   1.00
C334   C     0.68781   0.76544   0.47112   0.00000  Uiso   1.00
C335   C     0.65084   0.80264   0.46848   0.00000  Uiso   1.00
X336   C     0.65409   0.84571   0.49918   0.00000  Uiso   1.00
C337   C     0.69598   0.85046   0.53034   0.00000  Uiso   1.00
C338   C     0.73300   0.81339   0.53207   0.00000  Uiso   1.00
O339   O     0.90791   0.72128   0.51602   0.00000  Uiso   1.00
O340   O     0.61304   0.79618   0.43319   0.00000  Uiso   1.00
H341   H     0.78456   0.60455   0.49315   0.00000  Uiso   1.00
H342   H     0.71976   0.66793   0.49395   0.00000  Uiso   1.00
H343   H     0.83053   0.78210   0.51337   0.00000  Uiso   1.00
H344   H     0.68458   0.73350   0.44672   0.00000  Uiso   1.00
H345   H     0.69973   0.88275   0.55424   0.00000  Uiso   1.00
H346   H     0.76402   0.81840   0.55730   0.00000  Uiso   1.00
H347   H     0.91262   0.75848   0.52041   0.00000  Uiso   1.00
H348   H     0.59366   0.82733   0.42482   0.00000  Uiso   1.00
X349   C     0.15386   0.34643   0.50323   0.00000  Uiso   1.00
C350   C     0.14521   0.29966   0.48123   0.00000  Uiso   1.00
C351   C     0.18219   0.26258   0.48064   0.00000  Uiso   1.00
C352   C     0.22921   0.27037   0.50281   0.00000  Uiso   1.00
C353   C     0.23779   0.31708   0.52528   0.00000  Uiso   1.00
C354   C     0.20092   0.35488   0.52554   0.00000  Uiso   1.00
C355   C     0.26868   0.22990   0.50267   0.00000  Uiso   1.00
C356   C     0.25527   0.17928   0.50355   0.00000  Uiso   1.00
C357   C     0.29083   0.14081   0.50081   0.00000  Uiso   1.00
X358   C     0.34299   0.15206   0.50018   0.00000  Uiso   1.00
C359   C     0.35615   0.20306   0.50021   0.00000  Uiso   1.00
C360   C     0.31993   0.24105   0.50096   0.00000  Uiso   1.00
O361   O     0.21042   0.40040   0.54904   0.00000  Uiso   1.00
O362   O     0.27167   0.09246   0.49860   0.00000  Uiso   1.00
H363   H     0.10985   0.29195   0.46340   0.00000  Uiso   1.00
H364   H     0.17391   0.22791   0.46187   0.00000  Uiso   1.00
H365   H     0.27298   0.32414   0.54362   0.00000  Uiso   1.00
H366   H     0.21639   0.16888   0.50574   0.00000  Uiso   1.00
H367   H     0.39495   0.21400   0.49941   0.00000  Uiso   1.00
H368   H     0.33238   0.27934   0.49958   0.00000  Uiso   1.00
H369   H     0.24488   0.40287   0.56426   0.00000  Uiso   1.00
H370   H     0.29058   0.06890   0.47638   0.00000  Uiso   1.00
X371   C     0.15314   0.84504   0.00281   0.00000  Uiso   1.00
C372   C     0.15126   0.80514  -0.03100   0.00000  Uiso   1.00
C373   C     0.18857   0.76832  -0.03167   0.00000  Uiso   1.00
C374   C     0.22873   0.76921   0.00236   0.00000  Uiso   1.00
C375   C     0.23002   0.80899   0.03679   0.00000  Uiso   1.00
C376   C     0.19307   0.84672   0.03698   0.00000  Uiso   1.00
C377   C     0.26871   0.72903   0.00194   0.00000  Uiso   1.00
C378   C     0.25834   0.68050  -0.01527   0.00000  Uiso   1.00
C379   C     0.29543   0.64346  -0.01836   0.00000  Uiso   1.00
X380   C     0.34454   0.65290  -0.00055   0.00000  Uiso   1.00
C381   C     0.35480   0.70135   0.01698   0.00000  Uiso   1.00
C382   C     0.31791   0.73870   0.01776   0.00000  Uiso   1.00
O383   O     0.19488   0.88510   0.07210   0.00000  Uiso   1.00
O384   O     0.28208   0.59878  -0.04152   0.00000  Uiso   1.00
H385   H     0.12127   0.80303  -0.05791   0.00000  Uiso   1.00
H386   H     0.18606   0.73957  -0.05975   0.00000  Uiso   1.00
H387   H     0.25930   0.81056   0.06440   0.00000  Uiso   1.00
H388   H     0.22120   0.67091  -0.02757   0.00000  Uiso   1.00
H389   H     0.39169   0.71057   0.03041   0.00000  Uiso   1.00
H390   H     0.32846   0.77546   0.03039   0.00000  Uiso   1.00
H391   H     0.22439   0.88290   0.09554   0.00000  Uiso   1.00
H392   H     0.31040   0.58179  -0.05958   0.00000  Uiso   1.00
X393   C    -0.00191   0.15192   0.15577   0.00000  Uiso   1.00
C394   C    -0.02397   0.19859   0.14671   0.00000  Uiso   1.00
C395   C    -0.02501   0.23580   0.18354   0.00000  Uiso   1.00
C396   C    -0.00329   0.22819   0.23079   0.00000  Uiso   1.00
C397   C     0.01907   0.18152   0.23984   0.00000  Uiso   1.00
C398   C     0.01979   0.14361   0.20313   0.00000  Uiso   1.00
C399   C    -0.00359   0.26882   0.27004   0.00000  Uiso   1.00
C400   C    -0.00215   0.31942   0.25646   0.00000  Uiso   1.00
C401   C    -0.00448   0.35790   0.29203   0.00000  Uiso   1.00
X402   C    -0.00532   0.34671   0.34406   0.00000  Uiso   1.00
C403   C    -0.00616   0.29581   0.35743   0.00000  Uiso   1.00
C404   C    -0.00578   0.25777   0.32130   0.00000  Uiso   1.00
O405   O     0.04331   0.09818   0.21305   0.00000  Uiso   1.00
O406   O    -0.00619   0.40645   0.27346   0.00000  Uiso   1.00
H407   H    -0.04129   0.20618   0.11108   0.00000  Uiso   1.00
H408   H    -0.04365   0.27047   0.17494   0.00000  Uiso   1.00
H409   H     0.03706   0.17462   0.27522   0.00000  Uiso   1.00
H410   H     0.00023   0.32974   0.21757   0.00000  Uiso   1.00
H411   H    -0.00722   0.28503   0.39627   0.00000  Uiso   1.00
H412   H    -0.00770   0.21952   0.33382   0.00000  Uiso   1.00
H413   H     0.05812   0.09585   0.24769   0.00000  Uiso   1.00
H414   H    -0.03120   0.42840   0.29098   0.00000  Uiso   1.00
X415   C     0.49483   0.34573   0.84529   0.00000  Uiso   1.00
C416   C     0.51832   0.35371   0.79915   0.00000  Uiso   1.00
C417   C     0.51883   0.31666   0.76217   0.00000  Uiso   1.00
C418   C     0.49506   0.27035   0.76947   0.00000  Uiso   1.00
C419   C     0.47102   0.26253   0.81552   0.00000  Uiso   1.00
C420   C     0.47091   0.29943   0.85325   0.00000  Uiso   1.00
C421   C     0.49536   0.23071   0.72926   0.00000  Uiso   1.00
C422   C     0.49662   0.24379   0.67852   0.00000  Uiso   1.00
C423   C     0.49979   0.20777   0.64056   0.00000  Uiso   1.00
X424   C     0.49851   0.15588   0.65227   0.00000  Uiso   1.00
C425   C     0.49631   0.14300   0.70324   0.00000  Uiso   1.00
C426   C     0.49528   0.17952   0.74088   0.00000  Uiso   1.00
O427   O     0.44599   0.29076   0.89818   0.00000  Uiso   1.00
O428   O     0.50507   0.22572   0.59202   0.00000  Uiso   1.00
H429   H     0.53742   0.38850   0.79195   0.00000  Uiso   1.00
H430   H     0.53882   0.32428   0.72804   0.00000  Uiso   1.00
H431   H     0.45143   0.22795   0.82214   0.00000  Uiso   1.00
H432   H     0.49605   0.28262   0.66772   0.00000  Uiso   1.00
H433   H     0.49562   0.10426   0.71439   0.00000  Uiso   1.00
H434   H     0.49506   0.16733   0.77928   0.00000  Uiso   1.00
H435   H     0.42969   0.25678   0.90033   0.00000  Uiso   1.00
H436   H     0.53058   0.20693   0.57175   0.00000  Uiso   1.00
X437   C    -0.00457   0.84679   0.84515   0.00000  Uiso   1.00
C438   C     0.02661   0.85061   0.80331   0.00000  Uiso   1.00
C439   C     0.02739   0.81330   0.76660   0.00000  Uiso   1.00
C440   C    -0.00411   0.77123   0.76947   0.00000  Uiso   1.00
C441   C    -0.03600   0.76794   0.81122   0.00000  Uiso   1.00
C442   C    -0.03606   0.80483   0.84899   0.00000  Uiso   1.00
C443   C    -0.00348   0.73125   0.72936   0.00000  Uiso   1.00
C444   C     0.01122   0.74236   0.68019   0.00000  Uiso   1.00
C445   C     0.01505   0.70535   0.64323   0.00000  Uiso   1.00
X446   C     0.00012   0.65545   0.65337   0.00000  Uiso   1.00
C447   C    -0.01515   0.64447   0.70242   0.00000  Uiso   1.00
C448   C    -0.01634   0.68134   0.73973   0.00000  Uiso   1.00
O449   O    -0.06823   0.80071   0.88977   0.00000  Uiso   1.00
O450   O     0.03616   0.71960   0.59787   0.00000  Uiso   1.00
H451   H     0.05157   0.88209   0.79962   0.00000  Uiso   1.00
H452   H     0.05367   0.81737   0.73638   0.00000  Uiso   1.00
H453   H    -0.06166   0.73707   0.81445   0.00000  Uiso   1.00
H454   H     0.02110   0.78004   0.66997   0.00000  Uiso   1.00
H455   H    -0.02638   0.60698   0.71219   0.00000  Uiso   1.00
H456   H    -0.02693   0.67021   0.77695   0.00000  Uiso   1.00
H457   H    -0.08967   0.76965   0.88922   0.00000  Uiso   1.00
H458   H     0.05632   0.69241   0.58141   0.00000  Uiso   1.00
X459   C     0.49781   0.65125   0.15575   0.00000  Uiso   1.00
C460   C     0.47406   0.69722   0.14748   0.00000  Uiso   1.00
C461   C     0.47308   0.73433   0.18440   0.00000  Uiso   1.00
C462   C     0.49664   0.72736   0.23087   0.00000  Uiso   1.00
C463   C     0.52068   0.68138   0.23909   0.00000  Uiso   1.00
C464   C     0.52128   0.64353   0.20233   0.00000  Uiso   1.00
C465   C     0.49646   0.76795   0.27014   0.00000  Uiso   1.00
C466   C     0.49556   0.81856   0.25657   0.00000  Uiso   1.00
C467   C     0.49315   0.85694   0.29222   0.00000  Uiso   1.00
X468   C     0.49476   0.84573   0.34423   0.00000  Uiso   1.00
C469   C     0.49630   0.79486   0.35759   0.00000  Uiso   1.00
C470   C     0.49665   0.75685   0.32145   0.00000  Uiso   1.00
O471   O     0.54642   0.59880   0.21136   0.00000  Uiso   1.00
O472   O     0.48865   0.90536   0.27375   0.00000  Uiso   1.00
H473   H     0.45536   0.70428   0.11244   0.00000  Uiso   1.00
H474   H     0.45308   0.76839   0.17648   0.00000  Uiso   1.00
H475   H     0.54009   0.67500   0.27383   0.00000  Uiso   1.00
H476   H     0.49605   0.82896   0.21763   0.00000  Uiso   1.00
H477   H     0.49723   0.78409   0.39644   0.00000  Uiso   1.00
H478   H     0.49660   0.71857   0.33402   0.00000  Uiso   1.00
H479   H     0.56243   0.59686   0.24549   0.00000  Uiso   1.00
H480   H     0.46425   0.92663   0.29288   0.00000  Uiso   1.00
X481   C     0.00124   0.84351   0.15275   0.00000  Uiso   1.00
C482   C     0.00930   0.85587   0.20319   0.00000  Uiso   1.00
C483   C     0.00961   0.81923   0.24064   0.00000  Uiso   1.00
C484   C     0.00170   0.76864   0.22931   0.00000  Uiso   1.00
C485   C    -0.00653   0.75605   0.17905   0.00000  Uiso   1.00
C486   C    -0.00689   0.79260   0.14102   0.00000  Uiso   1.00
C487   C     0.00238   0.72917   0.26951   0.00000  Uiso   1.00
C488   C     0.03550   0.73238   0.31011   0.00000  Uiso   1.00
C489   C     0.03747   0.69523   0.34719   0.00000  Uiso   1.00
X490   C     0.00451   0.65386   0.34528   0.00000  Uiso   1.00
C491   C    -0.02826   0.65049   0.30449   0.00000  Uiso   1.00
C492   C    -0.02936   0.68741   0.26733   0.00000  Uiso   1.00
O493   O    -0.01574   0.77836   0.09169   0.00000  Uiso   1.00
O494   O     0.07437   0.69978   0.38365   0.00000  Uiso   1.00
H495   H     0.01556   0.89422   0.21397   0.00000  Uiso   1.00
H496   H     0.01544   0.83082   0.27881   0.00000  Uiso   1.00
H497   H    -0.01202   0.71740   0.16898   0.00000  Uiso   1.00
H498   H     0.06157   0.76306   0.31230   0.00000  Uiso   1.00
H499   H    -0.05387   0.61944   0.30177   0.00000  Uiso   1.00
H500   H    -0.05587   0.68356   0.23721   0.00000  Uiso   1.00
H501   H    -0.02147   0.74132   0.08716   0.00000  Uiso   1.00
H502   H     0.08078   0.66843   0.40345   0.00000  Uiso   1.00
X503   C     0.50270   0.65547   0.84691   0.00000  Uiso   1.00
C504   C     0.50397   0.64280   0.79588   0.00000  Uiso   1.00
C505   C     0.50442   0.67954   0.75843   0.00000  Uiso   1.00
C506   C     0.50348   0.73064   0.77027   0.00000  Uiso   1.00
C507   C     0.50231   0.74358   0.82112   0.00000  Uiso   1.00
C508   C     0.50198   0.70695   0.85916   0.00000  Uiso   1.00
C509   C     0.50414   0.77025   0.73001   0.00000  Uiso   1.00
C510   C     0.53198   0.76380   0.68597   0.00000  Uiso   1.00
C511   C     0.53418   0.80093   0.64878   0.00000  Uiso   1.00
X512   C     0.50641   0.84582   0.65404   0.00000  Uiso   1.00
C513   C     0.47885   0.85225   0.69826   0.00000  Uiso   1.00
C514   C     0.47778   0.81532   0.73549   0.00000  Uiso   1.00
O515   O     0.50100   0.72178   0.90910   0.00000  Uiso   1.00
O516   O     0.56627   0.79243   0.60863   0.00000  Uiso   1.00
H517   H     0.50450   0.60409   0.78459   0.00000  Uiso   1.00
H518   H     0.50477   0.66768   0.71990   0.00000  Uiso   1.00
H519   H     0.50247   0.78251   0.83157   0.00000  Uiso   1.00
H520   H     0.55399   0.73039   0.68100   0.00000  Uiso   1.00
H521   H     0.45715   0.88582   0.70374   0.00000  Uiso   1.00
H522   H     0.45534   0.82183   0.76834   0.00000  Uiso   1.00
H523   H     0.50058   0.75920   0.91403   0.00000  Uiso   1.00
H524   H     0.57602   0.82332   0.58950   0.00000  Uiso   1.00
X525   C     0.50248   0.34292   0.15260   0.00000  Uiso   1.00
C526   C     0.50199   0.35567   0.20360   0.00000  Uiso   1.00
C527   C     0.50209   0.31899   0.24100   0.00000  Uiso   1.00
C528   C     0.50248   0.26796   0.22902   0.00000  Uiso   1.00
C529   C     0.50299   0.25490   0.17825   0.00000  Uiso   1.00
C530   C     0.50315   0.29147   0.14026   0.00000  Uiso   1.00
C531   C     0.50293   0.22852   0.26916   0.00000  Uiso   1.00
C532   C     0.53057   0.23514   0.31324   0.00000  Uiso   1.00
C533   C     0.53269   0.19806   0.35036   0.00000  Uiso   1.00
X534   C     0.50490   0.15324   0.34497   0.00000  Uiso   1.00
C535   C     0.47754   0.14665   0.30069   0.00000  Uiso   1.00
C536   C     0.47664   0.18348   0.26345   0.00000  Uiso   1.00
O537   O     0.50422   0.27665   0.09032   0.00000  Uiso   1.00
O538   O     0.56474   0.20649   0.39054   0.00000  Uiso   1.00
H539   H     0.50137   0.39438   0.21490   0.00000  Uiso   1.00
H540   H     0.50116   0.33077   0.27954   0.00000  Uiso   1.00
H541   H     0.50418   0.21596   0.16788   0.00000  Uiso   1.00
H542   H     0.55251   0.26860   0.31823   0.00000  Uiso   1.00
H543   H     0.45591   0.11304   0.29515   0.00000  Uiso   1.00
H544   H     0.45445   0.17697   0.23043   0.00000  Uiso   1.00
H545   H     0.50450   0.23923   0.08537   0.00000  Uiso   1.00
H546   H     0.57471   0.17549   0.40936   0.00000  Uiso   1.00
X547   C     0.00254   0.15607   0.84715   0.00000  Uiso   1.00
C548   C     0.00598   0.14346   0.79622   0.00000  Uiso   1.00
C549   C     0.00613   0.18017   0.75875   0.00000  Uiso   1.00
C550   C     0.00281   0.23121   0.77047   0.00000  Uiso   1.00
C551   C    -0.00056   0.24408   0.82125   0.00000  Uiso   1.00
C552   C    -0.00077   0.20746   0.85931   0.00000  Uiso   1.00
C553   C     0.00320   0.27078   0.73014   0.00000  Uiso   1.00
C554   C     0.03204   0.26501   0.68664   0.00000  Uiso   1.00
C555   C     0.03382   0.30202   0.64932   0.00000  Uiso   1.00
X556   C     0.00476   0.34614   0.65394   0.00000  Uiso   1.00
C557   C    -0.02374   0.35197   0.69763   0.00000  Uiso   1.00
C558   C    -0.02453   0.31511   0.73495   0.00000  Uiso   1.00
O559   O    -0.00443   0.22219   0.90915   0.00000  Uiso   1.00
O560   O     0.06675   0.29425   0.60971   0.00000  Uiso   1.00
H561   H     0.00848   0.10481   0.78501   0.00000  Uiso   1.00
H562   H     0.00814   0.16828   0.72029   0.00000  Uiso   1.00
H563   H    -0.00232   0.28297   0.83169   0.00000  Uiso   1.00
H564   H     0.05511   0.23224   0.68217   0.00000  Uiso   1.00
H565   H    -0.04637   0.38500   0.70262   0.00000  Uiso   1.00
H566   H    -0.04780   0.32110   0.76731   0.00000  Uiso   1.00
H567   H    -0.00669   0.25955   0.91405   0.00000  Uiso   1.00
H568   H     0.07548   0.32520   0.59021   0.00000  Uiso   1.00
X569   C     0.15492  -0.00393   0.15417   0.00000  Uiso   1.00
C570   C     0.14216  -0.00029   0.20507   0.00000  Uiso   1.00
C571   C     0.17883  -0.00017   0.24261   0.00000  Uiso   1.00
C572   C     0.22971  -0.00464   0.23088   0.00000  Uiso   1.00
C573   C     0.24278  -0.00860   0.18032   0.00000  Uiso   1.00
C574   C     0.20635  -0.00765   0.14215   0.00000  Uiso   1.00
C575   C     0.26918  -0.00416   0.27095   0.00000  Uiso   1.00
C576   C     0.26757   0.03081   0.30997   0.00000  Uiso   1.00
C577   C     0.30546   0.03333   0.34631   0.00000  Uiso   1.00
X578   C     0.34533  -0.00154   0.34587   0.00000  Uiso   1.00
C579   C     0.34679  -0.03647   0.30678   0.00000  Uiso   1.00
C580   C     0.30964  -0.03753   0.26975   0.00000  Uiso   1.00
O581   O     0.22136  -0.01001   0.09231   0.00000  Uiso   1.00
O582   O     0.30346   0.07275   0.38027   0.00000  Uiso   1.00
H583   H     0.10352   0.00285   0.21614   0.00000  Uiso   1.00
H584   H     0.16723   0.00283   0.28112   0.00000  Uiso   1.00
H585   H     0.28175  -0.01130   0.17028   0.00000  Uiso   1.00
H586   H     0.23777   0.05797   0.31111   0.00000  Uiso   1.00
H587   H     0.37650  -0.06363   0.30523   0.00000  Uiso   1.00
H588   H     0.31216  -0.06514   0.24048   0.00000  Uiso   1.00
H589   H     0.25872  -0.01264   0.08759   0.00000  Uiso   1.00
H590   H     0.33546   0.07879   0.39918   0.00000  Uiso   1.00
X591   C     0.34435   0.49581   0.84610   0.00000  Uiso   1.00
C592   C     0.35690   0.50123   0.79535   0.00000  Uiso   1.00
C593   C     0.32026   0.50103   0.75785   0.00000  Uiso   1.00
C594   C     0.26938   0.49537   0.76940   0.00000  Uiso   1.00
C595   C     0.25663   0.48952   0.81997   0.00000  Uiso   1.00
C596   C     0.29319   0.48956   0.85804   0.00000  Uiso   1.00
C597   C     0.22981   0.49629   0.72916   0.00000  Uiso   1.00
C598   C     0.23473   0.52726   0.68705   0.00000  Uiso   1.00
C599   C     0.19753   0.52990   0.65004   0.00000  Uiso   1.00
X600   C     0.15410   0.49972   0.65357   0.00000  Uiso   1.00
C601   C     0.14913   0.46897   0.69577   0.00000  Uiso   1.00
C602   C     0.18622   0.46723   0.73281   0.00000  Uiso   1.00
O603   O     0.27865   0.48326   0.90767   0.00000  Uiso   1.00
O604   O     0.20437   0.56479   0.61193   0.00000  Uiso   1.00
H605   H     0.39541   0.50589   0.78433   0.00000  Uiso   1.00
H606   H     0.33206   0.50487   0.71950   0.00000  Uiso   1.00
H607   H     0.21785   0.48576   0.83028   0.00000  Uiso   1.00
H608   H     0.26687   0.55135   0.68357   0.00000  Uiso   1.00
H609   H     0.11660   0.44544   0.69977   0.00000  Uiso   1.00
H610   H     0.18095   0.44233   0.76406   0.00000  Uiso   1.00
H611   H     0.24145   0.47894   0.91238   0.00000  Uiso   1.00
H612   H     0.17328   0.57342   0.59258   0.00000  Uiso   1.00
X613   C     0.84497  -0.00198   0.84563   0.00000  Uiso   1.00
C614   C     0.85789  -0.00423   0.79471   0.00000  Uiso   1.00
C615   C     0.82132  -0.00457   0.75711   0.00000  Uiso   1.00
C616   C     0.77021  -0.00298   0.76878   0.00000  Uiso   1.00
C617   C     0.75701  -0.00092   0.81949   0.00000  Uiso   1.00
C618   C     0.79345  -0.00017   0.85764   0.00000  Uiso   1.00
C619   C     0.73084  -0.00248   0.72845   0.00000  Uiso   1.00
C620   C     0.73802   0.02436   0.68396   0.00000  Uiso   1.00
C621   C     0.70082   0.02713   0.64694   0.00000  Uiso   1.00
X622   C     0.65522   0.00064   0.65276   0.00000  Uiso   1.00
C623   C     0.64818  -0.02614   0.69735   0.00000  Uiso   1.00
C624   C     0.68514  -0.02756   0.73452   0.00000  Uiso   1.00
O625   O     0.77840   0.00297   0.90743   0.00000  Uiso   1.00
O626   O     0.70997   0.05867   0.60648   0.00000  Uiso   1.00
H627   H     0.89663  -0.00575   0.78364   0.00000  Uiso   1.00
H628   H     0.83323  -0.00668   0.71865   0.00000  Uiso   1.00
H629   H     0.71806   0.00124   0.82964   0.00000  Uiso   1.00
H630   H     0.77203   0.04538   0.67863   0.00000  Uiso   1.00
H631   H     0.61402  -0.04676   0.70329   0.00000  Uiso   1.00
H632   H     0.67812  -0.04910   0.76786   0.00000  Uiso   1.00
H633   H     0.74097   0.00404   0.91217   0.00000  Uiso   1.00
H634   H     0.67921   0.06981   0.58789   0.00000  Uiso   1.00
X635   C     0.65490   0.49453   0.15349   0.00000  Uiso   1.00
C636   C     0.64236   0.50065   0.20417   0.00000  Uiso   1.00
C637   C     0.67903   0.50105   0.24166   0.00000  Uiso   1.00
C638   C     0.72987   0.49507   0.23017   0.00000  Uiso   1.00
C639   C     0.74260   0.48843   0.17970   0.00000  Uiso   1.00
C640   C     0.70604   0.48807   0.14163   0.00000  Uiso   1.00
C641   C     0.76944   0.49631   0.27037   0.00000  Uiso   1.00
C642   C     0.76519   0.52844   0.31167   0.00000  Uiso   1.00
C643   C     0.80247   0.53121   0.34863   0.00000  Uiso   1.00
X644   C     0.84523   0.50000   0.34587   0.00000  Uiso   1.00
C645   C     0.84942   0.46801   0.30453   0.00000  Uiso   1.00
C646   C     0.81235   0.46620   0.26748   0.00000  Uiso   1.00
O647   O     0.72056   0.48113   0.09208   0.00000  Uiso   1.00
O648   O     0.79640   0.56708   0.38594   0.00000  Uiso   1.00
H649   H     0.60386   0.50546   0.21513   0.00000  Uiso   1.00
H650   H     0.66729   0.50555   0.27996   0.00000  Uiso   1.00
H651   H     0.78138   0.48435   0.16948   0.00000  Uiso   1.00
H652   H     0.73350   0.55321   0.31454   0.00000  Uiso   1.00
H653   H     0.88119   0.44345   0.30128   0.00000  Uiso   1.00
H654   H     0.81703   0.44039   0.23689   0.00000  Uiso   1.00
H655   H     0.75775   0.47670   0.08741   0.00000  Uiso   1.00
H656   H     0.82751   0.57494   0.40558   0.00000  Uiso   1.00
X657   C     0.15471   0.00100   0.84678   0.00000  Uiso   1.00
C658   C     0.15105   0.03259   0.80523   0.00000  Uiso   1.00
C659   C     0.18847   0.03365   0.76856   0.00000  Uiso   1.00
C660   C     0.23050   0.00201   0.77113   0.00000  Uiso   1.00
C661   C     0.23362  -0.03022   0.81264   0.00000  Uiso   1.00
C662   C     0.19667  -0.03056   0.85036   0.00000  Uiso   1.00
C663   C     0.27047   0.00257   0.73089   0.00000  Uiso   1.00
C664   C     0.25958   0.01810   0.68189   0.00000  Uiso   1.00
C665   C     0.29654   0.02124   0.64477   0.00000  Uiso   1.00
X666   C     0.34604   0.00489   0.65443   0.00000  Uiso   1.00
C667   C     0.35690  -0.01092   0.70334   0.00000  Uiso   1.00
C668   C     0.32017  -0.01149   0.74086   0.00000  Uiso   1.00
O669   O     0.20064  -0.06323   0.89075   0.00000  Uiso   1.00
O670   O     0.28276   0.04319   0.59970   0.00000  Uiso   1.00
H671   H     0.11952   0.05751   0.80165   0.00000  Uiso   1.00
H672   H     0.18444   0.06018   0.73856   0.00000  Uiso   1.00
H673   H     0.26435  -0.05605   0.81568   0.00000  Uiso   1.00
H674   H     0.22214   0.02906   0.67191   0.00000  Uiso   1.00
H675   H     0.39413  -0.02323   0.71279   0.00000  Uiso   1.00
H676   H     0.33128  -0.02269   0.77790   0.00000  Uiso   1.00
H677   H     0.23168  -0.08470   0.89003   0.00000  Uiso   1.00
H678   H     0.31085   0.06175   0.58293   0.00000  Uiso   1.00
X679   C     0.34483   0.50250   0.15397   0.00000  Uiso   1.00
C680   C     0.35740   0.49767   0.20477   0.00000  Uiso   1.00
C681   C     0.32072   0.49804   0.24225   0.00000  Uiso   1.00
C682   C     0.26982   0.50332   0.23059   0.00000  Uiso   1.00
C683   C     0.25706   0.50855   0.17998   0.00000  Uiso   1.00
C684   C     0.29363   0.50830   0.14194   0.00000  Uiso   1.00
C685   C     0.23019   0.50267   0.27075   0.00000  Uiso   1.00
C686   C     0.23501   0.47202   0.31308   0.00000  Uiso   1.00
C687   C     0.19770   0.46961   0.34999   0.00000  Uiso   1.00
X688   C     0.15427   0.49976   0.34611   0.00000  Uiso   1.00
C689   C     0.14938   0.53017   0.30366   0.00000  Uiso   1.00
C690   C     0.18657   0.53165   0.26673   0.00000  Uiso   1.00
O691   O     0.27902   0.51389   0.09224   0.00000  Uiso   1.00
O692   O     0.20446   0.43501   0.38839   0.00000  Uiso   1.00
H693   H     0.39593   0.49335   0.21583   0.00000  Uiso   1.00
H694   H     0.33249   0.49464   0.28065   0.00000  Uiso   1.00
H695   H     0.21826   0.51197   0.16961   0.00000  Uiso   1.00
H696   H     0.26719   0.44801   0.31683   0.00000  Uiso   1.00
H697   H     0.11685   0.55365   0.29938   0.00000  Uiso   1.00
H698   H     0.18137   0.55631   0.23527   0.00000  Uiso   1.00
H699   H     0.24180   0.51796   0.08748   0.00000  Uiso   1.00
H700   H     0.17331   0.42645   0.40769   0.00000  Uiso   1.00
X701   C     0.84467   0.00326   0.15354   0.00000  Uiso   1.00
C702   C     0.85701  -0.00326   0.20420   0.00000  Uiso   1.00
C703   C     0.82028  -0.00303   0.24161   0.00000  Uiso   1.00
C704   C     0.76956   0.00379   0.23002   0.00000  Uiso   1.00
C705   C     0.75704   0.01082   0.17955   0.00000  Uiso   1.00
C706   C     0.79368   0.01075   0.14159   0.00000  Uiso   1.00
C707   C     0.72986   0.00285   0.27009   0.00000  Uiso   1.00
C708   C     0.73401  -0.02908   0.31155   0.00000  Uiso   1.00
C709   C     0.69669  -0.03165   0.34841   0.00000  Uiso   1.00
X710   C     0.65392  -0.00051   0.34533   0.00000  Uiso   1.00
C711   C     0.64967   0.03117   0.30377   0.00000  Uiso   1.00
C712   C     0.68690   0.03289   0.26689   0.00000  Uiso   1.00
O713   O     0.77941   0.01833   0.09205   0.00000  Uiso   1.00
O714   O     0.70270  -0.06733   0.38593   0.00000  Uiso   1.00
H715   H     0.89540  -0.00888   0.21519   0.00000  Uiso   1.00
H716   H     0.83189  -0.00779   0.27991   0.00000  Uiso   1.00
H717   H     0.71836   0.01552   0.16922   0.00000  Uiso   1.00
H718   H     0.76565  -0.05388   0.31463   0.00000  Uiso   1.00
H719   H     0.61765   0.05546   0.30020   0.00000  Uiso   1.00
H720   H     0.68225   0.05853   0.23614   0.00000  Uiso   1.00
H721   H     0.74233   0.02361   0.08734   0.00000  Uiso   1.00
H722   H     0.67150  -0.07531   0.40539   0.00000  Uiso   1.00
X723   C     0.65374   0.50133   0.84599   0.00000  Uiso   1.00
C724   C     0.64890   0.53173   0.80366   0.00000  Uiso   1.00
C725   C     0.68616   0.53311   0.76683   0.00000  Uiso   1.00
C726   C     0.72925   0.50305   0.77016   0.00000  Uiso   1.00
C727   C     0.73357   0.47197   0.81241   0.00000  Uiso   1.00
C728   C     0.69673   0.47127   0.85020   0.00000  Uiso   1.00
C729   C     0.76916   0.50402   0.72994   0.00000  Uiso   1.00
C730   C     0.75764   0.51712   0.68039   0.00000  Uiso   1.00
C731   C     0.79445   0.52038   0.64311   0.00000  Uiso   1.00
X732   C     0.84468   0.50667   0.65352   0.00000  Uiso   1.00
C733   C     0.85610   0.49338   0.70306   0.00000  Uiso   1.00
C734   C     0.81938   0.49266   0.74051   0.00000  Uiso   1.00
O735   O     0.70189   0.43968   0.89132   0.00000  Uiso   1.00
O736   O     0.77949   0.53933   0.59701   0.00000  Uiso   1.00
H737   H     0.61654   0.55547   0.79954   0.00000  Uiso   1.00
H738   H     0.68119   0.55864   0.73610   0.00000  Uiso   1.00
H739   H     0.76520   0.44731   0.81598   0.00000  Uiso   1.00
H740   H     0.71972   0.52593   0.67006   0.00000  Uiso   1.00
H741   H     0.89379   0.48314   0.71311   0.00000  Uiso   1.00
H742   H     0.83086   0.48345   0.77800   0.00000  Uiso   1.00
H743   H     0.73363   0.41926   0.89101   0.00000  Uiso   1.00
H744   H     0.80618   0.55907   0.57929   0.00000  Uiso   1.00
loop_
_geom_bond_atom_site_label_1
_geom_bond_atom_site_label_2
_geom_bond_distance
_geom_bond_site_symmetry_2
_ccdc_geom_bond_type
O1     Zr37    2.136   .     S
O1     X12     1.306   .     A
O2     Zr36    2.134   .     S
O2     X13     1.305   .     A
O3     Zr9     2.129   .     S
O3     X14     1.303   .     A
O4     Zr9     2.133   .     S
O4     X15     1.305   .     A
O5     Zr39    2.126   .     S
O5     X15     1.302   .     A
O6     Zr38    2.135   .     S
O6     X14     1.306   .     A
O7     Zr9     2.126   .     S
O7     X13     1.302   .     A
O8     Zr9     2.123   .     S
O8     X12     1.302   .     A
Zr9    O10     2.068   .     S
Zr9    O11     2.070   .     S
Zr9    O19     2.064   .     S
Zr9    O17     2.064   .     S
O10    Zr36    2.070   .     S
O10    Zr39    2.073   .     S
O11    Zr37    2.071   .     S
O11    Zr38    2.071   .     S
X12    X217    1.515   .     S
X13    X305    1.515   1_455 S
X14    X547    1.518   1_554 A
X15    X393    1.506   .     S
H16    O17     0.988   .     S
O17    Zr36    2.064   .     S
O17    Zr38    2.067   .     S
H18    O19     0.988   .     S
O19    Zr37    2.064   .     S
O19    Zr39    2.067   .     S
O20    Zr36    2.132   .     S
O20    X43     1.304   .     A
O21    Zr37    2.131   .     S
O21    X44     1.303   .     A
O22    Zr38    2.136   .     S
O22    X45     1.306   .     A
O23    Zr39    2.135   .     S
O23    X46     1.306   .     A
O24    Zr39    2.137   .     S
O24    X47     1.306   .     A
O25    Zr38    2.134   .     S
O25    X48     1.304   .     A
O26    Zr40    2.126   .     S
O26    X49     1.302   .     A
O27    Zr40    2.127   .     S
O27    X50     1.302   .     A
O28    Zr38    2.132   .     S
O28    X49     1.304   .     A
O29    Zr39    2.131   .     S
O29    X50     1.304   .     A
O30    Zr36    2.125   .     S
O30    X45     1.302   .     A
O31    Zr37    2.127   .     S
O31    X48     1.303   .     A
O32    Zr37    2.126   .     S
O32    X47     1.303   .     A
O33    Zr36    2.125   .     S
O33    X46     1.302   .     A
O34    Zr40    2.130   .     S
O34    X43     1.303   .     A
O35    Zr40    2.133   .     S
O35    X44     1.304   .     A
Zr36   O42     2.069   .     S
Zr36   O54     2.066   .     S
Zr37   O41     2.071   .     S
Zr37   O52     2.066   .     S
Zr38   O42     2.072   .     S
Zr38   O52     2.068   .     S
Zr39   O41     2.070   .     S
Zr39   O54     2.067   .     S
Zr40   O41     2.071   .     S
Zr40   O42     2.070   .     S
Zr40   O54     2.065   .     S
Zr40   O52     2.066   .     S
X43    X261    1.503   1_445 S
X44    X371    1.502   1_545 A
X45    X613    1.516   1_454 S
X46    X701    1.515   1_455 A
X47    X569    1.517   .     S
X48    X657    1.502   1_554 S
X49    X437    1.500   1_544 A
X50    X481    1.513   1_545 S
H51    O52     0.988   .     S
H53    O54     0.988   .     S
O55    Zr91    2.128   .     S
O55    X66     1.303   .     A
O56    Zr90    2.127   .     S
O56    X67     1.303   .     A
O57    Zr63    2.129   .     S
O57    X68     1.304   .     A
O58    Zr63    2.133   .     S
O58    X69     1.305   .     A
O59    Zr93    2.126   .     S
O59    X69     1.302   .     A
O60    Zr92    2.135   .     S
O60    X68     1.306   .     A
O61    Zr63    2.137   .     S
O61    X67     1.306   .     A
O62    Zr63    2.136   .     S
O62    X66     1.306   .     A
Zr63   O64     2.071   .     S
Zr63   O65     2.073   .     S
Zr63   O73     2.067   .     S
Zr63   O71     2.067   .     S
O64    Zr90    2.071   .     S
O64    Zr93    2.073   .     S
O65    Zr91    2.071   .     S
O65    Zr92    2.072   .     S
X66    X270    1.516   .     S
X67    X380    1.515   .     S
X68    X503    1.518   1_554 A
X69    X459    1.505   .     S
H70    O71     0.988   .     S
O71    Zr90    2.066   .     S
O71    Zr92    2.064   .     S
H72    O73     0.988   .     S
O73    Zr91    2.065   .     S
O73    Zr93    2.066   .     S
O74    Zr90    2.134   .     S
O74    X97     1.304   .     A
O75    Zr91    2.132   .     S
O75    X98     1.304   .     A
O76    Zr92    2.134   .     S
O76    X99     1.305   .     A
O77    Zr93    2.136   .     S
O77    X100    1.306   .     A
O78    Zr93    2.134   .     S
O78    X101    1.305   .     A
O79    Zr92    2.133   .     S
O79    X102    1.304   .     A
O80    Zr94    2.124   .     S
O80    X103    1.302   .     A
O81    Zr94    2.125   .     S
O81    X104    1.302   .     A
O82    Zr92    2.134   .     S
O82    X103    1.305   .     A
O83    Zr93    2.131   .     S
O83    X104    1.305   .     A
O84    Zr90    2.127   .     S
O84    X99     1.302   .     A
O85    Zr91    2.127   .     S
O85    X102    1.302   .     A
O86    Zr91    2.127   .     S
O86    X101    1.303   .     A
O87    Zr90    2.125   .     S
O87    X100    1.302   .     A
O88    Zr94    2.126   .     S
O88    X97     1.302   .     A
O89    Zr94    2.129   .     S
O89    X98     1.303   .     A
Zr90   O96     2.067   .     S
Zr90   O108    2.064   .     S
Zr91   O95     2.069   .     S
Zr91   O106    2.064   .     S
Zr92   O96     2.073   .     S
Zr92   O106    2.066   .     S
Zr93   O95     2.071   .     S
Zr93   O108    2.064   .     S
Zr94   O95     2.068   .     S
Zr94   O96     2.069   .     S
Zr94   O108    2.063   .     S
Zr94   O106    2.065   .     S
X97    X226    1.504   .     S
X98    X314    1.505   .     S
X99    X591    1.516   1_554 S
X100   X679    1.516   .     S
X101   X635    1.516   .     S
X102   X723    1.502   1_554 A
X103   X415    1.504   1_554 S
X104   X525    1.513   .     S
H105   O106    0.988   .     S
H107   O108    0.989   .     S
O109   Zr145   2.135   .     S
O109   X120    1.305   .     A
O110   Zr144   2.133   .     S
O110   X121    1.305   .     A
O111   Zr117   2.132   .     S
O111   X122    1.304   .     A
O112   Zr117   2.126   .     S
O112   X123    1.302   .     A
O113   Zr147   2.135   .     S
O113   X123    1.305   .     A
O114   Zr146   2.128   .     S
O114   X122    1.302   .     A
O115   Zr117   2.124   .     S
O115   X121    1.302   .     A
O116   Zr117   2.124   .     S
O116   X120    1.302   .     A
Zr117  O118    2.069   .     S
Zr117  O119    2.068   .     S
Zr117  O127    2.064   .     S
Zr117  O125    2.062   .     S
O118   Zr144   2.069   .     S
O118   Zr147   2.071   .     S
O119   Zr145   2.069   .     S
O119   Zr146   2.070   .     S
X120   X239    1.515   .     S
X121   X327    1.514   1_455 A
X122   X490    1.502   .     S
X123   X446    1.513   .     S
H124   O125    0.988   .     S
O125   Zr144   2.065   .     S
O125   Zr146   2.065   .     S
H126   O127    0.988   .     S
O127   Zr145   2.062   .     S
O127   Zr147   2.067   .     S
O128   Zr144   2.128   .     S
O128   X151    1.303   .     A
O129   Zr145   2.125   .     S
O129   X152    1.302   .     A
O130   Zr146   2.135   .     S
O130   X153    1.305   .     A
O131   Zr147   2.135   .     S
O131   X154    1.306   .     A
O132   Zr147   2.134   .     S
O132   X155    1.304   .     A
O133   Zr146   2.134   .     S
O133   X156    1.305   .     A
O134   Zr148   2.138   .     S
O134   X157    1.307   .     A
O135   Zr148   2.132   .     S
O135   X158    1.304   .     A
O136   Zr146   2.121   .     S
O136   X157    1.299   .     A
O137   Zr147   2.133   .     S
O137   X158    1.305   .     A
O138   Zr144   2.129   .     S
O138   X153    1.303   .     A
O139   Zr145   2.127   .     S
O139   X156    1.303   .     A
O140   Zr145   2.128   .     S
O140   X155    1.303   .     A
O141   Zr144   2.125   .     S
O141   X154    1.302   .     A
O142   Zr148   2.136   .     S
O142   X151    1.305   .     A
O143   Zr148   2.134   .     S
O143   X152    1.305   .     A
Zr144  O150    2.070   .     S
Zr144  O162    2.067   .     S
Zr145  O149    2.071   .     S
Zr145  O160    2.068   .     S
Zr146  O150    2.071   .     S
Zr146  O160    2.065   .     S
Zr147  O149    2.072   .     S
Zr147  O162    2.068   .     S
Zr148  O149    2.075   .     S
Zr148  O150    2.071   .     S
Zr148  O162    2.069   .     S
Zr148  O160    2.066   .     S
X151   X283    1.517   1_455 S
X152   X349    1.507   .     S
X153   X644    1.506   1_455 A
X154   X732    1.515   1_455 S
X155   X600    1.505   .     S
X156   X688    1.505   .     S
X157   X402    1.519   .     S
X158   X556    1.509   .     S
H159   O160    0.989   .     S
H161   O162    0.989   .     S
O163   Zr199   2.130   .     S
O163   X174    1.304   .     A
O164   Zr198   2.121   .     S
O164   X175    1.299   .     A
O165   Zr171   2.127   .     S
O165   X176    1.303   .     A
O166   Zr171   2.121   .     S
O166   X177    1.299   .     A
O167   Zr201   2.138   .     S
O167   X177    1.306   .     A
O168   Zr200   2.130   .     S
O168   X176    1.303   .     A
O169   Zr171   2.142   .     S
O169   X175    1.307   .     A
O170   Zr171   2.136   .     S
O170   X174    1.305   .     A
Zr171  O172    2.070   .     S
Zr171  O173    2.071   .     S
Zr171  O181    2.068   .     S
Zr171  O179    2.061   .     S
O172   Zr198   2.071   .     S
O172   Zr201   2.072   .     S
O173   Zr199   2.072   .     S
O173   Zr200   2.068   .     S
X174   X292    1.507   .     S
X175   X358    1.523   .     S
X176   X534    1.505   .     S
X177   X424    1.518   .     S
H178   O179    0.988   .     S
O179   Zr198   2.068   .     S
O179   Zr200   2.063   .     S
H180   O181    0.989   .     S
O181   Zr199   2.066   .     S
O181   Zr201   2.066   .     S
O182   Zr198   2.132   .     S
O182   X205    1.304   .     A
O183   Zr199   2.133   .     S
O183   X206    1.304   .     A
O184   Zr200   2.134   .     S
O184   X207    1.304   .     A
O185   Zr201   2.134   .     S
O185   X208    1.305   .     A
O186   Zr201   2.133   .     S
O186   X209    1.304   .     A
O187   Zr200   2.134   .     S
O187   X210    1.304   .     A
O188   Zr202   2.139   .     S
O188   X211    1.307   .     A
O189   Zr202   2.131   .     S
O189   X212    1.304   .     A
O190   Zr200   2.120   .     S
O190   X211    1.299   .     A
O191   Zr201   2.134   .     S
O191   X212    1.305   .     A
O192   Zr198   2.134   .     S
O192   X207    1.305   .     A
O193   Zr199   2.126   .     S
O193   X210    1.302   .     A
O194   Zr199   2.128   .     S
O194   X209    1.303   .     A
O195   Zr198   2.130   .     S
O195   X208    1.304   .     A
O196   Zr202   2.126   .     S
O196   X205    1.302   .     A
O197   Zr202   2.126   .     S
O197   X206    1.302   .     A
Zr198  O204    2.068   .     S
Zr198  O216    2.064   .     S
Zr199  O203    2.069   .     S
Zr199  O214    2.065   .     S
Zr200  O204    2.074   .     S
Zr200  O214    2.065   .     S
Zr201  O203    2.074   .     S
Zr201  O216    2.069   .     S
Zr202  O203    2.074   .     S
Zr202  O204    2.070   .     S
Zr202  O216    2.067   .     S
Zr202  O214    2.064   .     S
X205   X248    1.505   1_545 S
X206   X336    1.503   1_545 S
X207   X578    1.504   .     S
X208   X666    1.516   .     S
X209   X622    1.508   .     S
X210   X710    1.503   .     S
X211   X468    1.518   1_545 S
X212   X512    1.509   1_545 S
H213   O214    0.988   .     S
H215   O216    0.988   .     S
X217   C218    1.411   .     A
X217   C222    1.421   .     A
C218   C219    1.408   .     A
C218   H231    1.083   .     S
C219   C220    1.409   .     A
C219   H232    1.082   .     S
C220   C221    1.408   .     A
C220   C223    1.514   .     S
C221   C222    1.416   .     A
C221   H233    1.082   .     S
C222   O229    1.399   .     S
C223   C224    1.409   .     A
C223   C228    1.410   .     A
C224   C225    1.410   .     A
C224   H234    1.083   .     S
C225   X226    1.423   .     A
C225   O230    1.399   .     S
X226   C227    1.408   .     A
C227   C228    1.408   .     A
C227   H235    1.083   .     S
C228   H236    1.082   .     S
O229   H237    1.014   .     S
O230   H238    1.010   .     S
X239   C240    1.412   .     A
X239   C244    1.421   .     A
C240   C241    1.408   .     A
C240   H253    1.083   .     S
C241   C242    1.408   .     A
C241   H254    1.082   .     S
C242   C243    1.407   .     A
C242   C245    1.513   .     S
C243   C244    1.416   .     A
C243   H255    1.082   .     S
C244   O251    1.399   .     S
C245   C246    1.409   .     A
C245   C250    1.409   .     A
C246   C247    1.411   .     A
C246   H256    1.083   .     S
C247   X248    1.424   .     A
C247   O252    1.399   .     S
X248   C249    1.408   .     A
X248   X205    1.505   1_565 S
C249   C250    1.407   .     A
C249   H257    1.083   .     S
C250   H258    1.082   .     S
O251   H259    1.014   .     S
O252   H260    1.010   .     S
X261   C262    1.406   .     A
X261   C266    1.413   .     A
X261   X43     1.503   1_665 S
C262   C263    1.407   .     A
C262   H275    1.083   .     S
C263   C264    1.414   .     A
C263   H276    1.081   .     S
C264   C265    1.414   .     A
C264   C267    1.524   .     S
C265   C266    1.419   .     A
C265   H277    1.081   .     S
C266   O273    1.399   .     S
C267   C268    1.411   .     A
C267   C272    1.412   .     A
C268   C269    1.410   .     A
C268   H278    1.081   .     S
C269   X270    1.425   .     A
C269   O274    1.398   .     S
X270   C271    1.411   .     A
C271   C272    1.410   .     A
C271   H279    1.083   .     S
C272   H280    1.081   .     S
O273   H281    1.014   .     S
O274   H282    1.011   .     S
X283   C284    1.412   .     A
X283   C288    1.421   .     A
X283   X151    1.517   1_655 S
C284   C285    1.409   .     A
C284   H297    1.083   .     S
C285   C286    1.409   .     A
C285   H298    1.082   .     S
C286   C287    1.409   .     A
C286   C289    1.517   .     S
C287   C288    1.418   .     A
C287   H299    1.082   .     S
C288   O295    1.399   .     S
C289   C290    1.410   .     A
C289   C294    1.410   .     A
C290   C291    1.413   .     A
C290   H300    1.083   .     S
C291   X292    1.424   .     A
C291   O296    1.399   .     S
X292   C293    1.408   .     A
C293   C294    1.408   .     A
C293   H301    1.082   .     S
C294   H302    1.082   .     S
O295   H303    1.014   .     S
O296   H304    1.010   .     S
X305   C306    1.412   .     A
X305   C310    1.421   .     A
X305   X13     1.515   1_655 S
C306   C307    1.408   .     A
C306   H319    1.083   .     S
C307   C308    1.408   .     A
C307   H320    1.082   .     S
C308   C309    1.409   .     A
C308   C311    1.514   .     S
C309   C310    1.417   .     A
C309   H321    1.082   .     S
C310   O317    1.399   .     S
C311   C312    1.409   .     A
C311   C316    1.410   .     A
C312   C313    1.411   .     A
C312   H322    1.083   .     S
C313   X314    1.424   .     A
C313   O318    1.400   .     S
X314   C315    1.409   .     A
C315   C316    1.408   .     A
C315   H323    1.083   .     S
C316   H324    1.082   .     S
O317   H325    1.014   .     S
O318   H326    1.011   .     S
X327   C328    1.411   .     A
X327   C332    1.420   .     A
X327   X121    1.514   1_655 A
C328   C329    1.407   .     A
C328   H341    1.083   .     S
C329   C330    1.408   .     A
C329   H342    1.082   .     S
C330   C331    1.409   .     A
C330   C333    1.514   .     S
C331   C332    1.416   .     A
C331   H343    1.082   .     S
C332   O339    1.399   .     S
C333   C334    1.409   .     A
C333   C338    1.410   .     A
C334   C335    1.410   .     A
C334   H344    1.083   .     S
C335   X336    1.423   .     A
C335   O340    1.399   .     S
X336   C337    1.408   .     A
X336   X206    1.503   1_565 S
C337   C338    1.407   .     A
C337   H345    1.083   .     S
C338   H346    1.082   .     S
O339   H347    1.014   .     S
O340   H348    1.010   .     S
X349   C350    1.407   .     A
X349   C354    1.417   .     A
C350   C351    1.406   .     A
C350   H363    1.083   .     S
C351   C352    1.411   .     A
C351   H364    1.082   .     S
C352   C353    1.411   .     A
C352   C355    1.518   .     S
C353   C354    1.418   .     A
C353   H365    1.082   .     S
C354   O361    1.399   .     S
C355   C356    1.406   .     A
C355   C360    1.409   .     A
C356   C357    1.409   .     A
C356   H366    1.082   .     S
C357   X358    1.433   .     A
C357   O362    1.398   .     S
X358   C359    1.414   .     A
C359   C360    1.410   .     A
C359   H367    1.083   .     S
C360   H368    1.082   .     S
O361   H369    1.014   .     S
O362   H370    1.007   .     S
X371   C372    1.405   .     A
X371   C376    1.412   .     A
X371   X44     1.502   1_565 A
C372   C373    1.408   .     A
C372   H385    1.083   .     S
C373   C374    1.414   .     A
C373   H386    1.081   .     S
C374   C375    1.413   .     A
C374   C377    1.522   .     S
C375   C376    1.418   .     A
C375   H387    1.081   .     S
C376   O383    1.398   .     S
C377   C378    1.410   .     A
C377   C382    1.412   .     A
C378   C379    1.410   .     A
C378   H388    1.082   .     S
C379   X380    1.425   .     A
C379   O384    1.398   .     S
X380   C381    1.411   .     A
C381   C382    1.410   .     A
C381   H389    1.083   .     S
C382   H390    1.081   .     S
O383   H391    1.014   .     S
O384   H392    1.011   .     S
X393   C394    1.407   .     A
X393   C398    1.417   .     A
C394   C395    1.406   .     A
C394   H407    1.083   .     S
C395   C396    1.411   .     A
C395   H408    1.082   .     S
C396   C397    1.411   .     A
C396   C399    1.517   .     S
C397   C398    1.417   .     A
C397   H409    1.082   .     S
C398   O405    1.399   .     S
C399   C400    1.407   .     A
C399   C404    1.409   .     A
C400   C401    1.408   .     A
C400   H410    1.082   .     S
C401   X402    1.429   .     A
C401   O406    1.396   .     S
X402   C403    1.413   .     A
C403   C404    1.409   .     A
C403   H411    1.083   .     S
C404   H412    1.082   .     S
O405   H413    1.014   .     S
O406   H414    1.010   .     S
X415   C416    1.407   .     A
X415   C420    1.416   .     A
X415   X103    1.504   1_556 S
C416   C417    1.406   .     A
C416   H429    1.083   .     S
C417   C418    1.411   .     A
C417   H430    1.082   .     S
C418   C419    1.411   .     A
C418   C421    1.516   .     S
C419   C420    1.417   .     A
C419   H431    1.082   .     S
C420   O427    1.399   .     S
C421   C422    1.407   .     A
C421   C426    1.409   .     A
C422   C423    1.408   .     A
C422   H432    1.082   .     S
C423   X424    1.429   .     A
C423   O428    1.397   .     S
X424   C425    1.413   .     A
C425   C426    1.408   .     A
C425   H433    1.083   .     S
C426   H434    1.082   .     S
O427   H435    1.014   .     S
O428   H436    1.010   .     S
X437   C438    1.405   .     A
X437   C442    1.412   .     A
X437   X49     1.500   1_566 A
C438   C439    1.406   .     A
C438   H451    1.083   .     S
C439   C440    1.413   .     A
C439   H452    1.081   .     S
C440   C441    1.413   .     A
C440   C443    1.521   .     S
C441   C442    1.418   .     A
C441   H453    1.081   .     S
C442   O449    1.399   .     S
C443   C444    1.410   .     A
C443   C448    1.412   .     A
C444   C445    1.408   .     A
C444   H454    1.081   .     S
C445   X446    1.425   .     A
C445   O450    1.397   .     S
X446   C447    1.411   .     A
C447   C448    1.409   .     A
C447   H455    1.083   .     S
C448   H456    1.081   .     S
O449   H457    1.014   .     S
O450   H458    1.011   .     S
X459   C460    1.407   .     A
X459   C464    1.416   .     A
C460   C461    1.406   .     A
C460   H473    1.083   .     S
C461   C462    1.411   .     A
C461   H474    1.082   .     S
C462   C463    1.411   .     A
C462   C465    1.517   .     S
C463   C464    1.417   .     A
C463   H475    1.082   .     S
C464   O471    1.399   .     S
C465   C466    1.407   .     A
C465   C470    1.410   .     A
C466   C467    1.408   .     A
C466   H476    1.082   .     S
C467   X468    1.429   .     A
C467   O472    1.397   .     S
X468   C469    1.413   .     A
X468   X211    1.518   1_565 S
C469   C470    1.408   .     A
C469   H477    1.083   .     S
C470   H478    1.082   .     S
O471   H479    1.014   .     S
O472   H480    1.010   .     S
X481   C482    1.411   .     A
X481   C486    1.420   .     A
X481   X50     1.513   1_565 S
C482   C483    1.407   .     A
C482   H495    1.083   .     S
C483   C484    1.408   .     A
C483   H496    1.083   .     S
C484   C485    1.409   .     A
C484   C487    1.513   .     S
C485   C486    1.416   .     A
C485   H497    1.083   .     S
C486   O493    1.399   .     S
C487   C488    1.410   .     A
C487   C492    1.410   .     A
C488   C489    1.410   .     A
C488   H498    1.083   .     S
C489   X490    1.421   .     A
C489   O494    1.398   .     S
X490   C491    1.408   .     A
C491   C492    1.407   .     A
C491   H499    1.083   .     S
C492   H500    1.082   .     S
O493   H501    1.014   .     S
O494   H502    1.010   .     S
X503   C504    1.412   .     A
X503   C508    1.421   .     A
X503   X68     1.518   1_556 A
C504   C505    1.409   .     A
C504   H517    1.083   .     S
C505   C506    1.409   .     A
C505   H518    1.083   .     S
C506   C507    1.409   .     A
C506   C509    1.517   .     S
C507   C508    1.418   .     A
C507   H519    1.082   .     S
C508   O515    1.399   .     S
C509   C510    1.410   .     A
C509   C514    1.410   .     A
C510   C511    1.412   .     A
C510   H520    1.083   .     S
C511   X512    1.424   .     A
C511   O516    1.399   .     S
X512   C513    1.410   .     A
X512   X212    1.509   1_565 S
C513   C514    1.408   .     A
C513   H521    1.083   .     S
C514   H522    1.082   .     S
O515   H523    1.014   .     S
O516   H524    1.010   .     S
X525   C526    1.412   .     A
X525   C530    1.421   .     A
C526   C527    1.407   .     A
C526   H539    1.083   .     S
C527   C528    1.408   .     A
C527   H540    1.082   .     S
C528   C529    1.408   .     A
C528   C531    1.511   .     S
C529   C530    1.416   .     A
C529   H541    1.083   .     S
C530   O537    1.399   .     S
C531   C532    1.408   .     A
C531   C536    1.409   .     A
C532   C533    1.410   .     A
C532   H542    1.083   .     S
C533   X534    1.423   .     A
C533   O538    1.399   .     S
X534   C535    1.409   .     A
C535   C536    1.407   .     A
C535   H543    1.083   .     S
C536   H544    1.082   .     S
O537   H545    1.014   .     S
O538   H546    1.010   .     S
X547   C548    1.412   .     A
X547   C552    1.421   .     A
X547   X14     1.518   1_556 A
C548   C549    1.409   .     A
C548   H561    1.083   .     S
C549   C550    1.409   .     A
C549   H562    1.082   .     S
C550   C551    1.410   .     A
C550   C553    1.517   .     S
C551   C552    1.418   .     A
C551   H563    1.082   .     S
C552   O559    1.399   .     S
C553   C554    1.410   .     A
C553   C558    1.410   .     A
C554   C555    1.412   .     A
C554   H564    1.083   .     S
C555   X556    1.424   .     A
C555   O560    1.399   .     S
X556   C557    1.409   .     A
C557   C558    1.409   .     A
C557   H565    1.083   .     S
C558   H566    1.082   .     S
O559   H567    1.014   .     S
O560   H568    1.010   .     S
X569   C570    1.412   .     A
X569   C574    1.422   .     A
C570   C571    1.409   .     A
C570   H583    1.083   .     S
C571   C572    1.407   .     A
C571   H584    1.083   .     S
C572   C573    1.406   .     A
C572   C575    1.510   .     S
C573   C574    1.417   .     A
C573   H585    1.083   .     S
C574   O581    1.399   .     S
C575   C576    1.408   .     A
C575   C580    1.409   .     A
C576   C577    1.411   .     A
C576   H586    1.083   .     S
C577   X578    1.422   .     A
C577   O582    1.398   .     S
X578   C579    1.408   .     A
C579   C580    1.409   .     A
C579   H587    1.082   .     S
C580   H588    1.083   .     S
O581   H589    1.014   .     S
O582   H590    1.011   .     S
X591   C592    1.411   .     A
X591   C596    1.421   .     A
X591   X99     1.516   1_556 S
C592   C593    1.408   .     A
C592   H605    1.083   .     S
C593   C594    1.409   .     A
C593   H606    1.082   .     S
C594   C595    1.409   .     A
C594   C597    1.516   .     S
C595   C596    1.417   .     A
C595   H607    1.082   .     S
C596   O603    1.399   .     S
C597   C598    1.410   .     A
C597   C602    1.410   .     A
C598   C599    1.411   .     A
C598   H608    1.083   .     S
C599   X600    1.423   .     A
C599   O604    1.399   .     S
X600   C601    1.408   .     A
C601   C602    1.408   .     A
C601   H609    1.083   .     S
C602   H610    1.082   .     S
O603   H611    1.014   .     S
O604   H612    1.010   .     S
X613   C614    1.412   .     A
X613   C618    1.421   .     A
X613   X45     1.516   1_656 S
C614   C615    1.408   .     A
C614   H627    1.083   .     S
C615   C616    1.408   .     A
C615   H628    1.083   .     S
C616   C617    1.408   .     A
C616   C619    1.513   .     S
C617   C618    1.417   .     A
C617   H629    1.082   .     S
C618   O625    1.399   .     S
C619   C620    1.408   .     A
C619   C624    1.409   .     A
C620   C621    1.411   .     A
C620   H630    1.083   .     S
C621   X622    1.425   .     A
C621   O626    1.399   .     S
X622   C623    1.409   .     A
C623   C624    1.408   .     A
C623   H631    1.083   .     S
C624   H632    1.082   .     S
O625   H633    1.013   .     S
O626   H634    1.010   .     S
X635   C636    1.411   .     A
X635   C640    1.420   .     A
C636   C637    1.408   .     A
C636   H649    1.083   .     S
C637   C638    1.409   .     A
C637   H650    1.082   .     S
C638   C639    1.409   .     A
C638   C641    1.515   .     S
C639   C640    1.417   .     A
C639   H651    1.082   .     S
C640   O647    1.399   .     S
C641   C642    1.410   .     A
C641   C646    1.410   .     A
C642   C643    1.412   .     A
C642   H652    1.083   .     S
C643   X644    1.423   .     A
C643   O648    1.399   .     S
X644   C645    1.408   .     A
X644   X153    1.506   1_655 A
C645   C646    1.408   .     A
C645   H653    1.082   .     S
C646   H654    1.082   .     S
O647   H655    1.013   .     S
O648   H656    1.010   .     S
X657   C658    1.405   .     A
X657   C662    1.413   .     A
X657   X48     1.502   1_556 S
C658   C659    1.407   .     A
C658   H671    1.083   .     S
C659   C660    1.414   .     A
C659   H672    1.081   .     S
C660   C661    1.414   .     A
C660   C663    1.523   .     S
C661   C662    1.418   .     A
C661   H673    1.081   .     S
C662   O669    1.399   .     S
C663   C664    1.411   .     A
C663   C668    1.412   .     A
C664   C665    1.409   .     A
C664   H674    1.081   .     S
C665   X666    1.424   .     A
C665   O670    1.396   .     S
X666   C667    1.411   .     A
C667   C668    1.410   .     A
C667   H675    1.083   .     S
C668   H676    1.081   .     S
O669   H677    1.014   .     S
O670   H678    1.010   .     S
X679   C680    1.411   .     A
X679   C684    1.421   .     A
C680   C681    1.408   .     A
C680   H693    1.083   .     S
C681   C682    1.409   .     A
C681   H694    1.082   .     S
C682   C683    1.408   .     A
C682   C685    1.515   .     S
C683   C684    1.417   .     A
C683   H695    1.082   .     S
C684   O691    1.399   .     S
C685   C686    1.409   .     A
C685   C690    1.410   .     A
C686   C687    1.411   .     A
C686   H696    1.083   .     S
C687   X688    1.423   .     A
C687   O692    1.400   .     S
X688   C689    1.408   .     A
C689   C690    1.408   .     A
C689   H697    1.083   .     S
C690   H698    1.082   .     S
O691   H699    1.013   .     S
O692   H700    1.010   .     S
X701   C702    1.411   .     A
X701   C706    1.421   .     A
X701   X46     1.515   1_655 A
C702   C703    1.408   .     A
C702   H715    1.083   .     S
C703   C704    1.409   .     A
C703   H716    1.082   .     S
C704   C705    1.409   .     A
C704   C707    1.515   .     S
C705   C706    1.417   .     A
C705   H717    1.082   .     S
C706   O713    1.399   .     S
C707   C708    1.410   .     A
C707   C712    1.410   .     A
C708   C709    1.410   .     A
C708   H718    1.083   .     S
C709   X710    1.423   .     A
C709   O714    1.400   .     S
X710   C711    1.408   .     A
C711   C712    1.408   .     A
C711   H719    1.083   .     S
C712   H720    1.082   .     S
O713   H721    1.014   .     S
O714   H722    1.010   .     S
X723   C724    1.405   .     A
X723   C728    1.413   .     A
X723   X102    1.502   1_556 A
C724   C725    1.407   .     A
C724   H737    1.083   .     S
C725   C726    1.414   .     A
C725   H738    1.081   .     S
C726   C727    1.413   .     A
C726   C729    1.522   .     S
C727   C728    1.417   .     A
C727   H739    1.081   .     S
C728   O735    1.399   .     S
C729   C730    1.411   .     A
C729   C734    1.411   .     A
C730   C731    1.409   .     A
C730   H740    1.081   .     S
C731   X732    1.426   .     A
C731   O736    1.397   .     S
X732   C733    1.411   .     A
X732   X154    1.515   1_655 S
C733   C734    1.408   .     A
C733   H741    1.083   .     S
C734   H742    1.081   .     S
O735   H743    1.013   .     S
O736   H744    1.010   .     S
