data_repaired_ja500330a_si_007
_audit_creation_date              2015-11-03
_audit_creation_method            'Materials Studio'
_symmetry_space_group_name_H-M    'P1'
_symmetry_Int_Tables_number       1
_symmetry_cell_setting            triclinic
loop_
_symmetry_equiv_pos_as_xyz
  x,y,z
_cell_length_a                    35.0765
_cell_length_b                    35.0765
_cell_length_c                    35.0765
_cell_angle_alpha                 90.0000
_cell_angle_beta                  90.0000
_cell_angle_gamma                 90.0000
loop_
_atom_site_label
_atom_site_type_symbol
_atom_site_fract_x
_atom_site_fract_y
_atom_site_fract_z
_atom_site_U_iso_or_equiv
_atom_site_adp_type
_atom_site_occupancy
X1     C     0.29734   0.45348   0.90348   0.00000  Uiso   1.00
C2     C     0.33057   0.46932   0.91997   0.00000  Uiso   1.00
X3     C     0.34767   0.45326   0.95289   0.00000  Uiso   1.00
C4     C     0.32979   0.42124   0.96983   0.00000  Uiso   1.00
X5     C     0.29653   0.40476   0.95413   0.00000  Uiso   1.00
C6     C     0.28052   0.42146   0.92115   0.00000  Uiso   1.00
H7     H     0.34413   0.49328   0.90600   0.00000  Uiso   1.00
H8     H     0.34278   0.40790   0.99447   0.00000  Uiso   1.00
H9     H     0.25575   0.40840   0.90816   0.00000  Uiso   1.00
X10    C     0.45387   0.84574   0.45415   0.00000  Uiso   1.00
C11    C     0.47050   0.82848   0.42181   0.00000  Uiso   1.00
X12    C     0.45483   0.79528   0.40531   0.00000  Uiso   1.00
C13    C     0.42236   0.77875   0.42247   0.00000  Uiso   1.00
X14    C     0.40504   0.79526   0.45484   0.00000  Uiso   1.00
C15    C     0.42146   0.82848   0.47061   0.00000  Uiso   1.00
H16    H     0.49464   0.84211   0.40821   0.00000  Uiso   1.00
H17    H     0.40930   0.75405   0.40935   0.00000  Uiso   1.00
H18    H     0.40776   0.84213   0.49468   0.00000  Uiso   1.00
X19    C     0.95351   0.90251   0.79807   0.00000  Uiso   1.00
C20    C     0.92149   0.92045   0.78130   0.00000  Uiso   1.00
X21    C     0.90502   0.95361   0.79716   0.00000  Uiso   1.00
C22    C     0.92169   0.96943   0.83027   0.00000  Uiso   1.00
X23    C     0.95377   0.95253   0.84807   0.00000  Uiso   1.00
C24    C     0.96967   0.91944   0.83107   0.00000  Uiso   1.00
H25    H     0.90816   0.90761   0.75658   0.00000  Uiso   1.00
H26    H     0.90847   0.99418   0.84316   0.00000  Uiso   1.00
H27    H     0.99376   0.90572   0.84468   0.00000  Uiso   1.00
X28    C     0.45355   0.90497   0.29714   0.00000  Uiso   1.00
C29    C     0.42053   0.92169   0.28126   0.00000  Uiso   1.00
X30    C     0.40275   0.95378   0.29811   0.00000  Uiso   1.00
C31    C     0.41969   0.96972   0.33117   0.00000  Uiso   1.00
X32    C     0.45262   0.95355   0.34819   0.00000  Uiso   1.00
C33    C     0.46938   0.92144   0.33034   0.00000  Uiso   1.00
H34    H     0.40768   0.90850   0.25647   0.00000  Uiso   1.00
H35    H     0.40606   0.99385   0.34482   0.00000  Uiso   1.00
H36    H     0.49403   0.90805   0.34327   0.00000  Uiso   1.00
X37    C     0.79672   0.29576   0.34487   0.00000  Uiso   1.00
C38    C     0.82982   0.27986   0.32831   0.00000  Uiso   1.00
X39    C     0.84748   0.29668   0.29625   0.00000  Uiso   1.00
C40    C     0.83085   0.32971   0.28029   0.00000  Uiso   1.00
X41    C     0.79776   0.34637   0.29610   0.00000  Uiso   1.00
C42    C     0.78084   0.32880   0.32815   0.00000  Uiso   1.00
H43    H     0.84294   0.25523   0.34151   0.00000  Uiso   1.00
H44    H     0.84472   0.34351   0.25640   0.00000  Uiso   1.00
H45    H     0.75617   0.34194   0.34125   0.00000  Uiso   1.00
X46    C     0.79637   0.84504   0.79621   0.00000  Uiso   1.00
C47    C     0.82977   0.82873   0.78070   0.00000  Uiso   1.00
X48    C     0.84747   0.79658   0.79749   0.00000  Uiso   1.00
C49    C     0.82999   0.78007   0.82998   0.00000  Uiso   1.00
X50    C     0.79663   0.79580   0.84656   0.00000  Uiso   1.00
C51    C     0.77995   0.82798   0.82879   0.00000  Uiso   1.00
H52    H     0.84305   0.84238   0.75639   0.00000  Uiso   1.00
H53    H     0.84357   0.75592   0.84362   0.00000  Uiso   1.00
H54    H     0.75501   0.84108   0.84144   0.00000  Uiso   1.00
X55    C     0.95381   0.34611   0.45282   0.00000  Uiso   1.00
C56    C     0.96989   0.32951   0.41983   0.00000  Uiso   1.00
X57    C     0.95419   0.29636   0.40318   0.00000  Uiso   1.00
C58    C     0.92219   0.27935   0.42074   0.00000  Uiso   1.00
X59    C     0.90542   0.29521   0.45375   0.00000  Uiso   1.00
C60    C     0.92187   0.32834   0.46966   0.00000  Uiso   1.00
H61    H     0.99369   0.34347   0.40600   0.00000  Uiso   1.00
H62    H     0.90914   0.25465   0.40760   0.00000  Uiso   1.00
H63    H     0.90861   0.34145   0.49426   0.00000  Uiso   1.00
X64    C     0.45216   0.45236   0.84663   0.00000  Uiso   1.00
C65    C     0.41943   0.46862   0.82978   0.00000  Uiso   1.00
X66    C     0.40237   0.45242   0.79713   0.00000  Uiso   1.00
C67    C     0.41922   0.41965   0.78086   0.00000  Uiso   1.00
X68    C     0.45200   0.40272   0.79698   0.00000  Uiso   1.00
C69    C     0.46832   0.41966   0.82964   0.00000  Uiso   1.00
H70    H     0.40616   0.49308   0.84315   0.00000  Uiso   1.00
H71    H     0.40580   0.40629   0.75647   0.00000  Uiso   1.00
H72    H     0.49281   0.40635   0.84293   0.00000  Uiso   1.00
X73    C     0.79686   0.90590   0.95512   0.00000  Uiso   1.00
C74    C     0.78018   0.92330   0.92289   0.00000  Uiso   1.00
X75    C     0.79672   0.95556   0.90546   0.00000  Uiso   1.00
C76    C     0.83030   0.97106   0.92157   0.00000  Uiso   1.00
X77    C     0.84802   0.95438   0.95384   0.00000  Uiso   1.00
C78    C     0.83041   0.92207   0.97054   0.00000  Uiso   1.00
H79    H     0.75519   0.91045   0.91010   0.00000  Uiso   1.00
H80    H     0.84372   0.99516   0.90768   0.00000  Uiso   1.00
H81    H     0.84388   0.90818   0.99461   0.00000  Uiso   1.00
X82    C     0.29660   0.84773   0.29604   0.00000  Uiso   1.00
C83    C     0.27965   0.83012   0.32821   0.00000  Uiso   1.00
X84    C     0.29486   0.79650   0.34439   0.00000  Uiso   1.00
C85    C     0.32711   0.77973   0.32710   0.00000  Uiso   1.00
X86    C     0.34467   0.79628   0.29489   0.00000  Uiso   1.00
C87    C     0.32877   0.82992   0.27942   0.00000  Uiso   1.00
H88    H     0.25558   0.84367   0.34201   0.00000  Uiso   1.00
H89    H     0.33981   0.75471   0.33996   0.00000  Uiso   1.00
H90    H     0.34276   0.84333   0.25538   0.00000  Uiso   1.00
X91    C     0.79693   0.40436   0.45348   0.00000  Uiso   1.00
C92    C     0.78086   0.42106   0.42055   0.00000  Uiso   1.00
X93    C     0.79753   0.45320   0.40299   0.00000  Uiso   1.00
C94    C     0.83062   0.46917   0.41953   0.00000  Uiso   1.00
X95    C     0.84777   0.45314   0.45238   0.00000  Uiso   1.00
C96    C     0.83008   0.42099   0.46926   0.00000  Uiso   1.00
H97    H     0.75617   0.40790   0.40749   0.00000  Uiso   1.00
H98    H     0.84405   0.49324   0.40561   0.00000  Uiso   1.00
H99    H     0.84314   0.40765   0.49387   0.00000  Uiso   1.00
X100   C     0.95381   0.84816   0.95362   0.00000  Uiso   1.00
C101   C     0.92178   0.83031   0.97054   0.00000  Uiso   1.00
X102   C     0.90541   0.79701   0.95482   0.00000  Uiso   1.00
C103   C     0.92219   0.78099   0.92198   0.00000  Uiso   1.00
X104   C     0.95411   0.79789   0.90433   0.00000  Uiso   1.00
C105   C     0.96995   0.83106   0.92078   0.00000  Uiso   1.00
H106   H     0.90833   0.84335   0.99509   0.00000  Uiso   1.00
H107   H     0.90918   0.75619   0.90899   0.00000  Uiso   1.00
H108   H     0.99387   0.84464   0.90675   0.00000  Uiso   1.00
X109   C     0.29662   0.34664   0.79674   0.00000  Uiso   1.00
C110   C     0.27975   0.32911   0.82885   0.00000  Uiso   1.00
X111   C     0.29563   0.29609   0.84560   0.00000  Uiso   1.00
C112   C     0.32871   0.28013   0.82903   0.00000  Uiso   1.00
X113   C     0.34636   0.29688   0.79694   0.00000  Uiso   1.00
C114   C     0.32972   0.32993   0.78093   0.00000  Uiso   1.00
H115   H     0.25510   0.34228   0.84196   0.00000  Uiso   1.00
H116   H     0.34182   0.25552   0.84225   0.00000  Uiso   1.00
H117   H     0.34357   0.34369   0.75702   0.00000  Uiso   1.00
X118   C     0.15423   0.54599   0.54481   0.00000  Uiso   1.00
C119   C     0.17144   0.52942   0.57723   0.00000  Uiso   1.00
X120   C     0.20377   0.54593   0.59460   0.00000  Uiso   1.00
C121   C     0.21946   0.57927   0.57825   0.00000  Uiso   1.00
X122   C     0.20299   0.59657   0.54581   0.00000  Uiso   1.00
C123   C     0.17064   0.57930   0.52920   0.00000  Uiso   1.00
H124   H     0.15841   0.50462   0.59021   0.00000  Uiso   1.00
H125   H     0.24354   0.59290   0.59195   0.00000  Uiso   1.00
H126   H     0.15703   0.59291   0.50507   0.00000  Uiso   1.00
X127   C     0.59678   0.70319   0.04641   0.00000  Uiso   1.00
C128   C     0.57915   0.67106   0.02969   0.00000  Uiso   1.00
X129   C     0.54606   0.65449   0.04567   0.00000  Uiso   1.00
C130   C     0.53021   0.67127   0.07869   0.00000  Uiso   1.00
X131   C     0.54711   0.70338   0.09619   0.00000  Uiso   1.00
C132   C     0.58015   0.71921   0.07945   0.00000  Uiso   1.00
H133   H     0.59228   0.65782   0.00509   0.00000  Uiso   1.00
H134   H     0.50556   0.65817   0.09186   0.00000  Uiso   1.00
H135   H     0.59397   0.74315   0.09319   0.00000  Uiso   1.00
X136   C     0.70375   0.20329   0.65357   0.00000  Uiso   1.00
C137   C     0.71971   0.17030   0.67025   0.00000  Uiso   1.00
X138   C     0.70380   0.15364   0.70325   0.00000  Uiso   1.00
C139   C     0.67175   0.17119   0.72012   0.00000  Uiso   1.00
X140   C     0.65505   0.20419   0.70420   0.00000  Uiso   1.00
C141   C     0.67167   0.22012   0.67113   0.00000  Uiso   1.00
H142   H     0.74362   0.15648   0.65645   0.00000  Uiso   1.00
H143   H     0.65859   0.15802   0.74475   0.00000  Uiso   1.00
H144   H     0.65846   0.24470   0.65793   0.00000  Uiso   1.00
X145   C     0.09515   0.04412   0.20541   0.00000  Uiso   1.00
C146   C     0.07799   0.07673   0.22162   0.00000  Uiso   1.00
X147   C     0.04532   0.09365   0.20525   0.00000  Uiso   1.00
C148   C     0.02911   0.07657   0.17260   0.00000  Uiso   1.00
X149   C     0.04547   0.04394   0.15560   0.00000  Uiso   1.00
C150   C     0.07824   0.02780   0.17265   0.00000  Uiso   1.00
H151   H     0.09140   0.09027   0.24590   0.00000  Uiso   1.00
H152   H     0.00481   0.09000   0.15909   0.00000  Uiso   1.00
H153   H     0.09183   0.00359   0.15916   0.00000  Uiso   1.00
X154   C     0.04684   0.15493   0.04598   0.00000  Uiso   1.00
C155   C     0.08019   0.17126   0.03034   0.00000  Uiso   1.00
X156   C     0.09786   0.20354   0.04697   0.00000  Uiso   1.00
C157   C     0.08043   0.22014   0.07944   0.00000  Uiso   1.00
X158   C     0.04721   0.20438   0.09622   0.00000  Uiso   1.00
C159   C     0.03053   0.17207   0.07860   0.00000  Uiso   1.00
H160   H     0.09344   0.15757   0.00604   0.00000  Uiso   1.00
H161   H     0.09397   0.24440   0.09294   0.00000  Uiso   1.00
H162   H     0.00566   0.15896   0.09137   0.00000  Uiso   1.00
X163   C     0.15448   0.70539   0.70429   0.00000  Uiso   1.00
C164   C     0.17086   0.72108   0.67101   0.00000  Uiso   1.00
X165   C     0.20323   0.70455   0.65369   0.00000  Uiso   1.00
C166   C     0.21979   0.67212   0.67094   0.00000  Uiso   1.00
X167   C     0.20417   0.65568   0.70424   0.00000  Uiso   1.00
C168   C     0.17178   0.67296   0.72079   0.00000  Uiso   1.00
H169   H     0.15720   0.74520   0.65741   0.00000  Uiso   1.00
H170   H     0.24389   0.65848   0.65729   0.00000  Uiso   1.00
H171   H     0.15878   0.65993   0.74558   0.00000  Uiso   1.00
X172   C     0.20489   0.15523   0.20527   0.00000  Uiso   1.00
C173   C     0.17222   0.17223   0.22165   0.00000  Uiso   1.00
X174   C     0.15462   0.20458   0.20505   0.00000  Uiso   1.00
C175   C     0.17147   0.22054   0.17201   0.00000  Uiso   1.00
X176   C     0.20396   0.20411   0.15483   0.00000  Uiso   1.00
C177   C     0.22058   0.17178   0.17210   0.00000  Uiso   1.00
H178   H     0.15935   0.15896   0.24638   0.00000  Uiso   1.00
H179   H     0.15808   0.24473   0.15827   0.00000  Uiso   1.00
H180   H     0.24481   0.15828   0.15855   0.00000  Uiso   1.00
X181   C     0.65468   0.04571   0.54717   0.00000  Uiso   1.00
C182   C     0.67148   0.07868   0.53130   0.00000  Uiso   1.00
X183   C     0.70348   0.09627   0.54825   0.00000  Uiso   1.00
C184   C     0.71921   0.07967   0.58145   0.00000  Uiso   1.00
X185   C     0.70308   0.04672   0.59844   0.00000  Uiso   1.00
C186   C     0.67103   0.02990   0.58049   0.00000  Uiso   1.00
H187   H     0.65852   0.09172   0.50650   0.00000  Uiso   1.00
H188   H     0.74319   0.09358   0.59505   0.00000  Uiso   1.00
H189   H     0.65762   0.00527   0.59341   0.00000  Uiso   1.00
X190   C     0.54495   0.54530   0.15488   0.00000  Uiso   1.00
C191   C     0.57740   0.52888   0.17218   0.00000  Uiso   1.00
X192   C     0.59475   0.54558   0.20446   0.00000  Uiso   1.00
C193   C     0.57835   0.57895   0.21998   0.00000  Uiso   1.00
X194   C     0.54589   0.59614   0.20340   0.00000  Uiso   1.00
C195   C     0.52931   0.57868   0.17114   0.00000  Uiso   1.00
H196   H     0.59040   0.50404   0.15925   0.00000  Uiso   1.00
H197   H     0.59205   0.59270   0.24399   0.00000  Uiso   1.00
H198   H     0.50516   0.59222   0.15748   0.00000  Uiso   1.00
X199   C     0.65336   0.70349   0.20281   0.00000  Uiso   1.00
C200   C     0.66997   0.71947   0.16977   0.00000  Uiso   1.00
X201   C     0.70296   0.70357   0.15303   0.00000  Uiso   1.00
C202   C     0.71983   0.67147   0.17054   0.00000  Uiso   1.00
X203   C     0.70397   0.65476   0.20357   0.00000  Uiso   1.00
C204   C     0.67095   0.67139   0.21956   0.00000  Uiso   1.00
H205   H     0.65616   0.74340   0.15600   0.00000  Uiso   1.00
H206   H     0.74445   0.65831   0.15734   0.00000  Uiso   1.00
H207   H     0.65782   0.65819   0.24419   0.00000  Uiso   1.00
X208   C     0.15573   0.04638   0.04544   0.00000  Uiso   1.00
C209   C     0.17304   0.02984   0.07785   0.00000  Uiso   1.00
X210   C     0.20535   0.04644   0.09530   0.00000  Uiso   1.00
C211   C     0.22080   0.08001   0.07911   0.00000  Uiso   1.00
X212   C     0.20416   0.09762   0.04676   0.00000  Uiso   1.00
C213   C     0.17193   0.07991   0.03002   0.00000  Uiso   1.00
H214   H     0.16018   0.00489   0.09069   0.00000  Uiso   1.00
H215   H     0.24489   0.09347   0.09297   0.00000  Uiso   1.00
H216   H     0.15814   0.09328   0.00583   0.00000  Uiso   1.00
X217   C     0.59632   0.20369   0.54589   0.00000  Uiso   1.00
C218   C     0.57894   0.17134   0.52938   0.00000  Uiso   1.00
X219   C     0.54564   0.15499   0.54512   0.00000  Uiso   1.00
C220   C     0.52922   0.17228   0.57754   0.00000  Uiso   1.00
X221   C     0.54585   0.20461   0.59482   0.00000  Uiso   1.00
C222   C     0.57914   0.22023   0.57836   0.00000  Uiso   1.00
H223   H     0.59249   0.15767   0.50524   0.00000  Uiso   1.00
H224   H     0.50444   0.15929   0.59059   0.00000  Uiso   1.00
H225   H     0.59284   0.24429   0.59202   0.00000  Uiso   1.00
X226   C     0.09350   0.54525   0.70518   0.00000  Uiso   1.00
C227   C     0.07652   0.52900   0.67244   0.00000  Uiso   1.00
X228   C     0.04385   0.54526   0.65534   0.00000  Uiso   1.00
C229   C     0.02757   0.57799   0.67233   0.00000  Uiso   1.00
X230   C     0.04376   0.59499   0.70508   0.00000  Uiso   1.00
C231   C     0.07644   0.57795   0.72139   0.00000  Uiso   1.00
H232   H     0.09000   0.50470   0.65900   0.00000  Uiso   1.00
H233   H     0.00333   0.59149   0.65880   0.00000  Uiso   1.00
H234   H     0.08989   0.59140   0.74571   0.00000  Uiso   1.00
X235   C     0.65498   0.54563   0.04456   0.00000  Uiso   1.00
C236   C     0.67232   0.52904   0.07691   0.00000  Uiso   1.00
X237   C     0.70478   0.54550   0.09417   0.00000  Uiso   1.00
C238   C     0.72044   0.57882   0.07777   0.00000  Uiso   1.00
X239   C     0.70388   0.59619   0.04542   0.00000  Uiso   1.00
C240   C     0.67139   0.57896   0.02893   0.00000  Uiso   1.00
H241   H     0.65931   0.50425   0.08992   0.00000  Uiso   1.00
H242   H     0.74460   0.59238   0.09139   0.00000  Uiso   1.00
H243   H     0.65770   0.59264   0.00487   0.00000  Uiso   1.00
X244   C     0.04471   0.70535   0.59485   0.00000  Uiso   1.00
C245   C     0.02809   0.67293   0.57760   0.00000  Uiso   1.00
X246   C     0.04451   0.65560   0.54513   0.00000  Uiso   1.00
C247   C     0.07787   0.67194   0.52946   0.00000  Uiso   1.00
X248   C     0.09527   0.70430   0.54597   0.00000  Uiso   1.00
C249   C     0.07804   0.72090   0.57839   0.00000  Uiso   1.00
H250   H     0.00330   0.65997   0.59065   0.00000  Uiso   1.00
H251   H     0.09142   0.65828   0.50532   0.00000  Uiso   1.00
H252   H     0.09173   0.74500   0.59200   0.00000  Uiso   1.00
X253   C     0.54670   0.04470   0.65539   0.00000  Uiso   1.00
C254   C     0.58022   0.02920   0.67162   0.00000  Uiso   1.00
X255   C     0.59786   0.04587   0.70398   0.00000  Uiso   1.00
C256   C     0.58022   0.07821   0.72060   0.00000  Uiso   1.00
X257   C     0.54669   0.09441   0.70507   0.00000  Uiso   1.00
C258   C     0.53013   0.07701   0.67276   0.00000  Uiso   1.00
H259   H     0.59363   0.00507   0.65779   0.00000  Uiso   1.00
H260   H     0.59361   0.09206   0.74473   0.00000  Uiso   1.00
H261   H     0.50519   0.08986   0.65990   0.00000  Uiso   1.00
X262   C     0.45284   0.34793   0.95305   0.00000  Uiso   1.00
C263   C     0.42083   0.33000   0.96994   0.00000  Uiso   1.00
X264   C     0.40446   0.29669   0.95421   0.00000  Uiso   1.00
C265   C     0.42123   0.28073   0.92128   0.00000  Uiso   1.00
X266   C     0.45323   0.29763   0.90364   0.00000  Uiso   1.00
C267   C     0.46898   0.33087   0.92015   0.00000  Uiso   1.00
H268   H     0.40743   0.34297   0.99455   0.00000  Uiso   1.00
H269   H     0.40824   0.25592   0.90829   0.00000  Uiso   1.00
H270   H     0.49292   0.34447   0.90618   0.00000  Uiso   1.00
X271   C     0.95246   0.45192   0.34824   0.00000  Uiso   1.00
C272   C     0.91982   0.46815   0.33083   0.00000  Uiso   1.00
X273   C     0.90316   0.45203   0.29788   0.00000  Uiso   1.00
C274   C     0.92028   0.41938   0.28169   0.00000  Uiso   1.00
X275   C     0.95297   0.40243   0.29800   0.00000  Uiso   1.00
C276   C     0.96890   0.41926   0.33101   0.00000  Uiso   1.00
H277   H     0.90624   0.49263   0.34386   0.00000  Uiso   1.00
H278   H     0.90718   0.40617   0.25705   0.00000  Uiso   1.00
H279   H     0.99337   0.40583   0.34422   0.00000  Uiso   1.00
X280   C     0.29823   0.95382   0.40227   0.00000  Uiso   1.00
C281   C     0.28138   0.92179   0.42011   0.00000  Uiso   1.00
X282   C     0.29720   0.90522   0.45323   0.00000  Uiso   1.00
C283   C     0.33036   0.92174   0.46908   0.00000  Uiso   1.00
X284   C     0.34823   0.95380   0.45225   0.00000  Uiso   1.00
C285   C     0.33126   0.96986   0.41924   0.00000  Uiso   1.00
H286   H     0.25662   0.90856   0.40723   0.00000  Uiso   1.00
H287   H     0.34321   0.90843   0.49380   0.00000  Uiso   1.00
H288   H     0.34493   0.99395   0.40559   0.00000  Uiso   1.00
O289   O     0.14784   0.54964   0.74665   0.00000  Uiso   1.00
O290   O     0.16189   0.54505   0.81444   0.00000  Uiso   1.00
O291   O     0.24605   0.60177   0.70037   0.00000  Uiso   1.00
O292   O     0.31033   0.59148   0.70379   0.00000  Uiso   1.00
O293   O     0.19970   0.50383   0.64847   0.00000  Uiso   1.00
O294   O     0.20474   0.43578   0.66233   0.00000  Uiso   1.00
O295   O     0.34928   0.49529   0.80042   0.00000  Uiso   1.00
O296   O     0.33922   0.56259   0.79205   0.00000  Uiso   1.00
O297   O     0.25449   0.45012   0.85008   0.00000  Uiso   1.00
O298   O     0.18393   0.45481   0.83676   0.00000  Uiso   1.00
O299   O     0.29972   0.40018   0.75422   0.00000  Uiso   1.00
O300   O     0.29468   0.41374   0.68408   0.00000  Uiso   1.00
O301   O     0.34922   0.44976   0.75438   0.00000  Uiso   1.00
O302   O     0.33586   0.45515   0.68410   0.00000  Uiso   1.00
O303   O     0.25417   0.40019   0.80021   0.00000  Uiso   1.00
O304   O     0.18391   0.41356   0.79574   0.00000  Uiso   1.00
O305   O     0.30033   0.49584   0.84991   0.00000  Uiso   1.00
O306   O     0.29426   0.56539   0.83723   0.00000  Uiso   1.00
O307   O     0.14763   0.50368   0.70087   0.00000  Uiso   1.00
O308   O     0.16143   0.43585   0.70572   0.00000  Uiso   1.00
O309   O     0.24551   0.54976   0.64848   0.00000  Uiso   1.00
O310   O     0.31400   0.54192   0.66228   0.00000  Uiso   1.00
O311   O     0.20014   0.60182   0.74623   0.00000  Uiso   1.00
O312   O     0.20536   0.58812   0.81431   0.00000  Uiso   1.00
Zr313  Zr    0.20329   0.54659   0.77069   0.00000  Uiso   1.00
O314   O     0.23710   0.51264   0.80748   0.00000  Uiso   1.00
Zr315  Zr    0.27013   0.54648   0.70351   0.00000  Uiso   1.00
O316   O     0.30703   0.51274   0.73753   0.00000  Uiso   1.00
Zr317  Zr    0.20294   0.47948   0.70378   0.00000  Uiso   1.00
O318   O     0.23690   0.44265   0.73758   0.00000  Uiso   1.00
Zr319  Zr    0.29524   0.52150   0.79562   0.00000  Uiso   1.00
O320   O     0.26154   0.55900   0.76178   0.00000  Uiso   1.00
Zr321  Zr    0.22824   0.45452   0.79576   0.00000  Uiso   1.00
O322   O     0.19077   0.48838   0.76202   0.00000  Uiso   1.00
Zr323  Zr    0.29499   0.45459   0.72852   0.00000  Uiso   1.00
O324   O     0.26103   0.48832   0.69119   0.00000  Uiso   1.00
O325   O     0.21270   0.53688   0.71327   0.00000  Uiso   1.00
O326   O     0.28595   0.46373   0.78634   0.00000  Uiso   1.00
X327   C     0.13165   0.53140   0.71904   0.00000  Uiso   1.00
X328   C     0.21828   0.61780   0.71845   0.00000  Uiso   1.00
X329   C     0.21780   0.53164   0.63247   0.00000  Uiso   1.00
X330   C     0.36486   0.46711   0.78271   0.00000  Uiso   1.00
X331   C     0.28277   0.46772   0.86570   0.00000  Uiso   1.00
X332   C     0.28226   0.38447   0.78247   0.00000  Uiso   1.00
H333   H     0.23097   0.51863   0.83429   0.00000  Uiso   1.00
H334   H     0.23083   0.41582   0.73153   0.00000  Uiso   1.00
H335   H     0.19634   0.55313   0.69712   0.00000  Uiso   1.00
H336   H     0.33396   0.51880   0.73191   0.00000  Uiso   1.00
H337   H     0.32789   0.58555   0.78015   0.00000  Uiso   1.00
H338   H     0.33385   0.58181   0.71598   0.00000  Uiso   1.00
H339   H     0.18786   0.39654   0.77361   0.00000  Uiso   1.00
H340   H     0.14917   0.43764   0.73108   0.00000  Uiso   1.00
H341   H     0.27212   0.56112   0.85414   0.00000  Uiso   1.00
H342   H     0.23052   0.60072   0.81215   0.00000  Uiso   1.00
H343   H     0.27257   0.39673   0.68811   0.00000  Uiso   1.00
H344   H     0.22984   0.43788   0.64960   0.00000  Uiso   1.00
H345   H     0.14966   0.51965   0.81294   0.00000  Uiso   1.00
H346   H     0.18830   0.47660   0.85411   0.00000  Uiso   1.00
H347   H     0.30967   0.51778   0.64832   0.00000  Uiso   1.00
H348   H     0.35318   0.47695   0.68852   0.00000  Uiso   1.00
O349   O     0.24718   0.10158   0.20147   0.00000  Uiso   1.00
O350   O     0.31528   0.08798   0.20641   0.00000  Uiso   1.00
O351   O     0.20171   0.00384   0.14893   0.00000  Uiso   1.00
O352   O     0.20619  -0.06082   0.15893   0.00000  Uiso   1.00
O353   O     0.14922   0.04869   0.24717   0.00000  Uiso   1.00
O354   O     0.16321   0.04385   0.31516   0.00000  Uiso   1.00
O355   O     0.30169  -0.09996   0.25512   0.00000  Uiso   1.00
O356   O     0.29459  -0.08921   0.18817   0.00000  Uiso   1.00
O357   O     0.35111  -0.00424   0.30146   0.00000  Uiso   1.00
O358   O     0.33723   0.06633   0.29594   0.00000  Uiso   1.00
O359   O     0.25628  -0.05025   0.35059   0.00000  Uiso   1.00
O360   O     0.18524  -0.04514   0.33670   0.00000  Uiso   1.00
O361   O     0.25557  -0.10018   0.30046   0.00000  Uiso   1.00
O362   O     0.18629  -0.08727   0.29656   0.00000  Uiso   1.00
O363   O     0.30164  -0.00419   0.35078   0.00000  Uiso   1.00
O364   O     0.29615   0.06588   0.33749   0.00000  Uiso   1.00
O365   O     0.35136  -0.05019   0.25596   0.00000  Uiso   1.00
O366   O     0.33923  -0.04407   0.18601   0.00000  Uiso   1.00
O367   O     0.20111   0.10130   0.24715   0.00000  Uiso   1.00
O368   O     0.20610   0.08765   0.31498   0.00000  Uiso   1.00
O369   O     0.14967   0.00316   0.20098   0.00000  Uiso   1.00
O370   O     0.16408  -0.06503   0.20809   0.00000  Uiso   1.00
O371   O     0.24739   0.04991   0.14922   0.00000  Uiso   1.00
O372   O     0.31535   0.04468   0.16294   0.00000  Uiso   1.00
Zr373  Zr    0.27172   0.04639   0.20447   0.00000  Uiso   1.00
O374   O     0.30868   0.01276   0.23845   0.00000  Uiso   1.00
Zr375  Zr    0.20503  -0.02084   0.20411   0.00000  Uiso   1.00
O376   O     0.23917  -0.05751   0.23805   0.00000  Uiso   1.00
Zr377  Zr    0.20459   0.04605   0.27142   0.00000  Uiso   1.00
O378   O     0.23861   0.01239   0.30831   0.00000  Uiso   1.00
Zr379  Zr    0.29727  -0.04547   0.22957   0.00000  Uiso   1.00
O380   O     0.26332  -0.01192   0.19194   0.00000  Uiso   1.00
Zr381  Zr    0.29672   0.02157   0.29650   0.00000  Uiso   1.00
O382   O     0.26273   0.05877   0.26265   0.00000  Uiso   1.00
Zr383  Zr    0.23006  -0.04573   0.29626   0.00000  Uiso   1.00
O384   O     0.19255  -0.01211   0.26233   0.00000  Uiso   1.00
O385   O     0.21432   0.03656   0.21401   0.00000  Uiso   1.00
O386   O     0.28782  -0.03629   0.28732   0.00000  Uiso   1.00
X387   C     0.21924   0.11743   0.21948   0.00000  Uiso   1.00
X388   C     0.21965   0.03186   0.13309   0.00000  Uiso   1.00
X389   C     0.13334   0.03054   0.21934   0.00000  Uiso   1.00
X390   C     0.28376  -0.11599   0.28297   0.00000  Uiso   1.00
X391   C     0.36700  -0.03259   0.28422   0.00000  Uiso   1.00
X392   C     0.28442  -0.03261   0.36647   0.00000  Uiso   1.00
H393   H     0.33547   0.01908   0.23256   0.00000  Uiso   1.00
H394   H     0.23247   0.01835   0.33514   0.00000  Uiso   1.00
H395   H     0.19797   0.05278   0.19781   0.00000  Uiso   1.00
H396   H     0.23368  -0.08445   0.23189   0.00000  Uiso   1.00
H397   H     0.28246  -0.07796   0.16529   0.00000  Uiso   1.00
H398   H     0.21831  -0.08434   0.16870   0.00000  Uiso   1.00
H399   H     0.27406   0.06169   0.35449   0.00000  Uiso   1.00
H400   H     0.23134   0.10015   0.31320   0.00000  Uiso   1.00
H401   H     0.35629  -0.02215   0.19076   0.00000  Uiso   1.00
H402   H     0.31361   0.01937   0.15058   0.00000  Uiso   1.00
H403   H     0.19037  -0.02438   0.35507   0.00000  Uiso   1.00
H404   H     0.15081   0.01858   0.31315   0.00000  Uiso   1.00
H405   H     0.31328   0.10045   0.23165   0.00000  Uiso   1.00
H406   H     0.35521   0.06155   0.27476   0.00000  Uiso   1.00
H407   H     0.15027  -0.06122   0.23240   0.00000  Uiso   1.00
H408   H     0.18906  -0.10282   0.27320   0.00000  Uiso   1.00
O409   O     0.45038   0.85174   0.25413   0.00000  Uiso   1.00
O410   O     0.45603   0.83848   0.18581   0.00000  Uiso   1.00
O411   O     0.39827   0.75390   0.29898   0.00000  Uiso   1.00
O412   O     0.40831   0.68948   0.29550   0.00000  Uiso   1.00
O413   O     0.49678   0.79924   0.35154   0.00000  Uiso   1.00
O414   O     0.56465   0.79436   0.33745   0.00000  Uiso   1.00
O415   O     0.50417   0.65024   0.19919   0.00000  Uiso   1.00
O416   O     0.43714   0.66105   0.20677   0.00000  Uiso   1.00
O417   O     0.55027   0.74588   0.14976   0.00000  Uiso   1.00
O418   O     0.54533   0.81636   0.16362   0.00000  Uiso   1.00
O419   O     0.59970   0.69979   0.24506   0.00000  Uiso   1.00
O420   O     0.58609   0.70452   0.31553   0.00000  Uiso   1.00
O421   O     0.54960   0.64998   0.24532   0.00000  Uiso   1.00
O422   O     0.54510   0.66324   0.31511   0.00000  Uiso   1.00
O423   O     0.60001   0.74597   0.19970   0.00000  Uiso   1.00
O424   O     0.58687   0.81579   0.20438   0.00000  Uiso   1.00
O425   O     0.50471   0.69988   0.14966   0.00000  Uiso   1.00
O426   O     0.43494   0.70610   0.16197   0.00000  Uiso   1.00
O427   O     0.49618   0.85152   0.30008   0.00000  Uiso   1.00
O428   O     0.56431   0.83804   0.29421   0.00000  Uiso   1.00
O429   O     0.45046   0.75383   0.35121   0.00000  Uiso   1.00
O430   O     0.45762   0.68538   0.33702   0.00000  Uiso   1.00
O431   O     0.39855   0.79982   0.25315   0.00000  Uiso   1.00
O432   O     0.41252   0.79525   0.18534   0.00000  Uiso   1.00
Zr433  Zr    0.45384   0.79669   0.22917   0.00000  Uiso   1.00
O434   O     0.48764   0.76290   0.19227   0.00000  Uiso   1.00
Zr435  Zr    0.45348   0.72947   0.29599   0.00000  Uiso   1.00
O436   O     0.48718   0.69265   0.26186   0.00000  Uiso   1.00
Zr437  Zr    0.52078   0.79642   0.29620   0.00000  Uiso   1.00
O438   O     0.55751   0.76252   0.26230   0.00000  Uiso   1.00
Zr439  Zr    0.47862   0.70470   0.20379   0.00000  Uiso   1.00
O440   O     0.44119   0.73841   0.23772   0.00000  Uiso   1.00
Zr441  Zr    0.54570   0.77165   0.20419   0.00000  Uiso   1.00
O442   O     0.51200   0.80908   0.23808   0.00000  Uiso   1.00
Zr443  Zr    0.54536   0.70440   0.27097   0.00000  Uiso   1.00
O444   O     0.51168   0.73827   0.30844   0.00000  Uiso   1.00
O445   O     0.46337   0.78683   0.28655   0.00000  Uiso   1.00
O446   O     0.53641   0.71381   0.21318   0.00000  Uiso   1.00
X447   C     0.46826   0.86753   0.28221   0.00000  Uiso   1.00
X448   C     0.38243   0.78177   0.28085   0.00000  Uiso   1.00
X449   C     0.46886   0.78127   0.36740   0.00000  Uiso   1.00
X450   C     0.53201   0.63430   0.21714   0.00000  Uiso   1.00
X451   C     0.53279   0.71764   0.13400   0.00000  Uiso   1.00
X452   C     0.61556   0.71764   0.21712   0.00000  Uiso   1.00
H453   H     0.48171   0.76920   0.16549   0.00000  Uiso   1.00
H454   H     0.58434   0.76846   0.26843   0.00000  Uiso   1.00
H455   H     0.44706   0.80295   0.30288   0.00000  Uiso   1.00
H456   H     0.48097   0.66572   0.26739   0.00000  Uiso   1.00
H457   H     0.41430   0.67241   0.21887   0.00000  Uiso   1.00
H458   H     0.41783   0.66607   0.28298   0.00000  Uiso   1.00
H459   H     0.60313   0.81236   0.22716   0.00000  Uiso   1.00
H460   H     0.56185   0.85101   0.26927   0.00000  Uiso   1.00
H461   H     0.43965   0.72802   0.14489   0.00000  Uiso   1.00
H462   H     0.40015   0.76993   0.18689   0.00000  Uiso   1.00
H463   H     0.60368   0.72611   0.31116   0.00000  Uiso   1.00
H464   H     0.56270   0.76911   0.34991   0.00000  Uiso   1.00
H465   H     0.48109   0.85122   0.18824   0.00000  Uiso   1.00
H466   H     0.52367   0.81204   0.14611   0.00000  Uiso   1.00
H467   H     0.48181   0.68942   0.35099   0.00000  Uiso   1.00
H468   H     0.52243   0.64688   0.31151   0.00000  Uiso   1.00
O469   O     0.10068   0.70124   0.74626   0.00000  Uiso   1.00
O470   O     0.08736   0.70585   0.81414   0.00000  Uiso   1.00
O471   O     0.00216   0.64926   0.70093   0.00000  Uiso   1.00
O472   O    -0.06213   0.65991   0.70431   0.00000  Uiso   1.00
O473   O     0.04855   0.74747   0.64864   0.00000  Uiso   1.00
O474   O     0.04340   0.81522   0.66234   0.00000  Uiso   1.00
O475   O    -0.10037   0.75536   0.80176   0.00000  Uiso   1.00
O476   O    -0.09013   0.68867   0.79396   0.00000  Uiso   1.00
O477   O    -0.00376   0.80090   0.85067   0.00000  Uiso   1.00
O478   O     0.06594   0.79642   0.83650   0.00000  Uiso   1.00
O479   O    -0.05069   0.85100   0.75591   0.00000  Uiso   1.00
O480   O    -0.04656   0.83761   0.68533   0.00000  Uiso   1.00
O481   O    -0.10076   0.80086   0.75581   0.00000  Uiso   1.00
O482   O    -0.08786   0.79675   0.68578   0.00000  Uiso   1.00
O483   O    -0.00473   0.85077   0.80138   0.00000  Uiso   1.00
O484   O     0.06576   0.83726   0.79484   0.00000  Uiso   1.00
O485   O    -0.05018   0.75576   0.85077   0.00000  Uiso   1.00
O486   O    -0.04435   0.68562   0.83793   0.00000  Uiso   1.00
O487   O     0.10064   0.74734   0.70060   0.00000  Uiso   1.00
O488   O     0.08678   0.81546   0.70579   0.00000  Uiso   1.00
O489   O     0.00282   0.70147   0.64883   0.00000  Uiso   1.00
O490   O    -0.06580   0.70946   0.66306   0.00000  Uiso   1.00
O491   O     0.04832   0.64917   0.74652   0.00000  Uiso   1.00
O492   O     0.04372   0.66302   0.81451   0.00000  Uiso   1.00
Zr493  Zr    0.04553   0.70445   0.77079   0.00000  Uiso   1.00
O494   O     0.01222   0.73847   0.80785   0.00000  Uiso   1.00
Zr495  Zr   -0.02173   0.70472   0.70405   0.00000  Uiso   1.00
O496   O    -0.05828   0.73846   0.73855   0.00000  Uiso   1.00
Zr497  Zr    0.04542   0.77168   0.70394   0.00000  Uiso   1.00
O498   O     0.01177   0.80856   0.73800   0.00000  Uiso   1.00
Zr499  Zr   -0.04604   0.72971   0.79655   0.00000  Uiso   1.00
O500   O    -0.01279   0.69217   0.76228   0.00000  Uiso   1.00
Zr501  Zr    0.02119   0.79656   0.79599   0.00000  Uiso   1.00
O502   O     0.05822   0.76259   0.76199   0.00000  Uiso   1.00
Zr503  Zr   -0.04646   0.79667   0.72969   0.00000  Uiso   1.00
O504   O    -0.01282   0.76297   0.69191   0.00000  Uiso   1.00
O505   O     0.03572   0.71424   0.71344   0.00000  Uiso   1.00
O506   O    -0.03676   0.78749   0.78734   0.00000  Uiso   1.00
X507   C     0.11665   0.71948   0.71856   0.00000  Uiso   1.00
X508   C     0.02994   0.63314   0.71896   0.00000  Uiso   1.00
X509   C     0.03051   0.71961   0.63272   0.00000  Uiso   1.00
X510   C    -0.11643   0.78336   0.78413   0.00000  Uiso   1.00
X511   C    -0.03202   0.78357   0.86647   0.00000  Uiso   1.00
X512   C    -0.03305   0.86667   0.78417   0.00000  Uiso   1.00
H513   H     0.01863   0.73245   0.83459   0.00000  Uiso   1.00
H514   H     0.01777   0.83539   0.73193   0.00000  Uiso   1.00
H515   H     0.05190   0.69789   0.69720   0.00000  Uiso   1.00
H516   H    -0.08526   0.73239   0.73316   0.00000  Uiso   1.00
H517   H    -0.07925   0.66594   0.78123   0.00000  Uiso   1.00
H518   H    -0.08536   0.66949   0.71709   0.00000  Uiso   1.00
H519   H     0.06059   0.85527   0.77377   0.00000  Uiso   1.00
H520   H     0.09969   0.81322   0.73079   0.00000  Uiso   1.00
H521   H    -0.02284   0.69064   0.85544   0.00000  Uiso   1.00
H522   H     0.01851   0.65048   0.81261   0.00000  Uiso   1.00
H523   H    -0.02466   0.85489   0.68943   0.00000  Uiso   1.00
H524   H     0.01794   0.81354   0.65028   0.00000  Uiso   1.00
H525   H     0.09995   0.73104   0.81227   0.00000  Uiso   1.00
H526   H     0.06250   0.77391   0.85312   0.00000  Uiso   1.00
H527   H    -0.06141   0.73356   0.64904   0.00000  Uiso   1.00
H528   H    -0.10417   0.77402   0.68928   0.00000  Uiso   1.00
O529   O     0.00450   0.10116   0.04961   0.00000  Uiso   1.00
O530   O    -0.06335   0.08791   0.04446   0.00000  Uiso   1.00
O531   O     0.04990   0.00261   0.10126   0.00000  Uiso   1.00
O532   O     0.04728  -0.06139   0.09058   0.00000  Uiso   1.00
O533   O     0.10201   0.04969   0.00309   0.00000  Uiso   1.00
O534   O     0.08825   0.04442  -0.06477   0.00000  Uiso   1.00
O535   O    -0.05037  -0.10007  -0.00481   0.00000  Uiso   1.00
O536   O    -0.04260  -0.08972   0.06198   0.00000  Uiso   1.00
O537   O    -0.09989  -0.00424  -0.05046   0.00000  Uiso   1.00
O538   O    -0.08648   0.06513  -0.04695   0.00000  Uiso   1.00
O539   O    -0.00422  -0.05101  -0.10032   0.00000  Uiso   1.00
O540   O     0.06560  -0.04638  -0.08733   0.00000  Uiso   1.00
O541   O    -0.00446  -0.10022  -0.05037   0.00000  Uiso   1.00
O542   O     0.06626  -0.08660  -0.04499   0.00000  Uiso   1.00
O543   O    -0.04989  -0.00525  -0.10047   0.00000  Uiso   1.00
O544   O    -0.04401   0.06584  -0.08678   0.00000  Uiso   1.00
O545   O    -0.09981  -0.05030  -0.00506   0.00000  Uiso   1.00
O546   O    -0.08687  -0.04423   0.06491   0.00000  Uiso   1.00
O547   O     0.05005   0.10138   0.00342   0.00000  Uiso   1.00
O548   O     0.04442   0.08765  -0.06486   0.00000  Uiso   1.00
O549   O     0.10204   0.00401   0.04913   0.00000  Uiso   1.00
O550   O     0.08806  -0.06499   0.04077   0.00000  Uiso   1.00
O551   O     0.00408   0.04854   0.10135   0.00000  Uiso   1.00
O552   O    -0.06407   0.04398   0.08714   0.00000  Uiso   1.00
Zr553  Zr   -0.02011   0.04597   0.04598   0.00000  Uiso   1.00
O554   O    -0.05700   0.01242   0.01191   0.00000  Uiso   1.00
Zr555  Zr    0.04699  -0.02101   0.04576   0.00000  Uiso   1.00
O556   O     0.01261  -0.05779   0.01218   0.00000  Uiso   1.00
Zr557  Zr    0.04670   0.04621  -0.02117   0.00000  Uiso   1.00
O558   O     0.01292   0.01217  -0.05802   0.00000  Uiso   1.00
Zr559  Zr   -0.04547  -0.04576   0.02084   0.00000  Uiso   1.00
O560   O    -0.01131  -0.01231   0.05829   0.00000  Uiso   1.00
Zr561  Zr   -0.04520   0.02111  -0.04625   0.00000  Uiso   1.00
O562   O    -0.01149   0.05852  -0.01223   0.00000  Uiso   1.00
Zr563  Zr    0.02163  -0.04597  -0.04598   0.00000  Uiso   1.00
O564   O     0.05917  -0.01195  -0.01244   0.00000  Uiso   1.00
O565   O     0.03726   0.03639   0.03625   0.00000  Uiso   1.00
O566   O    -0.03616  -0.03667  -0.03696   0.00000  Uiso   1.00
X567   C     0.03225   0.11724   0.03149   0.00000  Uiso   1.00
X568   C     0.03170   0.03023   0.11740   0.00000  Uiso   1.00
X569   C     0.11800   0.03182   0.03102   0.00000  Uiso   1.00
X570   C    -0.03276  -0.11594  -0.03292   0.00000  Uiso   1.00
X571   C    -0.11576  -0.03248  -0.03300   0.00000  Uiso   1.00
X572   C    -0.03250  -0.03363  -0.11616   0.00000  Uiso   1.00
H573   H    -0.08378   0.01870   0.01788   0.00000  Uiso   1.00
H574   H     0.01900   0.01813  -0.08487   0.00000  Uiso   1.00
H575   H     0.05341   0.05256   0.05268   0.00000  Uiso   1.00
H576   H     0.01811  -0.08474   0.01830   0.00000  Uiso   1.00
H577   H    -0.02993  -0.07870   0.08468   0.00000  Uiso   1.00
H578   H     0.03423  -0.08456   0.08121   0.00000  Uiso   1.00
H579   H    -0.02332   0.06041  -0.10515   0.00000  Uiso   1.00
H580   H     0.01942   0.10051  -0.06239   0.00000  Uiso   1.00
H581   H    -0.10434  -0.02266   0.05998   0.00000  Uiso   1.00
H582   H    -0.06194   0.01890   0.09991   0.00000  Uiso   1.00
H583   H     0.06228  -0.02368  -0.10371   0.00000  Uiso   1.00
H584   H     0.10059   0.01910  -0.06298   0.00000  Uiso   1.00
H585   H    -0.06150   0.10035   0.01920   0.00000  Uiso   1.00
H586   H    -0.10184   0.06289  -0.02342   0.00000  Uiso   1.00
H587   H     0.10258  -0.06004   0.01707   0.00000  Uiso   1.00
H588   H     0.06137  -0.10434  -0.02363   0.00000  Uiso   1.00
O589   O     0.10035   0.54984   0.50294   0.00000  Uiso   1.00
O590   O     0.08661   0.54511   0.43511   0.00000  Uiso   1.00
O591   O     0.00231   0.60176   0.54897   0.00000  Uiso   1.00
O592   O    -0.06213   0.59140   0.54517   0.00000  Uiso   1.00
O593   O     0.04832   0.50368   0.60116   0.00000  Uiso   1.00
O594   O     0.04362   0.43590   0.58733   0.00000  Uiso   1.00
O595   O    -0.10067   0.49502   0.44837   0.00000  Uiso   1.00
O596   O    -0.09075   0.56190   0.45588   0.00000  Uiso   1.00
O597   O    -0.00526   0.44902   0.39963   0.00000  Uiso   1.00
O598   O     0.06536   0.45518   0.41306   0.00000  Uiso   1.00
O599   O    -0.05048   0.39991   0.49484   0.00000  Uiso   1.00
O600   O    -0.04637   0.41379   0.56521   0.00000  Uiso   1.00
O601   O    -0.10071   0.44956   0.49438   0.00000  Uiso   1.00
O602   O    -0.08793   0.45453   0.56446   0.00000  Uiso   1.00
O603   O    -0.00425   0.39983   0.44952   0.00000  Uiso   1.00
O604   O     0.06554   0.41385   0.45427   0.00000  Uiso   1.00
O605   O    -0.05134   0.49438   0.39937   0.00000  Uiso   1.00
O606   O    -0.04480   0.56497   0.41180   0.00000  Uiso   1.00
O607   O     0.10048   0.50405   0.54891   0.00000  Uiso   1.00
O608   O     0.08695   0.43598   0.54403   0.00000  Uiso   1.00
O609   O     0.00245   0.54954   0.60101   0.00000  Uiso   1.00
O610   O    -0.06609   0.54193   0.58662   0.00000  Uiso   1.00
O611   O     0.04822   0.60178   0.50312   0.00000  Uiso   1.00
O612   O     0.04292   0.58806   0.43509   0.00000  Uiso   1.00
Zr613  Zr    0.04508   0.54656   0.47873   0.00000  Uiso   1.00
O614   O     0.01168   0.51239   0.44179   0.00000  Uiso   1.00
Zr615  Zr   -0.02192   0.54643   0.54571   0.00000  Uiso   1.00
O616   O    -0.05853   0.51252   0.51144   0.00000  Uiso   1.00
Zr617  Zr    0.04535   0.47954   0.54581   0.00000  Uiso   1.00
O618   O     0.01170   0.44259   0.51195   0.00000  Uiso   1.00
Zr619  Zr   -0.04653   0.52102   0.45333   0.00000  Uiso   1.00
O620   O    -0.01324   0.55875   0.48739   0.00000  Uiso   1.00
Zr621  Zr    0.02084   0.45440   0.45384   0.00000  Uiso   1.00
O622   O     0.05791   0.48847   0.48768   0.00000  Uiso   1.00
Zr623  Zr   -0.04651   0.45440   0.52055   0.00000  Uiso   1.00
O624   O    -0.01284   0.48826   0.55807   0.00000  Uiso   1.00
O625   O     0.03551   0.53691   0.53618   0.00000  Uiso   1.00
O626   O    -0.03704   0.46335   0.46282   0.00000  Uiso   1.00
X627   C     0.11640   0.53179   0.53071   0.00000  Uiso   1.00
X628   C     0.03014   0.61777   0.53092   0.00000  Uiso   1.00
X629   C     0.03008   0.53136   0.61718   0.00000  Uiso   1.00
X630   C    -0.11644   0.46684   0.46597   0.00000  Uiso   1.00
X631   C    -0.03375   0.46607   0.38381   0.00000  Uiso   1.00
X632   C    -0.03244   0.38409   0.46699   0.00000  Uiso   1.00
H633   H     0.01791   0.51831   0.41498   0.00000  Uiso   1.00
H634   H     0.01782   0.41580   0.51813   0.00000  Uiso   1.00
H635   H     0.05172   0.55318   0.55246   0.00000  Uiso   1.00
H636   H    -0.08552   0.51855   0.51687   0.00000  Uiso   1.00
H637   H    -0.07986   0.58479   0.46831   0.00000  Uiso   1.00
H638   H    -0.08541   0.58180   0.53249   0.00000  Uiso   1.00
H639   H     0.06184   0.39714   0.47667   0.00000  Uiso   1.00
H640   H     0.09986   0.43828   0.51904   0.00000  Uiso   1.00
H641   H    -0.02414   0.55919   0.39351   0.00000  Uiso   1.00
H642   H     0.01764   0.60043   0.43707   0.00000  Uiso   1.00
H643   H    -0.02436   0.39663   0.56123   0.00000  Uiso   1.00
H644   H     0.01832   0.43767   0.59971   0.00000  Uiso   1.00
H645   H     0.09892   0.51976   0.43667   0.00000  Uiso   1.00
H646   H     0.06024   0.47617   0.39494   0.00000  Uiso   1.00
H647   H    -0.06193   0.51774   0.60054   0.00000  Uiso   1.00
H648   H    -0.10465   0.47689   0.56050   0.00000  Uiso   1.00
O649   O     0.60142   0.04910   0.50422   0.00000  Uiso   1.00
O650   O     0.58803   0.04369   0.43596   0.00000  Uiso   1.00
O651   O     0.50358   0.10120   0.54933   0.00000  Uiso   1.00
O652   O     0.43933   0.09107   0.54702   0.00000  Uiso   1.00
O653   O     0.54986   0.00257   0.60153   0.00000  Uiso   1.00
O654   O     0.54398  -0.06525   0.58745   0.00000  Uiso   1.00
O655   O     0.39995  -0.00436   0.44873   0.00000  Uiso   1.00
O656   O     0.41042   0.06257   0.45731   0.00000  Uiso   1.00
O657   O     0.49472  -0.05040   0.39978   0.00000  Uiso   1.00
O658   O     0.56564  -0.04526   0.41346   0.00000  Uiso   1.00
O659   O     0.44968  -0.10021   0.49574   0.00000  Uiso   1.00
O660   O     0.45285  -0.08686   0.56503   0.00000  Uiso   1.00
O661   O     0.39968  -0.05008   0.49447   0.00000  Uiso   1.00
O662   O     0.41299  -0.04440   0.56544   0.00000  Uiso   1.00
O663   O     0.49556  -0.10039   0.45006   0.00000  Uiso   1.00
O664   O     0.56490  -0.08731   0.45362   0.00000  Uiso   1.00
O665   O     0.44906  -0.00462   0.39985   0.00000  Uiso   1.00
O666   O     0.45619   0.06556   0.41286   0.00000  Uiso   1.00
O667   O     0.60131   0.00303   0.54991   0.00000  Uiso   1.00
O668   O     0.58747  -0.06520   0.54368   0.00000  Uiso   1.00
O669   O     0.50440   0.04884   0.60163   0.00000  Uiso   1.00
O670   O     0.43534   0.04132   0.58762   0.00000  Uiso   1.00
O671   O     0.54946   0.10104   0.50344   0.00000  Uiso   1.00
O672   O     0.54482   0.08720   0.43564   0.00000  Uiso   1.00
Zr673  Zr    0.54629   0.04578   0.47937   0.00000  Uiso   1.00
O674   O     0.51237   0.01219   0.44236   0.00000  Uiso   1.00
Zr675  Zr    0.47934   0.04591   0.54653   0.00000  Uiso   1.00
O676   O     0.44226   0.01262   0.51213   0.00000  Uiso   1.00
Zr677  Zr    0.54615  -0.02140   0.54618   0.00000  Uiso   1.00
O678   O     0.51198  -0.05780   0.51224   0.00000  Uiso   1.00
Zr679  Zr    0.45425   0.02131   0.45406   0.00000  Uiso   1.00
O680   O     0.48806   0.05845   0.48824   0.00000  Uiso   1.00
Zr681  Zr    0.52099  -0.04592   0.45410   0.00000  Uiso   1.00
O682   O     0.55861  -0.01245   0.48803   0.00000  Uiso   1.00
Zr683  Zr    0.45384  -0.04560   0.52100   0.00000  Uiso   1.00
O684   O     0.48804  -0.01235   0.55864   0.00000  Uiso   1.00
O685   O     0.53663   0.03605   0.53675   0.00000  Uiso   1.00
O686   O     0.46321  -0.03652   0.46324   0.00000  Uiso   1.00
X687   C     0.61726   0.03106   0.53217   0.00000  Uiso   1.00
X688   C     0.53137   0.11712   0.53114   0.00000  Uiso   1.00
X689   C     0.53212   0.03052   0.61759   0.00000  Uiso   1.00
X690   C     0.38404  -0.03261   0.46609   0.00000  Uiso   1.00
X691   C     0.46643  -0.03289   0.38403   0.00000  Uiso   1.00
X692   C     0.46756  -0.11611   0.46786   0.00000  Uiso   1.00
H693   H     0.51861   0.01819   0.41557   0.00000  Uiso   1.00
H694   H     0.51789  -0.08466   0.51831   0.00000  Uiso   1.00
H695   H     0.55282   0.05237   0.55298   0.00000  Uiso   1.00
H696   H     0.41534   0.01885   0.51765   0.00000  Uiso   1.00
H697   H     0.42166   0.08530   0.46971   0.00000  Uiso   1.00
H698   H     0.41613   0.08195   0.53385   0.00000  Uiso   1.00
H699   H     0.56245  -0.10270   0.47711   0.00000  Uiso   1.00
H700   H     0.60082  -0.06223   0.51899   0.00000  Uiso   1.00
H701   H     0.47701   0.05994   0.39471   0.00000  Uiso   1.00
H702   H     0.51955   0.09965   0.43731   0.00000  Uiso   1.00
H703   H     0.47630  -0.10234   0.56279   0.00000  Uiso   1.00
H704   H     0.51904  -0.06278   0.60043   0.00000  Uiso   1.00
H705   H     0.60057   0.01850   0.43812   0.00000  Uiso   1.00
H706   H     0.56073  -0.02414   0.39545   0.00000  Uiso   1.00
H707   H     0.43985   0.01736   0.60183   0.00000  Uiso   1.00
H708   H     0.39506  -0.02329   0.56020   0.00000  Uiso   1.00
O709   O     0.50347   0.60101   0.04920   0.00000  Uiso   1.00
O710   O     0.43531   0.58746   0.04398   0.00000  Uiso   1.00
O711   O     0.54895   0.50312   0.10113   0.00000  Uiso   1.00
O712   O     0.54598   0.43882   0.09095   0.00000  Uiso   1.00
O713   O     0.60105   0.54929   0.00266   0.00000  Uiso   1.00
O714   O     0.58704   0.54401  -0.06512   0.00000  Uiso   1.00
O715   O     0.44873   0.39960  -0.00508   0.00000  Uiso   1.00
O716   O     0.45652   0.40993   0.06198   0.00000  Uiso   1.00
O717   O     0.39941   0.49505  -0.05084   0.00000  Uiso   1.00
O718   O     0.41282   0.56532  -0.04587   0.00000  Uiso   1.00
O719   O     0.49487   0.44922  -0.10018   0.00000  Uiso   1.00
O720   O     0.56509   0.45379  -0.08677   0.00000  Uiso   1.00
O721   O     0.49461   0.39960  -0.05066   0.00000  Uiso   1.00
O722   O     0.56493   0.41275  -0.04527   0.00000  Uiso   1.00
O723   O     0.44921   0.49509  -0.10028   0.00000  Uiso   1.00
O724   O     0.45420   0.56538  -0.08694   0.00000  Uiso   1.00
O725   O     0.39929   0.44920  -0.00524   0.00000  Uiso   1.00
O726   O     0.41205   0.45531   0.06483   0.00000  Uiso   1.00
O727   O     0.54921   0.60105   0.00318   0.00000  Uiso   1.00
O728   O     0.54341   0.58738  -0.06499   0.00000  Uiso   1.00
O729   O     0.60107   0.50369   0.04879   0.00000  Uiso   1.00
O730   O     0.58697   0.43485   0.04132   0.00000  Uiso   1.00
O731   O     0.50304   0.54897   0.10107   0.00000  Uiso   1.00
O732   O     0.43514   0.54404   0.08731   0.00000  Uiso   1.00
Zr733  Zr    0.47882   0.54582   0.04584   0.00000  Uiso   1.00
O734   O     0.44191   0.51209   0.01199   0.00000  Uiso   1.00
Zr735  Zr    0.54592   0.47889   0.04585   0.00000  Uiso   1.00
O736   O     0.51166   0.44198   0.01227   0.00000  Uiso   1.00
Zr737  Zr    0.54570   0.54592  -0.02132   0.00000  Uiso   1.00
O738   O     0.51186   0.51193  -0.05800   0.00000  Uiso   1.00
Zr739  Zr    0.45355   0.45390   0.02084   0.00000  Uiso   1.00
O740   O     0.48760   0.48754   0.05827   0.00000  Uiso   1.00
Zr741  Zr    0.45376   0.52095  -0.04607   0.00000  Uiso   1.00
O742   O     0.48756   0.55838  -0.01232   0.00000  Uiso   1.00
Zr743  Zr    0.52069   0.45381  -0.04588   0.00000  Uiso   1.00
O744   O     0.55818   0.48781  -0.01235   0.00000  Uiso   1.00
O745   O     0.53622   0.53623   0.03611   0.00000  Uiso   1.00
O746   O     0.46291   0.46315  -0.03686   0.00000  Uiso   1.00
X747   C     0.53134   0.61695   0.03115   0.00000  Uiso   1.00
X748   C     0.53082   0.53092   0.11708   0.00000  Uiso   1.00
X749   C     0.61708   0.53135   0.03051   0.00000  Uiso   1.00
X750   C     0.46630   0.38381  -0.03329   0.00000  Uiso   1.00
X751   C     0.38355   0.46677  -0.03346   0.00000  Uiso   1.00
X752   C     0.46671   0.46683  -0.11586   0.00000  Uiso   1.00
H753   H     0.41511   0.51831   0.01796   0.00000  Uiso   1.00
H754   H     0.51794   0.51790  -0.08484   0.00000  Uiso   1.00
H755   H     0.55248   0.55242   0.05240   0.00000  Uiso   1.00
H756   H     0.51719   0.41504   0.01841   0.00000  Uiso   1.00
H757   H     0.46897   0.42104   0.08476   0.00000  Uiso   1.00
H758   H     0.53311   0.41553   0.08160   0.00000  Uiso   1.00
H759   H     0.47617   0.56118  -0.10409   0.00000  Uiso   1.00
H760   H     0.51846   0.60033  -0.06244   0.00000  Uiso   1.00
H761   H     0.39454   0.47683   0.05987   0.00000  Uiso   1.00
H762   H     0.43695   0.51875   0.09971   0.00000  Uiso   1.00
H763   H     0.56113   0.47585  -0.10387   0.00000  Uiso   1.00
H764   H     0.59959   0.51881  -0.06315   0.00000  Uiso   1.00
H765   H     0.43736   0.60004   0.01880   0.00000  Uiso   1.00
H766   H     0.39568   0.56123  -0.02386   0.00000  Uiso   1.00
H767   H     0.60107   0.43922   0.01726   0.00000  Uiso   1.00
H768   H     0.56049   0.39555  -0.02338   0.00000  Uiso   1.00
O769   O     0.80033   0.35084   0.49593   0.00000  Uiso   1.00
O770   O     0.79519   0.33744   0.56385   0.00000  Uiso   1.00
O771   O     0.85196   0.25273   0.45025   0.00000  Uiso   1.00
O772   O     0.84169   0.18840   0.45364   0.00000  Uiso   1.00
O773   O     0.75412   0.29916   0.39826   0.00000  Uiso   1.00
O774   O     0.68624   0.29395   0.41181   0.00000  Uiso   1.00
O775   O     0.74597   0.14982   0.55127   0.00000  Uiso   1.00
O776   O     0.81276   0.15990   0.54294   0.00000  Uiso   1.00
O777   O     0.70024   0.24547   0.59986   0.00000  Uiso   1.00
O778   O     0.70477   0.31554   0.58618   0.00000  Uiso   1.00
O779   O     0.65029   0.19959   0.50407   0.00000  Uiso   1.00
O780   O     0.66370   0.20273   0.43472   0.00000  Uiso   1.00
O781   O     0.70031   0.14957   0.50536   0.00000  Uiso   1.00
O782   O     0.70606   0.16280   0.43434   0.00000  Uiso   1.00
O783   O     0.65028   0.24547   0.54972   0.00000  Uiso   1.00
O784   O     0.66394   0.31555   0.54483   0.00000  Uiso   1.00
O785   O     0.74595   0.19961   0.60008   0.00000  Uiso   1.00
O786   O     0.81594   0.20569   0.58713   0.00000  Uiso   1.00
O787   O     0.75436   0.35093   0.45015   0.00000  Uiso   1.00
O788   O     0.68599   0.33718   0.45556   0.00000  Uiso   1.00
O789   O     0.80005   0.25335   0.39838   0.00000  Uiso   1.00
O790   O     0.79195   0.18452   0.41245   0.00000  Uiso   1.00
O791   O     0.85196   0.29872   0.49603   0.00000  Uiso   1.00
O792   O     0.83817   0.29371   0.56421   0.00000  Uiso   1.00
Zr793  Zr    0.79680   0.29569   0.52044   0.00000  Uiso   1.00
O794   O     0.76280   0.26219   0.55733   0.00000  Uiso   1.00
Zr795  Zr    0.79669   0.22858   0.45346   0.00000  Uiso   1.00
O796   O     0.76308   0.19182   0.48782   0.00000  Uiso   1.00
Zr797  Zr    0.72974   0.29579   0.45347   0.00000  Uiso   1.00
O798   O     0.69296   0.26187   0.48728   0.00000  Uiso   1.00
Zr799  Zr    0.77176   0.20401   0.54584   0.00000  Uiso   1.00
O800   O     0.80924   0.23742   0.51172   0.00000  Uiso   1.00
Zr801  Zr    0.70473   0.27105   0.54537   0.00000  Uiso   1.00
O802   O     0.73866   0.30835   0.51159   0.00000  Uiso   1.00
Zr803  Zr    0.70493   0.20365   0.47877   0.00000  Uiso   1.00
O804   O     0.73849   0.23759   0.44118   0.00000  Uiso   1.00
O805   O     0.78707   0.28597   0.46309   0.00000  Uiso   1.00
O806   O     0.71396   0.21319   0.53651   0.00000  Uiso   1.00
X807   C     0.78233   0.36681   0.46807   0.00000  Uiso   1.00
X808   C     0.86788   0.28064   0.46822   0.00000  Uiso   1.00
X809   C     0.78206   0.28120   0.38240   0.00000  Uiso   1.00
X810   C     0.71783   0.13401   0.53371   0.00000  Uiso   1.00
X811   C     0.71787   0.21739   0.61571   0.00000  Uiso   1.00
X812   C     0.63447   0.21744   0.53201   0.00000  Uiso   1.00
H813   H     0.76877   0.26852   0.58411   0.00000  Uiso   1.00
H814   H     0.66614   0.26787   0.48111   0.00000  Uiso   1.00
H815   H     0.80339   0.30219   0.44688   0.00000  Uiso   1.00
H816   H     0.76920   0.16486   0.48240   0.00000  Uiso   1.00
H817   H     0.83555   0.17089   0.53041   0.00000  Uiso   1.00
H818   H     0.83217   0.16504   0.46624   0.00000  Uiso   1.00
H819   H     0.64709   0.31159   0.52258   0.00000  Uiso   1.00
H820   H     0.68863   0.35036   0.48038   0.00000  Uiso   1.00
H821   H     0.81100   0.22726   0.60459   0.00000  Uiso   1.00
H822   H     0.85106   0.26871   0.56191   0.00000  Uiso   1.00
H823   H     0.64831   0.22625   0.43688   0.00000  Uiso   1.00
H824   H     0.68832   0.26878   0.39922   0.00000  Uiso   1.00
H825   H     0.76995   0.34994   0.56196   0.00000  Uiso   1.00
H826   H     0.72704   0.31182   0.60306   0.00000  Uiso   1.00
H827   H     0.76805   0.18914   0.39817   0.00000  Uiso   1.00
H828   H     0.72708   0.14477   0.43964   0.00000  Uiso   1.00
O829   O     0.85206   0.75446  -0.04898   0.00000  Uiso   1.00
O830   O     0.83832   0.68628  -0.04439   0.00000  Uiso   1.00
O831   O     0.75468   0.80015  -0.10178   0.00000  Uiso   1.00
O832   O     0.69018   0.79707  -0.09195   0.00000  Uiso   1.00
O833   O     0.80017   0.85203  -0.00288   0.00000  Uiso   1.00
O834   O     0.79425   0.83791   0.06491   0.00000  Uiso   1.00
O835   O     0.65047   0.69962   0.00401   0.00000  Uiso   1.00
O836   O     0.66091   0.70808  -0.06311   0.00000  Uiso   1.00
O837   O     0.74581   0.65013   0.04943   0.00000  Uiso   1.00
O838   O     0.81585   0.66375   0.04556   0.00000  Uiso   1.00
O839   O     0.69964   0.74589   0.09942   0.00000  Uiso   1.00
O840   O     0.70440   0.81623   0.08575   0.00000  Uiso   1.00
O841   O     0.65012   0.74575   0.04944   0.00000  Uiso   1.00
O842   O     0.66317   0.81574   0.04458   0.00000  Uiso   1.00
O843   O     0.74537   0.70007   0.09960   0.00000  Uiso   1.00
O844   O     0.81566   0.70491   0.08655   0.00000  Uiso   1.00
O845   O     0.70011   0.65018   0.00357   0.00000  Uiso   1.00
O846   O     0.70611   0.66329  -0.06596   0.00000  Uiso   1.00
O847   O     0.85182   0.80020  -0.00297   0.00000  Uiso   1.00
O848   O     0.83775   0.79435   0.06496   0.00000  Uiso   1.00
O849   O     0.75483   0.85214  -0.04926   0.00000  Uiso   1.00
O850   O     0.68603   0.83818  -0.04240   0.00000  Uiso   1.00
O851   O     0.80069   0.75451  -0.10140   0.00000  Uiso   1.00
O852   O     0.79525   0.68651  -0.08804   0.00000  Uiso   1.00
Zr853  Zr    0.79684   0.72995  -0.04631   0.00000  Uiso   1.00
O854   O     0.76290   0.69302  -0.01272   0.00000  Uiso   1.00
Zr855  Zr    0.72999   0.79702  -0.04662   0.00000  Uiso   1.00
O856   O     0.69289   0.76278  -0.01322   0.00000  Uiso   1.00
Zr857  Zr    0.79655   0.79666   0.02104   0.00000  Uiso   1.00
O858   O     0.76241   0.76273   0.05747   0.00000  Uiso   1.00
Zr859  Zr    0.70476   0.70468  -0.02188   0.00000  Uiso   1.00
O860   O     0.73865   0.73873  -0.05911   0.00000  Uiso   1.00
Zr861  Zr    0.77145   0.70466   0.04544   0.00000  Uiso   1.00
O862   O     0.80906   0.73854   0.01196   0.00000  Uiso   1.00
Zr863  Zr    0.70440   0.77165   0.04505   0.00000  Uiso   1.00
O864   O     0.73852   0.80917   0.01168   0.00000  Uiso   1.00
O865   O     0.78724   0.78731  -0.03648   0.00000  Uiso   1.00
O866   O     0.71369   0.71385   0.03597   0.00000  Uiso   1.00
X867   C     0.86788   0.78231  -0.03081   0.00000  Uiso   1.00
X868   C     0.78282   0.78233  -0.11762   0.00000  Uiso   1.00
X869   C     0.78242   0.86809  -0.03082   0.00000  Uiso   1.00
X870   C     0.63459   0.71740   0.03201   0.00000  Uiso   1.00
X871   C     0.71781   0.63433   0.03160   0.00000  Uiso   1.00
X872   C     0.71722   0.71775   0.11521   0.00000  Uiso   1.00
H873   H     0.76919   0.66625  -0.01876   0.00000  Uiso   1.00
H874   H     0.76826   0.76876   0.08435   0.00000  Uiso   1.00
H875   H     0.80358   0.80358  -0.05262   0.00000  Uiso   1.00
H876   H     0.66598   0.76835  -0.01948   0.00000  Uiso   1.00
H877   H     0.67220   0.72033  -0.08591   0.00000  Uiso   1.00
H878   H     0.66674   0.78445  -0.08265   0.00000  Uiso   1.00
H879   H     0.81147   0.72692   0.10365   0.00000  Uiso   1.00
H880   H     0.85062   0.76935   0.06254   0.00000  Uiso   1.00
H881   H     0.72843   0.64660  -0.06179   0.00000  Uiso   1.00
H882   H     0.77018   0.68865  -0.10084   0.00000  Uiso   1.00
H883   H     0.72614   0.81203   0.10320   0.00000  Uiso   1.00
H884   H     0.76921   0.85071   0.06254   0.00000  Uiso   1.00
H885   H     0.85091   0.68832  -0.01921   0.00000  Uiso   1.00
H886   H     0.81237   0.64712   0.02306   0.00000  Uiso   1.00
H887   H     0.69009   0.85206  -0.01816   0.00000  Uiso   1.00
H888   H     0.64664   0.81189   0.02207   0.00000  Uiso   1.00
O889   O     1.10246   0.19994   0.24619   0.00000  Uiso   1.00
O890   O     1.08866   0.20489   0.31399   0.00000  Uiso   1.00
O891   O     1.00405   0.14796   0.20049   0.00000  Uiso   1.00
O892   O     0.93992   0.15873   0.20263   0.00000  Uiso   1.00
O893   O     1.05129   0.24593   0.14819   0.00000  Uiso   1.00
O894   O     1.04583   0.31389   0.16180   0.00000  Uiso   1.00
O895   O     0.90106   0.25436   0.30003   0.00000  Uiso   1.00
O896   O     0.91121   0.18738   0.29202   0.00000  Uiso   1.00
O897   O     0.99675   0.29959   0.34978   0.00000  Uiso   1.00
O898   O     1.06688   0.29515   0.33612   0.00000  Uiso   1.00
O899   O     0.95051   0.34948   0.25463   0.00000  Uiso   1.00
O900   O     0.95597   0.33638   0.18398   0.00000  Uiso   1.00
O901   O     0.90101   0.29976   0.25386   0.00000  Uiso   1.00
O902   O     0.91460   0.29519   0.18384   0.00000  Uiso   1.00
O903   O     0.99617   0.34943   0.30050   0.00000  Uiso   1.00
O904   O     1.06673   0.33632   0.29477   0.00000  Uiso   1.00
O905   O     0.95047   0.25430   0.34948   0.00000  Uiso   1.00
O906   O     0.95647   0.18435   0.33666   0.00000  Uiso   1.00
O907   O     1.10273   0.24593   0.20053   0.00000  Uiso   1.00
O908   O     1.08898   0.31406   0.20554   0.00000  Uiso   1.00
O909   O     1.00553   0.20008   0.14801   0.00000  Uiso   1.00
O910   O     0.93670   0.20823   0.16160   0.00000  Uiso   1.00
O911   O     1.04989   0.14796   0.24640   0.00000  Uiso   1.00
O912   O     1.04510   0.16202   0.31422   0.00000  Uiso   1.00
Zr913  Zr    1.04711   0.20331   0.27038   0.00000  Uiso   1.00
O914   O     1.01339   0.23726   0.30713   0.00000  Uiso   1.00
Zr915  Zr    0.98039   0.20347   0.20299   0.00000  Uiso   1.00
O916   O     0.94351   0.23717   0.23713   0.00000  Uiso   1.00
Zr917  Zr    1.04755   0.27036   0.20342   0.00000  Uiso   1.00
O918   O     1.01359   0.30726   0.23719   0.00000  Uiso   1.00
Zr919  Zr    0.95525   0.22842   0.29525   0.00000  Uiso   1.00
O920   O     0.98887   0.19096   0.26132   0.00000  Uiso   1.00
Zr921  Zr    1.02240   0.29534   0.29532   0.00000  Uiso   1.00
O922   O     1.05980   0.26144   0.26162   0.00000  Uiso   1.00
Zr923  Zr    0.95547   0.29535   0.22825   0.00000  Uiso   1.00
O924   O     0.98945   0.26166   0.19081   0.00000  Uiso   1.00
O925   O     1.03776   0.21294   0.21292   0.00000  Uiso   1.00
O926   O     0.96462   0.28616   0.28601   0.00000  Uiso   1.00
X927   C     1.11867   0.21797   0.21845   0.00000  Uiso   1.00
X928   C     1.03161   0.13186   0.21883   0.00000  Uiso   1.00
X929   C     1.03351   0.21798   0.13206   0.00000  Uiso   1.00
X930   C     0.88532   0.28235   0.28216   0.00000  Uiso   1.00
X931   C     0.96839   0.28217   0.36535   0.00000  Uiso   1.00
X932   C     0.96785   0.36504   0.28307   0.00000  Uiso   1.00
H933   H     1.01955   0.23125   0.33393   0.00000  Uiso   1.00
H934   H     1.01963   0.33409   0.23117   0.00000  Uiso   1.00
H935   H     1.05403   0.19650   0.19687   0.00000  Uiso   1.00
H936   H     0.91658   0.23110   0.23150   0.00000  Uiso   1.00
H937   H     0.92231   0.16459   0.27960   0.00000  Uiso   1.00
H938   H     0.91666   0.16820   0.21545   0.00000  Uiso   1.00
H939   H     1.06191   0.35409   0.27341   0.00000  Uiso   1.00
H940   H     1.10144   0.31203   0.23078   0.00000  Uiso   1.00
H941   H     0.97797   0.18922   0.35422   0.00000  Uiso   1.00
H942   H     1.01986   0.14953   0.31227   0.00000  Uiso   1.00
H943   H     0.97754   0.35392   0.18863   0.00000  Uiso   1.00
H944   H     1.02054   0.31208   0.14941   0.00000  Uiso   1.00
H945   H     1.10124   0.23009   0.31212   0.00000  Uiso   1.00
H946   H     1.06306   0.27289   0.35299   0.00000  Uiso   1.00
H947   H     0.94137   0.23220   0.14744   0.00000  Uiso   1.00
H948   H     0.89797   0.27272   0.18751   0.00000  Uiso   1.00
O949   O     0.75435   0.95131   0.85176   0.00000  Uiso   1.00
O950   O     0.68609   0.95592   0.83802   0.00000  Uiso   1.00
O951   O     0.79979   0.89859   0.75374   0.00000  Uiso   1.00
O952   O     0.79648   0.90865   0.68938   0.00000  Uiso   1.00
O953   O     0.85176   0.99659   0.80001   0.00000  Uiso   1.00
O954   O     0.83815   1.06475   0.79357   0.00000  Uiso   1.00
O955   O     0.69919   1.00468   0.65009   0.00000  Uiso   1.00
O956   O     0.70752   0.93749   0.66052   0.00000  Uiso   1.00
O957   O     0.64995   1.05018   0.74540   0.00000  Uiso   1.00
O958   O     0.66377   1.04554   0.81583   0.00000  Uiso   1.00
O959   O     0.74595   1.09999   0.69975   0.00000  Uiso   1.00
O960   O     0.81577   1.08635   0.70367   0.00000  Uiso   1.00
O961   O     0.74502   1.05031   0.65000   0.00000  Uiso   1.00
O962   O     0.81553   1.04461   0.66295   0.00000  Uiso   1.00
O963   O     0.70008   1.10010   0.74543   0.00000  Uiso   1.00
O964   O     0.70453   1.08698   0.81538   0.00000  Uiso   1.00
O965   O     0.64984   1.00442   0.69970   0.00000  Uiso   1.00
O966   O     0.66281   0.93469   0.70578   0.00000  Uiso   1.00
O967   O     0.80005   0.99736   0.85153   0.00000  Uiso   1.00
O968   O     0.79463   1.06518   0.83728   0.00000  Uiso   1.00
O969   O     0.85166   0.95045   0.75443   0.00000  Uiso   1.00
O970   O     0.83781   0.95835   0.68547   0.00000  Uiso   1.00
O971   O     0.75416   0.89880   0.79987   0.00000  Uiso   1.00
O972   O     0.68623   0.91231   0.79502   0.00000  Uiso   1.00
Zr973  Zr    0.72970   0.95401   0.79648   0.00000  Uiso   1.00
O974   O     0.69271   0.98770   0.76260   0.00000  Uiso   1.00
Zr975  Zr    0.79664   0.95380   0.72940   0.00000  Uiso   1.00
O976   O     0.76235   0.98730   0.69242   0.00000  Uiso   1.00
Zr977  Zr    0.79661   1.02117   0.79617   0.00000  Uiso   1.00
O978   O     0.76259   1.05770   0.76219   0.00000  Uiso   1.00
Zr979  Zr    0.70425   0.97872   0.70439   0.00000  Uiso   1.00
O980   O     0.73834   0.94141   0.73819   0.00000  Uiso   1.00
Zr981  Zr    0.70446   1.04581   0.77124   0.00000  Uiso   1.00
O982   O     0.73844   1.01225   0.80873   0.00000  Uiso   1.00
Zr983  Zr    0.77136   1.04548   0.70409   0.00000  Uiso   1.00
O984   O     0.80896   1.01202   0.73808   0.00000  Uiso   1.00
O985   O     0.78701   0.96373   0.78674   0.00000  Uiso   1.00
O986   O     0.71355   1.03650   0.71345   0.00000  Uiso   1.00
X987   C     0.78215   0.96957   0.86765   0.00000  Uiso   1.00
X988   C     0.78189   0.88274   0.78174   0.00000  Uiso   1.00
X989   C     0.86761   0.96848   0.78230   0.00000  Uiso   1.00
X990   C     0.71666   1.03295   0.63427   0.00000  Uiso   1.00
X991   C     0.63400   1.03259   0.71728   0.00000  Uiso   1.00
X992   C     0.71785   1.11577   0.71738   0.00000  Uiso   1.00
H993   H     0.66593   0.98171   0.76888   0.00000  Uiso   1.00
H994   H     0.76867   1.08456   0.76810   0.00000  Uiso   1.00
H995   H     0.80312   0.94749   0.80312   0.00000  Uiso   1.00
H996   H     0.76784   0.98112   0.66548   0.00000  Uiso   1.00
H997   H     0.71987   0.91473   0.67176   0.00000  Uiso   1.00
H998   H     0.78407   0.91815   0.66591   0.00000  Uiso   1.00
H999   H     0.72702   1.10357   0.81170   0.00000  Uiso   1.00
H1000  H     0.76959   1.06300   0.85012   0.00000  Uiso   1.00
H1001  H     0.64584   0.93916   0.72783   0.00000  Uiso   1.00
H1002  H     0.68796   0.89989   0.76974   0.00000  Uiso   1.00
H1003  H     0.81265   1.10270   0.72642   0.00000  Uiso   1.00
H1004  H     0.85124   1.06188   0.76874   0.00000  Uiso   1.00
H1005  H     0.68809   0.98114   0.85052   0.00000  Uiso   1.00
H1006  H     0.64638   1.02375   0.81161   0.00000  Uiso   1.00
H1007  H     0.85202   0.98232   0.68998   0.00000  Uiso   1.00
H1008  H     0.81083   1.02288   0.64562   0.00000  Uiso   1.00
O1009  O     0.74641   0.60126   0.20000   0.00000  Uiso   1.00
O1010  O     0.81442   0.58775   0.20504   0.00000  Uiso   1.00
O1011  O     0.70081   0.50337   0.14798   0.00000  Uiso   1.00
O1012  O     0.70396   0.43900   0.15819   0.00000  Uiso   1.00
O1013  O     0.64865   0.54939   0.24638   0.00000  Uiso   1.00
O1014  O     0.66257   0.54422   0.31414   0.00000  Uiso   1.00
O1015  O     0.80112   0.39996   0.25379   0.00000  Uiso   1.00
O1016  O     0.79340   0.41041   0.18698   0.00000  Uiso   1.00
O1017  O     0.85014   0.49519   0.30017   0.00000  Uiso   1.00
O1018  O     0.83674   0.56579   0.29478   0.00000  Uiso   1.00
O1019  O     0.75507   0.44955   0.34944   0.00000  Uiso   1.00
O1020  O     0.68477   0.45394   0.33600   0.00000  Uiso   1.00
O1021  O     0.75524   0.39980   0.29948   0.00000  Uiso   1.00
O1022  O     0.68496   0.41293   0.29462   0.00000  Uiso   1.00
O1023  O     0.80046   0.49570   0.34961   0.00000  Uiso   1.00
O1024  O     0.79563   0.56571   0.33614   0.00000  Uiso   1.00
O1025  O     0.85019   0.44910   0.25472   0.00000  Uiso   1.00
O1026  O     0.83773   0.45623   0.18425   0.00000  Uiso   1.00
O1027  O     0.70059   0.60126   0.24594   0.00000  Uiso   1.00
O1028  O     0.70613   0.58757   0.31410   0.00000  Uiso   1.00
O1029  O     0.64870   0.50376   0.20028   0.00000  Uiso   1.00
O1030  O     0.66285   0.43503   0.20771   0.00000  Uiso   1.00
O1031  O     0.74666   0.54928   0.14804   0.00000  Uiso   1.00
O1032  O     0.81465   0.54423   0.16187   0.00000  Uiso   1.00
Zr1033 Zr    0.77092   0.54609   0.20328   0.00000  Uiso   1.00
O1034  O     0.80786   0.51244   0.23719   0.00000  Uiso   1.00
Zr1035 Zr    0.70387   0.47910   0.20326   0.00000  Uiso   1.00
O1036  O     0.73814   0.44228   0.23688   0.00000  Uiso   1.00
Zr1037 Zr    0.70399   0.54612   0.27042   0.00000  Uiso   1.00
O1038  O     0.73784   0.51220   0.30715   0.00000  Uiso   1.00
Zr1039 Zr    0.79623   0.45429   0.22823   0.00000  Uiso   1.00
O1040  O     0.76215   0.48783   0.19079   0.00000  Uiso   1.00
Zr1041 Zr    0.79593   0.52130   0.29526   0.00000  Uiso   1.00
O1042  O     0.76211   0.55865   0.26145   0.00000  Uiso   1.00
Zr1043 Zr    0.72914   0.45406   0.29508   0.00000  Uiso   1.00
O1044  O     0.69161   0.48798   0.26148   0.00000  Uiso   1.00
O1045  O     0.71351   0.53646   0.21299   0.00000  Uiso   1.00
O1046  O     0.78685   0.46350   0.28598   0.00000  Uiso   1.00
X1047  C     0.71855   0.61719   0.21804   0.00000  Uiso   1.00
X1048  C     0.71891   0.53119   0.13201   0.00000  Uiso   1.00
X1049  C     0.63265   0.53140   0.21854   0.00000  Uiso   1.00
X1050  C     0.78347   0.38418   0.28188   0.00000  Uiso   1.00
X1051  C     0.86576   0.46674   0.28294   0.00000  Uiso   1.00
X1052  C     0.78306   0.46738   0.36523   0.00000  Uiso   1.00
H1053  H     0.83466   0.51868   0.23125   0.00000  Uiso   1.00
H1054  H     0.73175   0.51818   0.33399   0.00000  Uiso   1.00
H1055  H     0.69725   0.55266   0.19671   0.00000  Uiso   1.00
H1056  H     0.73263   0.41535   0.23071   0.00000  Uiso   1.00
H1057  H     0.78106   0.42157   0.16417   0.00000  Uiso   1.00
H1058  H     0.71690   0.41576   0.16756   0.00000  Uiso   1.00
H1059  H     0.77330   0.56187   0.35292   0.00000  Uiso   1.00
H1060  H     0.73105   0.60057   0.31159   0.00000  Uiso   1.00
H1061  H     0.85608   0.47680   0.19017   0.00000  Uiso   1.00
H1062  H     0.81277   0.51898   0.14940   0.00000  Uiso   1.00
H1063  H     0.68869   0.47603   0.35307   0.00000  Uiso   1.00
H1064  H     0.65018   0.51893   0.31229   0.00000  Uiso   1.00
H1065  H     0.81261   0.60010   0.23035   0.00000  Uiso   1.00
H1066  H     0.85450   0.56110   0.27339   0.00000  Uiso   1.00
H1067  H     0.64882   0.43929   0.23182   0.00000  Uiso   1.00
H1068  H     0.68912   0.39602   0.27245   0.00000  Uiso   1.00
O1069  O     0.60158   0.20061   0.74664   0.00000  Uiso   1.00
O1070  O     0.58786   0.20583   0.81472   0.00000  Uiso   1.00
O1071  O     0.50418   0.14798   0.70109   0.00000  Uiso   1.00
O1072  O     0.43968   0.15783   0.70433   0.00000  Uiso   1.00
O1073  O     0.54961   0.24652   0.64866   0.00000  Uiso   1.00
O1074  O     0.54433   0.31422   0.66237   0.00000  Uiso   1.00
O1075  O     0.40007   0.25457   0.80085   0.00000  Uiso   1.00
O1076  O     0.41046   0.18741   0.79335   0.00000  Uiso   1.00
O1077  O     0.49569   0.30050   0.85008   0.00000  Uiso   1.00
O1078  O     0.56533   0.29643   0.83682   0.00000  Uiso   1.00
O1079  O     0.44908   0.34936   0.75434   0.00000  Uiso   1.00
O1080  O     0.45437   0.33548   0.68386   0.00000  Uiso   1.00
O1081  O     0.39975   0.29965   0.75438   0.00000  Uiso   1.00
O1082  O     0.41298   0.29426   0.68446   0.00000  Uiso   1.00
O1083  O     0.49494   0.34979   0.80003   0.00000  Uiso   1.00
O1084  O     0.56580   0.33645   0.79446   0.00000  Uiso   1.00
O1085  O     0.44967   0.25497   0.85027   0.00000  Uiso   1.00
O1086  O     0.45575   0.18493   0.83797   0.00000  Uiso   1.00
O1087  O     0.60146   0.24638   0.70064   0.00000  Uiso   1.00
O1088  O     0.58753   0.31448   0.70600   0.00000  Uiso   1.00
O1089  O     0.50417   0.20023   0.64883   0.00000  Uiso   1.00
O1090  O     0.43544   0.20709   0.66290   0.00000  Uiso   1.00
O1091  O     0.55005   0.14840   0.74696   0.00000  Uiso   1.00
O1092  O     0.54452   0.16235   0.81487   0.00000  Uiso   1.00
Zr1093 Zr    0.54636   0.20369   0.77108   0.00000  Uiso   1.00
O1094  O     0.51254   0.23770   0.80775   0.00000  Uiso   1.00
Zr1095 Zr    0.47950   0.20314   0.70399   0.00000  Uiso   1.00
O1096  O     0.44247   0.23684   0.73799   0.00000  Uiso   1.00
Zr1097 Zr    0.54625   0.27063   0.70392   0.00000  Uiso   1.00
O1098  O     0.51213   0.30742   0.73750   0.00000  Uiso   1.00
Zr1099 Zr    0.45436   0.22862   0.79616   0.00000  Uiso   1.00
O1100  O     0.48812   0.19104   0.76236   0.00000  Uiso   1.00
Zr1101 Zr    0.52123   0.29575   0.79562   0.00000  Uiso   1.00
O1102  O     0.55875   0.26186   0.76209   0.00000  Uiso   1.00
Zr1103 Zr    0.45409   0.29501   0.72865   0.00000  Uiso   1.00
O1104  O     0.48820   0.26132   0.69143   0.00000  Uiso   1.00
O1105  O     0.53679   0.21319   0.71363   0.00000  Uiso   1.00
O1106  O     0.46346   0.28631   0.78648   0.00000  Uiso   1.00
X1107  C     0.61747   0.21861   0.71872   0.00000  Uiso   1.00
X1108  C     0.53211   0.13220   0.71921   0.00000  Uiso   1.00
X1109  C     0.53170   0.21862   0.63273   0.00000  Uiso   1.00
X1110  C     0.38420   0.28243   0.78285   0.00000  Uiso   1.00
X1111  C     0.46745   0.28310   0.86588   0.00000  Uiso   1.00
X1112  C     0.46660   0.36520   0.78248   0.00000  Uiso   1.00
H1113  H     0.51878   0.23189   0.83458   0.00000  Uiso   1.00
H1114  H     0.51802   0.33425   0.73130   0.00000  Uiso   1.00
H1115  H     0.55308   0.19695   0.69741   0.00000  Uiso   1.00
H1116  H     0.41556   0.23057   0.73247   0.00000  Uiso   1.00
H1117  H     0.42165   0.16452   0.78117   0.00000  Uiso   1.00
H1118  H     0.41631   0.16719   0.71702   0.00000  Uiso   1.00
H1119  H     0.56064   0.35442   0.77336   0.00000  Uiso   1.00
H1120  H     0.60047   0.31213   0.73097   0.00000  Uiso   1.00
H1121  H     0.47757   0.18975   0.85515   0.00000  Uiso   1.00
H1122  H     0.51935   0.14973   0.81289   0.00000  Uiso   1.00
H1123  H     0.47568   0.35336   0.68844   0.00000  Uiso   1.00
H1124  H     0.51906   0.31230   0.64995   0.00000  Uiso   1.00
H1125  H     0.60048   0.23097   0.81251   0.00000  Uiso   1.00
H1126  H     0.56236   0.27357   0.85305   0.00000  Uiso   1.00
H1127  H     0.43950   0.23122   0.64884   0.00000  Uiso   1.00
H1128  H     0.39633   0.27188   0.68852   0.00000  Uiso   1.00
O1129  O     0.35088   0.75377   0.45035   0.00000  Uiso   1.00
O1130  O     0.33675   0.68601   0.45472   0.00000  Uiso   1.00
O1131  O     0.25281   0.80027   0.39818   0.00000  Uiso   1.00
O1132  O     0.18856   0.79754   0.40858   0.00000  Uiso   1.00
O1133  O     0.30000   0.85184   0.49602   0.00000  Uiso   1.00
O1134  O     0.29400   0.83848   0.56395   0.00000  Uiso   1.00
O1135  O     0.14920   0.70026   0.50406   0.00000  Uiso   1.00
O1136  O     0.15957   0.70814   0.43727   0.00000  Uiso   1.00
O1137  O     0.24496   0.65043   0.54962   0.00000  Uiso   1.00
O1138  O     0.31481   0.66381   0.54541   0.00000  Uiso   1.00
O1139  O     0.19935   0.74649   0.59979   0.00000  Uiso   1.00
O1140  O     0.20340   0.81617   0.58637   0.00000  Uiso   1.00
O1141  O     0.14920   0.74625   0.54962   0.00000  Uiso   1.00
O1142  O     0.16298   0.81658   0.54460   0.00000  Uiso   1.00
O1143  O     0.24494   0.70055   0.59974   0.00000  Uiso   1.00
O1144  O     0.31519   0.70526   0.58604   0.00000  Uiso   1.00
O1145  O     0.19895   0.65057   0.50408   0.00000  Uiso   1.00
O1146  O     0.20473   0.66359   0.43427   0.00000  Uiso   1.00
O1147  O     0.35117   0.79934   0.49654   0.00000  Uiso   1.00
O1148  O     0.33696   0.79452   0.56457   0.00000  Uiso   1.00
O1149  O     0.25419   0.85210   0.45010   0.00000  Uiso   1.00
O1150  O     0.18514   0.83865   0.45833   0.00000  Uiso   1.00
O1151  O     0.29866   0.75437   0.39813   0.00000  Uiso   1.00
O1152  O     0.29323   0.68629   0.41173   0.00000  Uiso   1.00
Zr1153 Zr    0.29543   0.72984   0.45331   0.00000  Uiso   1.00
O1154  O     0.26167   0.69312   0.48726   0.00000  Uiso   1.00
Zr1155 Zr    0.22883   0.79726   0.45351   0.00000  Uiso   1.00
O1156  O     0.19184   0.76309   0.48707   0.00000  Uiso   1.00
Zr1157 Zr    0.29586   0.79672   0.52055   0.00000  Uiso   1.00
O1158  O     0.26177   0.76302   0.55726   0.00000  Uiso   1.00
Zr1159 Zr    0.20354   0.70496   0.47838   0.00000  Uiso   1.00
O1160  O     0.23721   0.73893   0.44094   0.00000  Uiso   1.00
Zr1161 Zr    0.27059   0.70490   0.54535   0.00000  Uiso   1.00
O1162  O     0.30806   0.73852   0.51149   0.00000  Uiso   1.00
Zr1163 Zr    0.20366   0.77199   0.54526   0.00000  Uiso   1.00
O1164  O     0.23779   0.80943   0.51172   0.00000  Uiso   1.00
O1165  O     0.28616   0.78724   0.46313   0.00000  Uiso   1.00
O1166  O     0.21274   0.71414   0.53621   0.00000  Uiso   1.00
X1167  C     0.36707   0.78126   0.46872   0.00000  Uiso   1.00
X1168  C     0.28058   0.78219   0.38217   0.00000  Uiso   1.00
X1169  C     0.28223   0.86785   0.46803   0.00000  Uiso   1.00
X1170  C     0.13340   0.71813   0.53201   0.00000  Uiso   1.00
X1171  C     0.21684   0.63469   0.53196   0.00000  Uiso   1.00
X1172  C     0.21703   0.71841   0.61557   0.00000  Uiso   1.00
H1173  H     0.26785   0.66631   0.48124   0.00000  Uiso   1.00
H1174  H     0.26782   0.76908   0.58409   0.00000  Uiso   1.00
H1175  H     0.30262   0.80324   0.44684   0.00000  Uiso   1.00
H1176  H     0.16493   0.76874   0.48093   0.00000  Uiso   1.00
H1177  H     0.17064   0.72077   0.41458   0.00000  Uiso   1.00
H1178  H     0.16516   0.78498   0.41807   0.00000  Uiso   1.00
H1179  H     0.31093   0.72706   0.60340   0.00000  Uiso   1.00
H1180  H     0.34978   0.76948   0.56228   0.00000  Uiso   1.00
H1181  H     0.22661   0.64642   0.43876   0.00000  Uiso   1.00
H1182  H     0.26815   0.68863   0.39901   0.00000  Uiso   1.00
H1183  H     0.22648   0.81327   0.60229   0.00000  Uiso   1.00
H1184  H     0.26898   0.85133   0.56162   0.00000  Uiso   1.00
H1185  H     0.34922   0.68763   0.47999   0.00000  Uiso   1.00
H1186  H     0.31132   0.64728   0.52285   0.00000  Uiso   1.00
H1187  H     0.19000   0.85300   0.48214   0.00000  Uiso   1.00
H1188  H     0.14584   0.81235   0.52261   0.00000  Uiso   1.00
O1189  O     0.35108   0.25393   0.95090   0.00000  Uiso   1.00
O1190  O     0.33756   0.18578   0.95609   0.00000  Uiso   1.00
O1191  O     0.25312   0.29953   0.89910   0.00000  Uiso   1.00
O1192  O     0.18871   0.29601   0.90936   0.00000  Uiso   1.00
O1193  O     0.29958   0.35145   0.99691   0.00000  Uiso   1.00
O1194  O     0.29401   0.33784   1.06497   0.00000  Uiso   1.00
O1195  O     0.14976   0.19916   1.00541   0.00000  Uiso   1.00
O1196  O     0.16005   0.20692   0.93845   0.00000  Uiso   1.00
O1197  O     0.24547   0.14978   1.05099   0.00000  Uiso   1.00
O1198  O     0.31559   0.16342   1.04625   0.00000  Uiso   1.00
O1199  O     0.19992   0.24586   1.10083   0.00000  Uiso   1.00
O1200  O     0.20370   0.31560   1.08707   0.00000  Uiso   1.00
O1201  O     0.14972   0.24512   1.05090   0.00000  Uiso   1.00
O1202  O     0.16297   0.31545   1.04557   0.00000  Uiso   1.00
O1203  O     0.24573   0.20013   1.10090   0.00000  Uiso   1.00
O1204  O     0.31570   0.20467   1.08714   0.00000  Uiso   1.00
O1205  O     0.19958   0.14962   1.00542   0.00000  Uiso   1.00
O1206  O     0.20530   0.16244   0.93559   0.00000  Uiso   1.00
O1207  O     0.35115   0.29972   0.99688   0.00000  Uiso   1.00
O1208  O     0.33750   0.29420   1.06507   0.00000  Uiso   1.00
O1209  O     0.25384   0.35137   0.95091   0.00000  Uiso   1.00
O1210  O     0.18496   0.33747   0.95904   0.00000  Uiso   1.00
O1211  O     0.29907   0.25371   0.89913   0.00000  Uiso   1.00
O1212  O     0.29396   0.18562   0.91286   0.00000  Uiso   1.00
Zr1213 Zr    0.29590   0.22929   0.95433   0.00000  Uiso   1.00
O1214  O     0.26226   0.19242   0.98833   0.00000  Uiso   1.00
Zr1215 Zr    0.22890   0.29632   0.95437   0.00000  Uiso   1.00
O1216  O     0.19211   0.26208   0.98808   0.00000  Uiso   1.00
Zr1217 Zr    0.29604   0.29627   1.02139   0.00000  Uiso   1.00
O1218  O     0.26216   0.26244   1.05817   0.00000  Uiso   1.00
Zr1219 Zr    0.20405   0.20397   0.97955   0.00000  Uiso   1.00
O1220  O     0.23759   0.23800   0.94198   0.00000  Uiso   1.00
Zr1221 Zr    0.27117   0.20430   1.04640   0.00000  Uiso   1.00
O1222  O     0.30851   0.23810   1.01249   0.00000  Uiso   1.00
Zr1223 Zr    0.20399   0.27117   1.04622   0.00000  Uiso   1.00
O1224  O     0.23789   0.30868   1.01255   0.00000  Uiso   1.00
O1225  O     0.28624   0.28663   0.96405   0.00000  Uiso   1.00
O1226  O     0.21329   0.21333   1.03732   0.00000  Uiso   1.00
X1227  C     0.36702   0.28185   0.96888   0.00000  Uiso   1.00
X1228  C     0.28104   0.28156   0.88318   0.00000  Uiso   1.00
X1229  C     0.28174   0.36731   0.96890   0.00000  Uiso   1.00
X1230  C     0.13389   0.21684   1.03350   0.00000  Uiso   1.00
X1231  C     0.21731   0.13380   1.03350   0.00000  Uiso   1.00
X1232  C     0.21775   0.21792   1.11669   0.00000  Uiso   1.00
H1233  H     0.26852   0.16563   0.98237   0.00000  Uiso   1.00
H1234  H     0.26821   0.26860   1.08498   0.00000  Uiso   1.00
H1235  H     0.30248   0.30279   0.94772   0.00000  Uiso   1.00
H1236  H     0.16515   0.26758   0.98198   0.00000  Uiso   1.00
H1237  H     0.17110   0.21944   0.91569   0.00000  Uiso   1.00
H1238  H     0.16527   0.28365   0.91899   0.00000  Uiso   1.00
H1239  H     0.31198   0.22707   1.10383   0.00000  Uiso   1.00
H1240  H     0.35055   0.26930   1.06253   0.00000  Uiso   1.00
H1241  H     0.22730   0.14540   0.94008   0.00000  Uiso   1.00
H1242  H     0.26880   0.18771   0.90024   0.00000  Uiso   1.00
H1243  H     0.22658   0.31257   1.10326   0.00000  Uiso   1.00
H1244  H     0.26901   0.35072   1.06257   0.00000  Uiso   1.00
H1245  H     0.35019   0.18785   0.98125   0.00000  Uiso   1.00
H1246  H     0.31175   0.14650   1.02403   0.00000  Uiso   1.00
H1247  H     0.18959   0.35175   0.98294   0.00000  Uiso   1.00
H1248  H     0.14583   0.31106   1.02362   0.00000  Uiso   1.00
loop_
_geom_bond_atom_site_label_1
_geom_bond_atom_site_label_2
_geom_bond_distance
_geom_bond_site_symmetry_2
_ccdc_geom_bond_type
X1     C2      1.415   .     A
X1     C6      1.412   .     A
X1     X331    1.506   .     S
C2     X3      1.418   .     A
C2     H7      1.083   .     S
X3     C4      1.417   .     A
X3     X751    1.427   1_556 A
C4     X5      1.414   .     A
C4     H8      1.083   .     S
X5     C6      1.413   .     A
X5     X1229   1.504   .     S
C6     H9      1.083   .     S
X10    C11     1.412   .     A
X10    C15     1.411   .     A
X10    X692    1.501   1_565 A
C11    X12     1.412   .     A
C11    H16     1.083   .     S
X12    C13     1.413   .     A
X12    X449    1.501   .     S
C13    X14     1.412   .     A
C13    H17     1.083   .     S
X14    C15     1.413   .     A
X14    X1167   1.501   .     S
C15    H18     1.083   .     S
X19    C20     1.415   .     A
X19    C24     1.419   .     A
X19    X512    1.428   1_655 S
C20    X21     1.413   .     A
C20    H25     1.083   .     S
X21    C22     1.414   .     A
X21    X989    1.505   .     S
C22    X23     1.417   .     A
C22    H26     1.083   .     S
X23    C24     1.419   .     A
X23    X572    1.429   1_666 A
C24    H27     1.083   .     S
X28    C29     1.413   .     A
X28    C33     1.414   .     A
X28    X447    1.505   .     S
C29    X30     1.416   .     A
C29    H34     1.083   .     S
X30    C31     1.418   .     A
X30    X391    1.428   1_565 S
C31    X32     1.419   .     A
C31    H35     1.084   .     S
X32    C33     1.416   .     A
X32    X691    1.429   1_565 A
C33    H36     1.083   .     S
X37    C38     1.413   .     A
X37    C42     1.413   .     A
X37    X809    1.503   .     S
C38    X39     1.413   .     A
C38    H43     1.083   .     S
X39    C40     1.413   .     A
X39    X930    1.503   .     S
C40    X41     1.413   .     A
C40    H44     1.083   .     S
X41    C42     1.413   .     A
X41    X1050   1.503   .     S
C42    H45     1.083   .     S
X46    C47     1.413   .     A
X46    C51     1.413   .     A
X46    X988    1.505   .     S
C47    X48     1.416   .     A
C47    H52     1.083   .     S
X48    C49     1.418   .     A
X48    X510    1.428   1_655 A
C49    X50     1.418   .     A
C49    H53     1.083   .     S
X50    C51     1.416   .     A
X50    X868    1.427   1_556 S
C51    H54     1.083   .     S
X55    C56     1.413   .     A
X55    C60     1.412   .     A
X55    X632    1.501   1_655 A
C56    X57     1.413   .     A
C56    H61     1.083   .     S
X57    C58     1.413   .     A
X57    X931    1.502   .     S
C58    X59     1.413   .     A
C58    H62     1.083   .     S
X59    C60     1.412   .     A
X59    X808    1.501   .     S
C60    H63     1.083   .     S
X64    C65     1.412   .     A
X64    C69     1.411   .     A
X64    X752    1.500   1_556 S
C65    X66     1.412   .     A
C65    H70     1.083   .     S
X66    C67     1.413   .     A
X66    X330    1.501   .     S
C67    X68     1.412   .     A
C67    H71     1.083   .     S
X68    C69     1.412   .     A
X68    X1112   1.501   .     S
C69    H72     1.083   .     S
X73    C74     1.412   .     A
X73    C78     1.414   .     A
X73    X869    1.503   1_556 S
C74    X75     1.411   .     A
C74    H79     1.083   .     S
X75    C76     1.415   .     A
X75    X987    1.504   .     S
C76    X77     1.418   .     A
C76    H80     1.083   .     S
X77    C78     1.417   .     A
X77    X571    1.428   1_666 A
C78    H81     1.083   .     S
X82    C83     1.417   .     A
X82    C87     1.415   .     A
X82    X390    1.426   1_565 A
C83    X84     1.413   .     A
C83    H88     1.083   .     S
X84    C85     1.412   .     A
X84    X1168   1.503   .     S
C85    X86     1.412   .     A
C85    H89     1.083   .     S
X86    C87     1.413   .     A
X86    X448    1.502   .     S
C87    H90     1.083   .     S
X91    C92     1.412   .     A
X91    C96     1.414   .     A
X91    X807    1.503   .     S
C92    X93     1.411   .     A
C92    H97     1.083   .     S
X93    C94     1.413   .     A
X93    X1052   1.503   .     S
C94    X95     1.416   .     A
C94    H98     1.083   .     S
X95    C96     1.417   .     A
X95    X630    1.426   1_655 A
C96    H99     1.084   .     S
X100   C101    1.417   .     A
X100   C105    1.417   .     A
X100   X570    1.425   1_666 S
C101   X102    1.414   .     A
C101   H106    1.083   .     S
X102   C103    1.410   .     A
X102   X867    1.501   1_556 A
C103   X104    1.410   .     A
C103   H107    1.083   .     S
X104   C105    1.413   .     A
X104   X511    1.501   1_655 S
C105   H108    1.083   .     S
X109   C110    1.413   .     A
X109   C114    1.414   .     A
X109   X332    1.505   .     S
C110   X111    1.413   .     A
C110   H115    1.083   .     S
X111   C112    1.413   .     A
X111   X1228   1.503   .     S
C112   X113    1.413   .     A
C112   H116    1.082   .     S
X113   C114    1.414   .     A
X113   X1110   1.504   .     S
C114   H117    1.083   .     S
X118   C119    1.413   .     A
X118   C123    1.413   .     A
X118   X627    1.501   .     S
C119   X120    1.412   .     A
C119   H124    1.083   .     S
X120   C121    1.414   .     A
X120   X329    1.503   .     S
C121   X122    1.413   .     A
C121   H125    1.083   .     S
X122   C123    1.412   .     A
X122   X1171   1.503   .     S
C123   H126    1.083   .     S
X127   C128    1.413   .     A
X127   C132    1.414   .     A
X127   X870    1.504   .     S
C128   X129    1.414   .     A
C128   H133    1.083   .     S
X129   C130    1.413   .     A
X129   X747    1.503   .     S
C130   X131    1.413   .     A
C130   H134    1.083   .     S
X131   C132    1.413   .     A
X131   X451    1.504   .     S
C132   H135    1.083   .     S
X136   C137    1.412   .     A
X136   C141    1.412   .     A
X136   X811    1.501   .     S
C137   X138    1.412   .     A
C137   H142    1.083   .     S
X138   C139    1.412   .     A
X138   X992    1.501   1_545 A
C139   X140    1.412   .     A
C139   H143    1.083   .     S
X140   C141    1.413   .     A
X140   X1107   1.501   .     S
C141   H144    1.083   .     S
X145   C146    1.412   .     A
X145   C150    1.414   .     A
X145   X389    1.503   .     S
C146   X147    1.412   .     A
C146   H151    1.083   .     S
X147   C148    1.412   .     A
X147   X928    1.501   1_455 S
C148   X149    1.412   .     A
C148   H152    1.083   .     S
X149   C150    1.414   .     A
X149   X568    1.503   .     S
C150   H153    1.083   .     S
X154   C155    1.413   .     A
X154   C159    1.413   .     A
X154   X567    1.506   .     S
C155   X156    1.416   .     A
C155   H160    1.083   .     S
X156   C157    1.418   .     A
X156   X1230   1.428   1_554 A
C157   X158    1.418   .     A
C157   H161    1.083   .     S
X158   C159    1.417   .     A
X158   X929    1.428   1_455 S
C159   H162    1.083   .     S
X163   C164    1.413   .     A
X163   C168    1.413   .     A
X163   X507    1.502   .     S
C164   X165    1.412   .     A
C164   H169    1.083   .     S
X165   C166    1.413   .     A
X165   X1172   1.503   .     S
C166   X167    1.413   .     A
C166   H170    1.083   .     S
X167   C168    1.413   .     A
X167   X328    1.503   .     S
C168   H171    1.083   .     S
X172   C173    1.414   .     A
X172   C177    1.412   .     A
X172   X387    1.503   .     S
C173   X174    1.417   .     A
C173   H178    1.083   .     S
X174   C175    1.416   .     A
X174   X927    1.425   1_455 S
C175   X176    1.412   .     A
C175   H179    1.083   .     S
X176   C177    1.412   .     A
X176   X1232   1.503   1_554 A
C177   H180    1.083   .     S
X181   C182    1.412   .     A
X181   C186    1.415   .     A
X181   X687    1.505   .     S
C182   X183    1.412   .     A
C182   H187    1.083   .     S
X183   C184    1.414   .     A
X183   X810    1.505   .     S
C184   X185    1.418   .     A
C184   H188    1.083   .     S
X185   C186    1.417   .     A
X185   X990    1.428   1_545 A
C186   H189    1.083   .     S
X190   C191    1.413   .     A
X190   C195    1.413   .     A
X190   X748    1.503   .     S
C191   X192    1.413   .     A
C191   H196    1.083   .     S
X192   C193    1.413   .     A
X192   X1049   1.503   .     S
C193   X194    1.414   .     A
C193   H197    1.083   .     S
X194   C195    1.412   .     A
X194   X450    1.504   .     S
C195   H198    1.083   .     S
X199   C200    1.413   .     A
X199   C204    1.412   .     A
X199   X452    1.502   .     S
C200   X201    1.412   .     A
C200   H205    1.083   .     S
X201   C202    1.413   .     A
X201   X872    1.502   .     S
C202   X203    1.413   .     A
C202   H206    1.083   .     S
X203   C204    1.413   .     A
X203   X1047   1.502   .     S
C204   H207    1.083   .     S
X208   C209    1.413   .     A
X208   C213    1.414   .     A
X208   X569    1.506   .     S
C209   X210    1.414   .     A
C209   H214    1.083   .     S
X210   C211    1.415   .     A
X210   X388    1.507   .     S
C211   X212    1.418   .     A
C211   H215    1.083   .     S
X212   C213    1.417   .     A
X212   X1231   1.428   1_554 A
C213   H216    1.083   .     S
X217   C218    1.412   .     A
X217   C222    1.413   .     A
X217   X812    1.503   .     S
C218   X219    1.414   .     A
C218   H223    1.083   .     S
X219   C220    1.412   .     A
X219   X688    1.502   .     S
C220   X221    1.412   .     A
C220   H224    1.083   .     S
X221   C222    1.413   .     A
X221   X1109   1.502   .     S
C222   H225    1.083   .     S
X226   C227    1.414   .     A
X226   C231    1.413   .     A
X226   X327    1.504   .     S
C227   X228    1.414   .     A
C227   H232    1.083   .     S
X228   C229    1.414   .     A
X228   X629    1.504   .     S
C229   X230    1.413   .     A
C229   H233    1.083   .     S
X230   C231    1.414   .     A
X230   X508    1.504   .     S
C231   H234    1.083   .     S
X235   C236    1.413   .     A
X235   C240    1.414   .     A
X235   X749    1.504   .     S
C236   X237    1.413   .     A
C236   H241    1.083   .     S
X237   C238    1.414   .     A
X237   X1048   1.503   .     S
C238   X239    1.413   .     A
C238   H242    1.083   .     S
X239   C240    1.414   .     A
X239   X871    1.504   .     S
C240   H243    1.083   .     S
X244   C245    1.414   .     A
X244   C249    1.413   .     A
X244   X509    1.504   .     S
C245   X246    1.414   .     A
C245   H250    1.083   .     S
X246   C247    1.414   .     A
X246   X628    1.504   .     S
C247   X248    1.413   .     A
C247   H251    1.083   .     S
X248   C249    1.413   .     A
X248   X1170   1.505   .     S
C249   H252    1.083   .     S
X253   C254    1.415   .     A
X253   C258    1.412   .     A
X253   X689    1.506   .     S
C254   X255    1.419   .     A
C254   H259    1.083   .     S
X255   C256    1.418   .     A
X255   X991    1.429   1_545 S
C256   X257    1.415   .     A
C256   H260    1.083   .     S
X257   C258    1.412   .     A
X257   X1108   1.505   .     S
C258   H261    1.083   .     S
X262   C263    1.417   .     A
X262   C267    1.418   .     A
X262   X750    1.427   1_556 A
C263   X264    1.414   .     A
C263   H268    1.083   .     S
X264   C265    1.412   .     A
X264   X1227   1.503   .     S
C265   X266    1.412   .     A
C265   H269    1.083   .     S
X266   C267    1.414   .     A
X266   X1111   1.504   .     S
C267   H270    1.083   .     S
X271   C272    1.417   .     A
X271   C276    1.418   .     A
X271   X631    1.427   1_655 S
C272   X273    1.413   .     A
C272   H277    1.083   .     S
X273   C274    1.412   .     A
X273   X1051   1.504   .     S
C274   X275    1.413   .     A
C274   H278    1.083   .     S
X275   C276    1.415   .     A
X275   X932    1.506   .     S
C276   H279    1.083   .     S
X280   C281    1.415   .     A
X280   C285    1.419   .     A
X280   X392    1.428   1_565 A
C281   X282    1.413   .     A
C281   H286    1.083   .     S
X282   C283    1.413   .     A
X282   X1169   1.504   .     S
C283   X284    1.416   .     A
C283   H287    1.083   .     S
X284   C285    1.419   .     A
X284   X690    1.429   1_565 S
C285   H288    1.083   .     S
O289   Zr313   2.123   .     S
O289   X327    1.292   .     A
O290   Zr313   2.113   .     S
O290   H345    0.990   .     S
O291   Zr315   2.118   .     S
O291   X328    1.291   .     A
O292   Zr315   2.117   .     S
O292   H338    0.989   .     S
O293   Zr317   2.123   .     S
O293   X329    1.292   .     A
O294   Zr317   2.114   .     S
O294   H344    0.990   .     S
O295   Zr319   2.113   .     S
O295   X330    1.289   .     A
O296   Zr319   2.115   .     S
O296   H337    0.990   .     S
O297   Zr321   2.122   .     S
O297   X331    1.290   .     A
O298   Zr321   2.118   .     S
O298   H346    0.989   .     S
O299   Zr323   2.117   .     S
O299   X332    1.289   .     A
O300   Zr323   2.117   .     S
O300   H343    0.989   .     S
O301   Zr323   2.114   .     S
O301   X330    1.288   .     A
O302   Zr323   2.117   .     S
O302   H348    0.989   .     S
O303   Zr321   2.117   .     S
O303   X332    1.289   .     A
O304   Zr321   2.117   .     S
O304   H339    0.989   .     S
O305   Zr319   2.114   .     S
O305   X331    1.288   .     A
O306   Zr319   2.122   .     S
O306   H341    0.989   .     S
O307   Zr317   2.120   .     S
O307   X327    1.291   .     A
O308   Zr317   2.113   .     S
O308   H340    0.990   .     S
O309   Zr315   2.118   .     S
O309   X329    1.290   .     A
O310   Zr315   2.118   .     S
O310   H347    0.990   .     S
O311   Zr313   2.122   .     S
O311   X328    1.292   .     A
O312   Zr313   2.114   .     S
O312   H342    0.990   .     S
Zr313  O314    2.119   .     S
Zr313  O325    2.069   .     S
Zr313  O320    2.112   .     S
Zr313  O322    2.111   .     S
O314   Zr319   2.104   .     S
O314   Zr321   2.103   .     S
O314   H333    0.987   .     S
Zr315  O316    2.121   .     S
Zr315  O325    2.071   .     S
Zr315  O324    2.110   .     S
Zr315  O320    2.112   .     S
O316   Zr323   2.107   .     S
O316   Zr319   2.102   .     S
O316   H336    0.988   .     S
Zr317  O318    2.120   .     S
Zr317  O325    2.069   .     S
Zr317  O322    2.110   .     S
Zr317  O324    2.108   .     S
O318   Zr321   2.105   .     S
O318   Zr323   2.104   .     S
O318   H334    0.988   .     S
Zr319  O320    2.130   .     S
Zr319  O326    2.078   .     S
Zr321  O322    2.130   .     S
Zr321  O326    2.076   .     S
Zr323  O324    2.129   .     S
Zr323  O326    2.078   .     S
O325   H335    0.987   .     S
O349   Zr373   2.121   .     S
O349   X387    1.292   .     A
O350   Zr373   2.114   .     S
O350   H405    0.990   .     S
O351   Zr375   2.123   .     S
O351   X388    1.293   .     A
O352   Zr375   2.117   .     S
O352   H398    0.989   .     S
O353   Zr377   2.122   .     S
O353   X389    1.292   .     A
O354   Zr377   2.113   .     S
O354   H404    0.990   .     S
O355   Zr379   2.117   .     S
O355   X390    1.291   .     A
O356   Zr379   2.115   .     S
O356   H397    0.990   .     S
O357   Zr381   2.119   .     S
O357   X391    1.290   .     A
O358   Zr381   2.118   .     S
O358   H406    0.989   .     S
O359   Zr383   2.122   .     S
O359   X392    1.291   .     A
O360   Zr383   2.118   .     S
O360   H403    0.989   .     S
O361   Zr383   2.114   .     S
O361   X390    1.289   .     A
O362   Zr383   2.117   .     S
O362   H408    0.989   .     S
O363   Zr381   2.115   .     S
O363   X392    1.289   .     A
O364   Zr381   2.117   .     S
O364   H399    0.989   .     S
O365   Zr379   2.118   .     S
O365   X391    1.290   .     A
O366   Zr379   2.122   .     S
O366   H401    0.988   .     S
O367   Zr377   2.120   .     S
O367   X387    1.291   .     A
O368   Zr377   2.113   .     S
O368   H400    0.990   .     S
O369   Zr375   2.119   .     S
O369   X389    1.290   .     A
O370   Zr375   2.118   .     S
O370   H407    0.990   .     S
O371   Zr373   2.121   .     S
O371   X388    1.291   .     A
O372   Zr373   2.114   .     S
O372   H402    0.990   .     S
Zr373  O374    2.120   .     S
Zr373  O385    2.070   .     S
Zr373  O380    2.113   .     S
Zr373  O382    2.110   .     S
O374   Zr379   2.105   .     S
O374   Zr381   2.102   .     S
O374   H393    0.987   .     S
Zr375  O376    2.123   .     S
Zr375  O385    2.069   .     S
Zr375  O384    2.111   .     S
Zr375  O380    2.112   .     S
O376   Zr383   2.108   .     S
O376   Zr379   2.102   .     S
O376   H396    0.988   .     S
Zr377  O378    2.120   .     S
Zr377  O385    2.069   .     S
Zr377  O382    2.110   .     S
Zr377  O384    2.108   .     S
O378   Zr381   2.105   .     S
O378   Zr383   2.103   .     S
O378   H394    0.988   .     S
Zr379  O380    2.132   .     S
Zr379  O386    2.078   .     S
Zr381  O382    2.129   .     S
Zr381  O386    2.078   .     S
Zr383  O384    2.130   .     S
Zr383  O386    2.077   .     S
O385   H395    0.988   .     S
X390   X82     1.426   1_545 A
X391   X30     1.428   1_545 S
X392   X280    1.428   1_545 A
O409   Zr433   2.124   .     S
O409   X447    1.292   .     A
O410   Zr433   2.114   .     S
O410   H465    0.990   .     S
O411   Zr435   2.120   .     S
O411   X448    1.292   .     A
O412   Zr435   2.116   .     S
O412   H458    0.989   .     S
O413   Zr437   2.118   .     S
O413   X449    1.291   .     A
O414   Zr437   2.113   .     S
O414   H464    0.990   .     S
O415   Zr439   2.116   .     S
O415   X450    1.289   .     A
O416   Zr439   2.115   .     S
O416   H457    0.990   .     S
O417   Zr441   2.118   .     S
O417   X451    1.289   .     A
O418   Zr441   2.118   .     S
O418   H466    0.989   .     S
O419   Zr443   2.118   .     S
O419   X452    1.289   .     A
O420   Zr443   2.118   .     S
O420   H463    0.989   .     S
O421   Zr443   2.116   .     S
O421   X450    1.288   .     A
O422   Zr443   2.117   .     S
O422   H468    0.989   .     S
O423   Zr441   2.113   .     S
O423   X452    1.288   .     A
O424   Zr441   2.117   .     S
O424   H459    0.989   .     S
O425   Zr439   2.114   .     S
O425   X451    1.288   .     A
O426   Zr439   2.122   .     S
O426   H461    0.989   .     S
O427   Zr437   2.121   .     S
O427   X447    1.291   .     A
O428   Zr437   2.114   .     S
O428   H460    0.990   .     S
O429   Zr435   2.120   .     S
O429   X449    1.291   .     A
O430   Zr435   2.118   .     S
O430   H467    0.990   .     S
O431   Zr433   2.117   .     S
O431   X448    1.290   .     A
O432   Zr433   2.113   .     S
O432   H462    0.990   .     S
Zr433  O434    2.118   .     S
Zr433  O445    2.069   .     S
Zr433  O440    2.113   .     S
Zr433  O442    2.109   .     S
O434   Zr439   2.105   .     S
O434   Zr441   2.102   .     S
O434   H453    0.987   .     S
Zr435  O436    2.121   .     S
Zr435  O445    2.068   .     S
Zr435  O444    2.110   .     S
Zr435  O440    2.112   .     S
O436   Zr443   2.106   .     S
O436   Zr439   2.102   .     S
O436   H456    0.989   .     S
Zr437  O438    2.118   .     S
Zr437  O445    2.070   .     S
Zr437  O442    2.109   .     S
Zr437  O444    2.109   .     S
O438   Zr441   2.104   .     S
O438   Zr443   2.105   .     S
O438   H454    0.988   .     S
Zr439  O440    2.130   .     S
Zr439  O446    2.078   .     S
Zr441  O442    2.129   .     S
Zr441  O446    2.079   .     S
Zr443  O444    2.129   .     S
Zr443  O446    2.078   .     S
O445   H455    0.987   .     S
O469   Zr493   2.120   .     S
O469   X507    1.291   .     A
O470   Zr493   2.114   .     S
O470   H525    0.990   .     S
O471   Zr495   2.121   .     S
O471   X508    1.292   .     A
O472   Zr495   2.116   .     S
O472   H518    0.989   .     S
O473   Zr497   2.120   .     S
O473   X509    1.291   .     A
O474   Zr497   2.113   .     S
O474   H524    0.990   .     S
O475   Zr499   2.115   .     S
O475   X510    1.290   .     A
O476   Zr499   2.115   .     S
O476   H517    0.990   .     S
O477   Zr501   2.114   .     S
O477   X511    1.288   .     A
O478   Zr501   2.117   .     S
O478   H526    0.989   .     S
O479   Zr503   2.121   .     S
O479   X512    1.291   .     A
O480   Zr503   2.117   .     S
O480   H523    0.989   .     S
O481   Zr503   2.119   .     S
O481   X510    1.291   .     A
O482   Zr503   2.117   .     S
O482   H528    0.989   .     S
O483   Zr501   2.116   .     S
O483   X512    1.289   .     A
O484   Zr501   2.117   .     S
O484   H519    0.989   .     S
O485   Zr499   2.115   .     S
O485   X511    1.289   .     A
O486   Zr499   2.122   .     S
O486   H521    0.989   .     S
O487   Zr497   2.120   .     S
O487   X507    1.291   .     A
O488   Zr497   2.114   .     S
O488   H520    0.990   .     S
O489   Zr495   2.123   .     S
O489   X509    1.291   .     A
O490   Zr495   2.118   .     S
O490   H527    0.990   .     S
O491   Zr493   2.120   .     S
O491   X508    1.291   .     A
O492   Zr493   2.114   .     S
O492   H522    0.990   .     S
Zr493  O494    2.116   .     S
Zr493  O505    2.070   .     S
Zr493  O500    2.112   .     S
Zr493  O502    2.110   .     S
O494   Zr499   2.104   .     S
O494   Zr501   2.103   .     S
O494   H513    0.987   .     S
Zr495  O496    2.123   .     S
Zr495  O505    2.069   .     S
Zr495  O504    2.110   .     S
Zr495  O500    2.113   .     S
O496   Zr503   2.107   .     S
O496   Zr499   2.102   .     S
O496   H516    0.988   .     S
Zr497  O498    2.120   .     S
Zr497  O505    2.070   .     S
Zr497  O502    2.109   .     S
Zr497  O504    2.108   .     S
O498   Zr501   2.103   .     S
O498   Zr503   2.105   .     S
O498   H514    0.988   .     S
Zr499  O500    2.131   .     S
Zr499  O506    2.078   .     S
Zr501  O502    2.128   .     S
Zr501  O506    2.080   .     S
Zr503  O504    2.132   .     S
Zr503  O506    2.076   .     S
O505   H515    0.988   .     S
X510   X48     1.428   1_455 A
X511   X104    1.501   1_455 S
X512   X19     1.428   1_455 S
O529   Zr553   2.123   .     S
O529   X567    1.292   .     A
O530   Zr553   2.114   .     S
O530   H585    0.990   .     S
O531   Zr555   2.118   .     S
O531   X568    1.291   .     A
O532   Zr555   2.116   .     S
O532   H578    0.989   .     S
O533   Zr557   2.122   .     S
O533   X569    1.291   .     A
O534   Zr557   2.114   .     S
O534   H584    0.990   .     S
O535   Zr559   2.114   .     S
O535   X570    1.290   .     A
O536   Zr559   2.114   .     S
O536   H577    0.990   .     S
O537   Zr561   2.120   .     S
O537   X571    1.291   .     A
O538   Zr561   2.117   .     S
O538   H586    0.989   .     S
O539   Zr563   2.118   .     S
O539   X572    1.290   .     A
O540   Zr563   2.117   .     S
O540   H583    0.989   .     S
O541   Zr563   2.117   .     S
O541   X570    1.290   .     A
O542   Zr563   2.117   .     S
O542   H588    0.989   .     S
O543   Zr561   2.121   .     S
O543   X572    1.291   .     A
O544   Zr561   2.118   .     S
O544   H579    0.989   .     S
O545   Zr559   2.117   .     S
O545   X571    1.290   .     A
O546   Zr559   2.122   .     S
O546   H581    0.989   .     S
O547   Zr557   2.122   .     S
O547   X567    1.292   .     A
O548   Zr557   2.114   .     S
O548   H580    0.990   .     S
O549   Zr555   2.124   .     S
O549   X569    1.292   .     A
O550   Zr555   2.118   .     S
O550   H587    0.990   .     S
O551   Zr553   2.121   .     S
O551   X568    1.292   .     A
O552   Zr553   2.114   .     S
O552   H582    0.990   .     S
Zr553  O554    2.118   .     S
Zr553  O565    2.069   .     S
Zr553  O560    2.112   .     S
Zr553  O562    2.110   .     S
O554   Zr559   2.104   .     S
O554   Zr561   2.104   .     S
O554   H573    0.987   .     S
Zr555  O556    2.123   .     S
Zr555  O565    2.069   .     S
Zr555  O564    2.110   .     S
Zr555  O560    2.114   .     S
O556   Zr563   2.106   .     S
O556   Zr559   2.103   .     S
O556   H576    0.988   .     S
Zr557  O558    2.121   .     S
Zr557  O565    2.070   .     S
Zr557  O562    2.110   .     S
Zr557  O564    2.109   .     S
O558   Zr561   2.104   .     S
O558   Zr563   2.105   .     S
O558   H574    0.988   .     S
Zr559  O560    2.130   .     S
Zr559  O566    2.078   .     S
Zr561  O562    2.132   .     S
Zr561  O566    2.077   .     S
Zr563  O564    2.131   .     S
Zr563  O566    2.077   .     S
O565   H575    0.987   .     S
X570   X100    1.425   1_444 S
X571   X77     1.428   1_444 A
X572   X23     1.429   1_444 A
O589   Zr613   2.120   .     S
O589   X627    1.291   .     A
O590   Zr613   2.113   .     S
O590   H645    0.990   .     S
O591   Zr615   2.122   .     S
O591   X628    1.292   .     A
O592   Zr615   2.116   .     S
O592   H638    0.989   .     S
O593   Zr617   2.121   .     S
O593   X629    1.291   .     A
O594   Zr617   2.114   .     S
O594   H644    0.990   .     S
O595   Zr619   2.114   .     S
O595   X630    1.290   .     A
O596   Zr619   2.114   .     S
O596   H637    0.990   .     S
O597   Zr621   2.119   .     S
O597   X631    1.290   .     A
O598   Zr621   2.118   .     S
O598   H646    0.989   .     S
O599   Zr623   2.118   .     S
O599   X632    1.289   .     A
O600   Zr623   2.117   .     S
O600   H643    0.989   .     S
O601   Zr623   2.118   .     S
O601   X630    1.290   .     A
O602   Zr623   2.117   .     S
O602   H648    0.989   .     S
O603   Zr621   2.112   .     S
O603   X632    1.288   .     A
O604   Zr621   2.117   .     S
O604   H639    0.989   .     S
O605   Zr619   2.118   .     S
O605   X631    1.290   .     A
O606   Zr619   2.122   .     S
O606   H641    0.989   .     S
O607   Zr617   2.119   .     S
O607   X627    1.291   .     A
O608   Zr617   2.114   .     S
O608   H640    0.990   .     S
O609   Zr615   2.123   .     S
O609   X629    1.291   .     A
O610   Zr615   2.118   .     S
O610   H647    0.990   .     S
O611   Zr613   2.120   .     S
O611   X628    1.291   .     A
O612   Zr613   2.114   .     S
O612   H642    0.990   .     S
Zr613  O614    2.118   .     S
Zr613  O625    2.071   .     S
Zr613  O620    2.112   .     S
Zr613  O622    2.110   .     S
O614   Zr619   2.103   .     S
O614   Zr621   2.102   .     S
O614   H633    0.988   .     S
Zr615  O616    2.123   .     S
Zr615  O625    2.069   .     S
Zr615  O624    2.110   .     S
Zr615  O620    2.113   .     S
O616   Zr623   2.106   .     S
O616   Zr619   2.103   .     S
O616   H636    0.989   .     S
Zr617  O618    2.117   .     S
Zr617  O625    2.069   .     S
Zr617  O622    2.109   .     S
Zr617  O624    2.108   .     S
O618   Zr621   2.105   .     S
O618   Zr623   2.105   .     S
O618   H634    0.988   .     S
Zr619  O620    2.131   .     S
Zr619  O626    2.077   .     S
Zr621  O622    2.128   .     S
Zr621  O626    2.078   .     S
Zr623  O624    2.130   .     S
Zr623  O626    2.076   .     S
O625   H635    0.987   .     S
X630   X95     1.426   1_455 A
X631   X271    1.427   1_455 S
X632   X55     1.501   1_455 A
O649   Zr673   2.124   .     S
O649   X687    1.292   .     A
O650   Zr673   2.114   .     S
O650   H705    0.990   .     S
O651   Zr675   2.120   .     S
O651   X688    1.292   .     A
O652   Zr675   2.116   .     S
O652   H698    0.989   .     S
O653   Zr677   2.120   .     S
O653   X689    1.291   .     A
O654   Zr677   2.114   .     S
O654   H704    0.990   .     S
O655   Zr679   2.115   .     S
O655   X690    1.290   .     A
O656   Zr679   2.115   .     S
O656   H697    0.990   .     S
O657   Zr681   2.122   .     S
O657   X691    1.291   .     A
O658   Zr681   2.118   .     S
O658   H706    0.989   .     S
O659   Zr683   2.116   .     S
O659   X692    1.289   .     A
O660   Zr683   2.117   .     S
O660   H703    0.989   .     S
O661   Zr683   2.121   .     S
O661   X690    1.291   .     A
O662   Zr683   2.118   .     S
O662   H708    0.989   .     S
O663   Zr681   2.113   .     S
O663   X692    1.288   .     A
O664   Zr681   2.117   .     S
O664   H699    0.989   .     S
O665   Zr679   2.116   .     S
O665   X691    1.289   .     A
O666   Zr679   2.122   .     S
O666   H701    0.989   .     S
O667   Zr677   2.120   .     S
O667   X687    1.291   .     A
O668   Zr677   2.114   .     S
O668   H700    0.990   .     S
O669   Zr675   2.126   .     S
O669   X689    1.293   .     A
O670   Zr675   2.118   .     S
O670   H707    0.990   .     S
O671   Zr673   2.117   .     S
O671   X688    1.290   .     A
O672   Zr673   2.113   .     S
O672   H702    0.990   .     S
Zr673  O674    2.119   .     S
Zr673  O685    2.069   .     S
Zr673  O680    2.113   .     S
Zr673  O682    2.110   .     S
O674   Zr679   2.104   .     S
O674   Zr681   2.101   .     S
O674   H693    0.988   .     S
Zr675  O676    2.124   .     S
Zr675  O685    2.068   .     S
Zr675  O684    2.109   .     S
Zr675  O680    2.114   .     S
O676   Zr683   2.105   .     S
O676   Zr679   2.102   .     S
O676   H696    0.988   .     S
Zr677  O678    2.118   .     S
Zr677  O685    2.069   .     S
Zr677  O682    2.109   .     S
Zr677  O684    2.109   .     S
O678   Zr681   2.105   .     S
O678   Zr683   2.106   .     S
O678   H694    0.988   .     S
Zr679  O680    2.131   .     S
Zr679  O686    2.078   .     S
Zr681  O682    2.130   .     S
Zr681  O686    2.078   .     S
Zr683  O684    2.131   .     S
Zr683  O686    2.077   .     S
O685   H695    0.987   .     S
X690   X284    1.429   1_545 S
X691   X32     1.429   1_545 A
X692   X10     1.501   1_545 A
O709   Zr733   2.123   .     S
O709   X747    1.292   .     A
O710   Zr733   2.113   .     S
O710   H765    0.990   .     S
O711   Zr735   2.120   .     S
O711   X748    1.292   .     A
O712   Zr735   2.116   .     S
O712   H758    0.989   .     S
O713   Zr737   2.119   .     S
O713   X749    1.291   .     A
O714   Zr737   2.114   .     S
O714   H764    0.990   .     S
O715   Zr739   2.117   .     S
O715   X750    1.291   .     A
O716   Zr739   2.115   .     S
O716   H757    0.990   .     S
O717   Zr741   2.118   .     S
O717   X751    1.290   .     A
O718   Zr741   2.118   .     S
O718   H766    0.989   .     S
O719   Zr743   2.115   .     S
O719   X752    1.288   .     A
O720   Zr743   2.117   .     S
O720   H763    0.989   .     S
O721   Zr743   2.117   .     S
O721   X750    1.290   .     A
O722   Zr743   2.117   .     S
O722   H768    0.989   .     S
O723   Zr741   2.113   .     S
O723   X752    1.288   .     A
O724   Zr741   2.118   .     S
O724   H759    0.989   .     S
O725   Zr739   2.118   .     S
O725   X751    1.290   .     A
O726   Zr739   2.122   .     S
O726   H761    0.989   .     S
O727   Zr737   2.120   .     S
O727   X747    1.291   .     A
O728   Zr737   2.114   .     S
O728   H760    0.990   .     S
O729   Zr735   2.124   .     S
O729   X749    1.291   .     A
O730   Zr735   2.118   .     S
O730   H767    0.990   .     S
O731   Zr733   2.118   .     S
O731   X748    1.291   .     A
O732   Zr733   2.114   .     S
O732   H762    0.990   .     S
Zr733  O734    2.118   .     S
Zr733  O745    2.070   .     S
Zr733  O740    2.113   .     S
Zr733  O742    2.109   .     S
O734   Zr739   2.105   .     S
O734   Zr741   2.102   .     S
O734   H753    0.987   .     S
Zr735  O736    2.123   .     S
Zr735  O745    2.068   .     S
Zr735  O744    2.110   .     S
Zr735  O740    2.113   .     S
O736   Zr743   2.105   .     S
O736   Zr739   2.102   .     S
O736   H756    0.988   .     S
Zr737  O738    2.118   .     S
Zr737  O745    2.070   .     S
Zr737  O742    2.109   .     S
Zr737  O744    2.108   .     S
O738   Zr741   2.104   .     S
O738   Zr743   2.105   .     S
O738   H754    0.988   .     S
Zr739  O740    2.131   .     S
Zr739  O746    2.076   .     S
Zr741  O742    2.129   .     S
Zr741  O746    2.078   .     S
Zr743  O744    2.130   .     S
Zr743  O746    2.077   .     S
O745   H755    0.987   .     S
X750   X262    1.427   1_554 A
X751   X3      1.427   1_554 A
X752   X64     1.500   1_554 S
O769   Zr793   2.121   .     S
O769   X807    1.291   .     A
O770   Zr793   2.113   .     S
O770   H825    0.990   .     S
O771   Zr795   2.119   .     S
O771   X808    1.291   .     A
O772   Zr795   2.116   .     S
O772   H818    0.989   .     S
O773   Zr797   2.120   .     S
O773   X809    1.291   .     A
O774   Zr797   2.114   .     S
O774   H824    0.990   .     S
O775   Zr799   2.114   .     S
O775   X810    1.289   .     A
O776   Zr799   2.115   .     S
O776   H817    0.990   .     S
O777   Zr801   2.117   .     S
O777   X811    1.289   .     A
O778   Zr801   2.118   .     S
O778   H826    0.989   .     S
O779   Zr803   2.117   .     S
O779   X812    1.289   .     A
O780   Zr803   2.117   .     S
O780   H823    0.989   .     S
O781   Zr803   2.120   .     S
O781   X810    1.290   .     A
O782   Zr803   2.117   .     S
O782   H828    0.989   .     S
O783   Zr801   2.116   .     S
O783   X812    1.288   .     A
O784   Zr801   2.118   .     S
O784   H819    0.989   .     S
O785   Zr799   2.113   .     S
O785   X811    1.288   .     A
O786   Zr799   2.122   .     S
O786   H821    0.989   .     S
O787   Zr797   2.121   .     S
O787   X807    1.291   .     A
O788   Zr797   2.114   .     S
O788   H820    0.990   .     S
O789   Zr795   2.122   .     S
O789   X809    1.291   .     A
O790   Zr795   2.118   .     S
O790   H827    0.990   .     S
O791   Zr793   2.118   .     S
O791   X808    1.291   .     A
O792   Zr793   2.114   .     S
O792   H822    0.990   .     S
Zr793  O794    2.116   .     S
Zr793  O805    2.069   .     S
Zr793  O800    2.112   .     S
Zr793  O802    2.110   .     S
O794   Zr799   2.104   .     S
O794   Zr801   2.103   .     S
O794   H813    0.988   .     S
Zr795  O796    2.123   .     S
Zr795  O805    2.069   .     S
Zr795  O804    2.110   .     S
Zr795  O800    2.113   .     S
O796   Zr803   2.106   .     S
O796   Zr799   2.102   .     S
O796   H816    0.988   .     S
Zr797  O798    2.118   .     S
Zr797  O805    2.068   .     S
Zr797  O802    2.109   .     S
Zr797  O804    2.109   .     S
O798   Zr801   2.104   .     S
O798   Zr803   2.106   .     S
O798   H814    0.988   .     S
Zr799  O800    2.129   .     S
Zr799  O806    2.079   .     S
Zr801  O802    2.129   .     S
Zr801  O806    2.079   .     S
Zr803  O804    2.131   .     S
Zr803  O806    2.077   .     S
O805   H815    0.987   .     S
O829   Zr853   2.121   .     S
O829   X867    1.292   .     A
O830   Zr853   2.114   .     S
O830   H885    0.990   .     S
O831   Zr855   2.123   .     S
O831   X868    1.294   .     A
O832   Zr855   2.116   .     S
O832   H878    0.989   .     S
O833   Zr857   2.119   .     S
O833   X869    1.291   .     A
O834   Zr857   2.114   .     S
O834   H884    0.990   .     S
O835   Zr859   2.117   .     S
O835   X870    1.290   .     A
O836   Zr859   2.115   .     S
O836   H877    0.990   .     S
O837   Zr861   2.118   .     S
O837   X871    1.290   .     A
O838   Zr861   2.118   .     S
O838   H886    0.989   .     S
O839   Zr863   2.117   .     S
O839   X872    1.289   .     A
O840   Zr863   2.117   .     S
O840   H883    0.989   .     S
O841   Zr863   2.115   .     S
O841   X870    1.288   .     A
O842   Zr863   2.117   .     S
O842   H888    0.989   .     S
O843   Zr861   2.115   .     S
O843   X872    1.288   .     A
O844   Zr861   2.118   .     S
O844   H879    0.989   .     S
O845   Zr859   2.116   .     S
O845   X871    1.289   .     A
O846   Zr859   2.121   .     S
O846   H881    0.988   .     S
O847   Zr857   2.117   .     S
O847   X867    1.290   .     A
O848   Zr857   2.114   .     S
O848   H880    0.990   .     S
O849   Zr855   2.123   .     S
O849   X869    1.291   .     A
O850   Zr855   2.118   .     S
O850   H887    0.990   .     S
O851   Zr853   2.120   .     S
O851   X868    1.292   .     A
O852   Zr853   2.114   .     S
O852   H882    0.990   .     S
Zr853  O854    2.117   .     S
Zr853  O865    2.069   .     S
Zr853  O860    2.112   .     S
Zr853  O862    2.110   .     S
O854   Zr859   2.105   .     S
O854   Zr861   2.102   .     S
O854   H873    0.988   .     S
Zr855  O856    2.123   .     S
Zr855  O865    2.068   .     S
Zr855  O864    2.110   .     S
Zr855  O860    2.113   .     S
O856   Zr863   2.107   .     S
O856   Zr859   2.102   .     S
O856   H876    0.989   .     S
Zr857  O858    2.117   .     S
Zr857  O865    2.070   .     S
Zr857  O862    2.110   .     S
Zr857  O864    2.108   .     S
O858   Zr861   2.104   .     S
O858   Zr863   2.104   .     S
O858   H874    0.988   .     S
Zr859  O860    2.132   .     S
Zr859  O866    2.078   .     S
Zr861  O862    2.129   .     S
Zr861  O866    2.078   .     S
Zr863  O864    2.129   .     S
Zr863  O866    2.078   .     S
O865   H875    0.987   .     S
X867   X102    1.501   1_554 A
X868   X50     1.427   1_554 S
X869   X73     1.503   1_554 S
O889   Zr913   2.122   .     S
O889   X927    1.292   .     A
O890   Zr913   2.114   .     S
O890   H945    0.990   .     S
O891   Zr915   2.118   .     S
O891   X928    1.291   .     A
O892   Zr915   2.116   .     S
O892   H938    0.989   .     S
O893   Zr917   2.122   .     S
O893   X929    1.292   .     A
O894   Zr917   2.113   .     S
O894   H944    0.990   .     S
O895   Zr919   2.114   .     S
O895   X930    1.289   .     A
O896   Zr919   2.115   .     S
O896   H937    0.990   .     S
O897   Zr921   2.117   .     S
O897   X931    1.289   .     A
O898   Zr921   2.117   .     S
O898   H946    0.989   .     S
O899   Zr923   2.119   .     S
O899   X932    1.290   .     A
O900   Zr923   2.117   .     S
O900   H943    0.989   .     S
O901   Zr923   2.117   .     S
O901   X930    1.289   .     A
O902   Zr923   2.117   .     S
O902   H948    0.989   .     S
O903   Zr921   2.116   .     S
O903   X932    1.289   .     A
O904   Zr921   2.118   .     S
O904   H939    0.989   .     S
O905   Zr919   2.114   .     S
O905   X931    1.289   .     A
O906   Zr919   2.122   .     S
O906   H941    0.989   .     S
O907   Zr917   2.119   .     S
O907   X927    1.292   .     A
O908   Zr917   2.114   .     S
O908   H940    0.990   .     S
O909   Zr915   2.124   .     S
O909   X929    1.292   .     A
O910   Zr915   2.118   .     S
O910   H947    0.990   .     S
O911   Zr913   2.118   .     S
O911   X928    1.290   .     A
O912   Zr913   2.114   .     S
O912   H942    0.990   .     S
Zr913  O914    2.116   .     S
Zr913  O925    2.070   .     S
Zr913  O920    2.112   .     S
Zr913  O922    2.110   .     S
O914   Zr919   2.104   .     S
O914   Zr921   2.103   .     S
O914   H933    0.987   .     S
Zr915  O916    2.122   .     S
Zr915  O925    2.069   .     S
Zr915  O924    2.109   .     S
Zr915  O920    2.114   .     S
O916   Zr923   2.107   .     S
O916   Zr919   2.102   .     S
O916   H936    0.988   .     S
Zr917  O918    2.121   .     S
Zr917  O925    2.070   .     S
Zr917  O922    2.110   .     S
Zr917  O924    2.108   .     S
O918   Zr921   2.104   .     S
O918   Zr923   2.105   .     S
O918   H934    0.987   .     S
Zr919  O920    2.129   .     S
Zr919  O926    2.077   .     S
Zr921  O922    2.129   .     S
Zr921  O926    2.078   .     S
Zr923  O924    2.131   .     S
Zr923  O926    2.076   .     S
O925   H935    0.988   .     S
X927   X174    1.425   1_655 S
X928   X147    1.501   1_655 S
X929   X158    1.428   1_655 S
O949   Zr973   2.125   .     S
O949   X987    1.293   .     A
O950   Zr973   2.114   .     S
O950   H1005   0.990   .     S
O951   Zr975   2.119   .     S
O951   X988    1.291   .     A
O952   Zr975   2.116   .     S
O952   H998    0.989   .     S
O953   Zr977   2.122   .     S
O953   X989    1.291   .     A
O954   Zr977   2.114   .     S
O954   H1004   0.990   .     S
O955   Zr979   2.119   .     S
O955   X990    1.291   .     A
O956   Zr979   2.115   .     S
O956   H997    0.990   .     S
O957   Zr981   2.122   .     S
O957   X991    1.291   .     A
O958   Zr981   2.117   .     S
O958   H1006   0.989   .     S
O959   Zr983   2.115   .     S
O959   X992    1.289   .     A
O960   Zr983   2.117   .     S
O960   H1003   0.989   .     S
O961   Zr983   2.117   .     S
O961   X990    1.290   .     A
O962   Zr983   2.117   .     S
O962   H1008   0.989   .     S
O963   Zr981   2.114   .     S
O963   X992    1.288   .     A
O964   Zr981   2.117   .     S
O964   H999    0.989   .     S
O965   Zr979   2.117   .     S
O965   X991    1.290   .     A
O966   Zr979   2.121   .     S
O966   H1001   0.988   .     S
O967   Zr977   2.117   .     S
O967   X987    1.290   .     A
O968   Zr977   2.114   .     S
O968   H1000   0.990   .     S
O969   Zr975   2.123   .     S
O969   X989    1.292   .     A
O970   Zr975   2.118   .     S
O970   H1007   0.990   .     S
O971   Zr973   2.121   .     S
O971   X988    1.291   .     A
O972   Zr973   2.114   .     S
O972   H1002   0.990   .     S
Zr973  O974    2.119   .     S
Zr973  O985    2.067   .     S
Zr973  O980    2.114   .     S
Zr973  O982    2.110   .     S
O974   Zr979   2.105   .     S
O974   Zr981   2.102   .     S
O974   H993    0.987   .     S
Zr975  O976    2.124   .     S
Zr975  O985    2.069   .     S
Zr975  O984    2.109   .     S
Zr975  O980    2.113   .     S
O976   Zr983   2.105   .     S
O976   Zr979   2.102   .     S
O976   H996    0.988   .     S
Zr977  O978    2.118   .     S
Zr977  O985    2.069   .     S
Zr977  O982    2.111   .     S
Zr977  O984    2.108   .     S
O978   Zr981   2.105   .     S
O978   Zr983   2.105   .     S
O978   H994    0.988   .     S
Zr979  O980    2.133   .     S
Zr979  O986    2.077   .     S
Zr981  O982    2.130   .     S
Zr981  O986    2.078   .     S
Zr983  O984    2.130   .     S
Zr983  O986    2.078   .     S
O985   H995    0.987   .     S
X990   X185    1.428   1_565 A
X991   X255    1.429   1_565 S
X992   X138    1.501   1_565 A
O1009  Zr1033  2.121   .     S
O1009  X1047   1.291   .     A
O1010  Zr1033  2.114   .     S
O1010  H1065   0.990   .     S
O1011  Zr1035  2.120   .     S
O1011  X1048   1.292   .     A
O1012  Zr1035  2.116   .     S
O1012  H1058   0.989   .     S
O1013  Zr1037  2.119   .     S
O1013  X1049   1.291   .     A
O1014  Zr1037  2.114   .     S
O1014  H1064   0.990   .     S
O1015  Zr1039  2.113   .     S
O1015  X1050   1.289   .     A
O1016  Zr1039  2.115   .     S
O1016  H1057   0.990   .     S
O1017  Zr1041  2.118   .     S
O1017  X1051   1.289   .     A
O1018  Zr1041  2.118   .     S
O1018  H1066   0.989   .     S
O1019  Zr1043  2.118   .     S
O1019  X1052   1.289   .     A
O1020  Zr1043  2.117   .     S
O1020  H1063   0.989   .     S
O1021  Zr1043  2.118   .     S
O1021  X1050   1.289   .     A
O1022  Zr1043  2.117   .     S
O1022  H1068   0.989   .     S
O1023  Zr1041  2.113   .     S
O1023  X1052   1.288   .     A
O1024  Zr1041  2.117   .     S
O1024  H1059   0.989   .     S
O1025  Zr1039  2.116   .     S
O1025  X1051   1.289   .     A
O1026  Zr1039  2.122   .     S
O1026  H1061   0.989   .     S
O1027  Zr1037  2.120   .     S
O1027  X1047   1.291   .     A
O1028  Zr1037  2.114   .     S
O1028  H1060   0.990   .     S
O1029  Zr1035  2.122   .     S
O1029  X1049   1.291   .     A
O1030  Zr1035  2.118   .     S
O1030  H1067   0.990   .     S
O1031  Zr1033  2.119   .     S
O1031  X1048   1.291   .     A
O1032  Zr1033  2.114   .     S
O1032  H1062   0.990   .     S
Zr1033 O1034   2.118   .     S
Zr1033 O1045   2.070   .     S
Zr1033 O1040   2.113   .     S
Zr1033 O1042   2.110   .     S
O1034  Zr1039  2.104   .     S
O1034  Zr1041  2.103   .     S
O1034  H1053   0.987   .     S
Zr1035 O1036   2.122   .     S
Zr1035 O1045   2.069   .     S
Zr1035 O1044   2.110   .     S
Zr1035 O1040   2.113   .     S
O1036  Zr1043  2.107   .     S
O1036  Zr1039  2.103   .     S
O1036  H1056   0.988   .     S
Zr1037 O1038   2.118   .     S
Zr1037 O1045   2.070   .     S
Zr1037 O1042   2.109   .     S
Zr1037 O1044   2.109   .     S
O1038  Zr1041  2.104   .     S
O1038  Zr1043  2.105   .     S
O1038  H1054   0.988   .     S
Zr1039 O1040   2.130   .     S
Zr1039 O1046   2.077   .     S
Zr1041 O1042   2.128   .     S
Zr1041 O1046   2.078   .     S
Zr1043 O1044   2.130   .     S
Zr1043 O1046   2.076   .     S
O1045  H1055   0.987   .     S
O1069  Zr1093  2.121   .     S
O1069  X1107   1.292   .     A
O1070  Zr1093  2.114   .     S
O1070  H1125   0.990   .     S
O1071  Zr1095  2.122   .     S
O1071  X1108   1.292   .     A
O1072  Zr1095  2.116   .     S
O1072  H1118   0.989   .     S
O1073  Zr1097  2.118   .     S
O1073  X1109   1.290   .     A
O1074  Zr1097  2.113   .     S
O1074  H1124   0.990   .     S
O1075  Zr1099  2.117   .     S
O1075  X1110   1.290   .     A
O1076  Zr1099  2.114   .     S
O1076  H1117   0.991   .     S
O1077  Zr1101  2.116   .     S
O1077  X1111   1.289   .     A
O1078  Zr1101  2.117   .     S
O1078  H1126   0.989   .     S
O1079  Zr1103  2.116   .     S
O1079  X1112   1.289   .     A
O1080  Zr1103  2.117   .     S
O1080  H1123   0.989   .     S
O1081  Zr1103  2.115   .     S
O1081  X1110   1.288   .     A
O1082  Zr1103  2.117   .     S
O1082  H1128   0.989   .     S
O1083  Zr1101  2.114   .     S
O1083  X1112   1.288   .     A
O1084  Zr1101  2.118   .     S
O1084  H1119   0.989   .     S
O1085  Zr1099  2.117   .     S
O1085  X1111   1.289   .     A
O1086  Zr1099  2.122   .     S
O1086  H1121   0.989   .     S
O1087  Zr1097  2.118   .     S
O1087  X1107   1.291   .     A
O1088  Zr1097  2.114   .     S
O1088  H1120   0.990   .     S
O1089  Zr1095  2.122   .     S
O1089  X1109   1.291   .     A
O1090  Zr1095  2.118   .     S
O1090  H1127   0.990   .     S
O1091  Zr1093  2.120   .     S
O1091  X1108   1.291   .     A
O1092  Zr1093  2.113   .     S
O1092  H1122   0.990   .     S
Zr1093 O1094   2.118   .     S
Zr1093 O1105   2.070   .     S
Zr1093 O1100   2.113   .     S
Zr1093 O1102   2.110   .     S
O1094  Zr1099  2.105   .     S
O1094  Zr1101  2.102   .     S
O1094  H1113   0.987   .     S
Zr1095 O1096   2.123   .     S
Zr1095 O1105   2.068   .     S
Zr1095 O1104   2.110   .     S
Zr1095 O1100   2.113   .     S
O1096  Zr1103  2.106   .     S
O1096  Zr1099  2.102   .     S
O1096  H1116   0.988   .     S
Zr1097 O1098   2.118   .     S
Zr1097 O1105   2.070   .     S
Zr1097 O1102   2.110   .     S
Zr1097 O1104   2.108   .     S
O1098  Zr1101  2.104   .     S
O1098  Zr1103  2.105   .     S
O1098  H1114   0.988   .     S
Zr1099 O1100   2.132   .     S
Zr1099 O1106   2.077   .     S
Zr1101 O1102   2.128   .     S
Zr1101 O1106   2.078   .     S
Zr1103 O1104   2.129   .     S
Zr1103 O1106   2.077   .     S
O1105  H1115   0.987   .     S
O1129  Zr1153  2.121   .     S
O1129  X1167   1.291   .     A
O1130  Zr1153  2.113   .     S
O1130  H1185   0.990   .     S
O1131  Zr1155  2.118   .     S
O1131  X1168   1.291   .     A
O1132  Zr1155  2.116   .     S
O1132  H1178   0.989   .     S
O1133  Zr1157  2.121   .     S
O1133  X1169   1.291   .     A
O1134  Zr1157  2.114   .     S
O1134  H1184   0.990   .     S
O1135  Zr1159  2.115   .     S
O1135  X1170   1.289   .     A
O1136  Zr1159  2.114   .     S
O1136  H1177   0.990   .     S
O1137  Zr1161  2.117   .     S
O1137  X1171   1.289   .     A
O1138  Zr1161  2.117   .     S
O1138  H1186   0.989   .     S
O1139  Zr1163  2.117   .     S
O1139  X1172   1.289   .     A
O1140  Zr1163  2.117   .     S
O1140  H1183   0.989   .     S
O1141  Zr1163  2.118   .     S
O1141  X1170   1.289   .     A
O1142  Zr1163  2.117   .     S
O1142  H1188   0.989   .     S
O1143  Zr1161  2.115   .     S
O1143  X1172   1.288   .     A
O1144  Zr1161  2.118   .     S
O1144  H1179   0.989   .     S
O1145  Zr1159  2.116   .     S
O1145  X1171   1.289   .     A
O1146  Zr1159  2.122   .     S
O1146  H1181   0.988   .     S
O1147  Zr1157  2.117   .     S
O1147  X1167   1.291   .     A
O1148  Zr1157  2.114   .     S
O1148  H1180   0.990   .     S
O1149  Zr1155  2.123   .     S
O1149  X1169   1.292   .     A
O1150  Zr1155  2.118   .     S
O1150  H1187   0.990   .     S
O1151  Zr1153  2.121   .     S
O1151  X1168   1.291   .     A
O1152  Zr1153  2.113   .     S
O1152  H1182   0.990   .     S
Zr1153 O1154   2.116   .     S
Zr1153 O1165   2.068   .     S
Zr1153 O1160   2.112   .     S
Zr1153 O1162   2.110   .     S
O1154  Zr1159  2.104   .     S
O1154  Zr1161  2.102   .     S
O1154  H1173   0.988   .     S
Zr1155 O1156   2.123   .     S
Zr1155 O1165   2.069   .     S
Zr1155 O1164   2.109   .     S
Zr1155 O1160   2.114   .     S
O1156  Zr1163  2.106   .     S
O1156  Zr1159  2.102   .     S
O1156  H1176   0.988   .     S
Zr1157 O1158   2.118   .     S
Zr1157 O1165   2.070   .     S
Zr1157 O1162   2.110   .     S
Zr1157 O1164   2.108   .     S
O1158  Zr1161  2.104   .     S
O1158  Zr1163  2.105   .     S
O1158  H1174   0.988   .     S
Zr1159 O1160   2.131   .     S
Zr1159 O1166   2.079   .     S
Zr1161 O1162   2.128   .     S
Zr1161 O1166   2.080   .     S
Zr1163 O1164   2.131   .     S
Zr1163 O1166   2.078   .     S
O1165  H1175   0.987   .     S
O1189  Zr1213  2.123   .     S
O1189  X1227   1.292   .     A
O1190  Zr1213  2.114   .     S
O1190  H1245   0.990   .     S
O1191  Zr1215  2.120   .     S
O1191  X1228   1.292   .     A
O1192  Zr1215  2.117   .     S
O1192  H1238   0.989   .     S
O1193  Zr1217  2.121   .     S
O1193  X1229   1.291   .     A
O1194  Zr1217  2.114   .     S
O1194  H1244   0.990   .     S
O1195  Zr1219  2.116   .     S
O1195  X1230   1.290   .     A
O1196  Zr1219  2.114   .     S
O1196  H1237   0.990   .     S
O1197  Zr1221  2.120   .     S
O1197  X1231   1.291   .     A
O1198  Zr1221  2.118   .     S
O1198  H1246   0.989   .     S
O1199  Zr1223  2.116   .     S
O1199  X1232   1.289   .     A
O1200  Zr1223  2.117   .     S
O1200  H1243   0.989   .     S
O1201  Zr1223  2.118   .     S
O1201  X1230   1.290   .     A
O1202  Zr1223  2.117   .     S
O1202  H1248   0.989   .     S
O1203  Zr1221  2.115   .     S
O1203  X1232   1.288   .     A
O1204  Zr1221  2.117   .     S
O1204  H1239   0.988   .     S
O1205  Zr1219  2.117   .     S
O1205  X1231   1.290   .     A
O1206  Zr1219  2.122   .     S
O1206  H1241   0.989   .     S
O1207  Zr1217  2.119   .     S
O1207  X1227   1.291   .     A
O1208  Zr1217  2.114   .     S
O1208  H1240   0.990   .     S
O1209  Zr1215  2.123   .     S
O1209  X1229   1.292   .     A
O1210  Zr1215  2.118   .     S
O1210  H1247   0.990   .     S
O1211  Zr1213  2.120   .     S
O1211  X1228   1.291   .     A
O1212  Zr1213  2.114   .     S
O1212  H1242   0.990   .     S
Zr1213 O1214   2.118   .     S
Zr1213 O1225   2.068   .     S
Zr1213 O1220   2.113   .     S
Zr1213 O1222   2.110   .     S
O1214  Zr1219  2.104   .     S
O1214  Zr1221  2.102   .     S
O1214  H1233   0.987   .     S
Zr1215 O1216   2.123   .     S
Zr1215 O1225   2.068   .     S
Zr1215 O1224   2.110   .     S
Zr1215 O1220   2.113   .     S
O1216  Zr1223  2.106   .     S
O1216  Zr1219  2.102   .     S
O1216  H1236   0.989   .     S
Zr1217 O1218   2.118   .     S
Zr1217 O1225   2.068   .     S
Zr1217 O1222   2.110   .     S
Zr1217 O1224   2.109   .     S
O1218  Zr1221  2.105   .     S
O1218  Zr1223  2.105   .     S
O1218  H1234   0.988   .     S
Zr1219 O1220   2.132   .     S
Zr1219 O1226   2.078   .     S
Zr1221 O1222   2.130   .     S
Zr1221 O1226   2.079   .     S
Zr1223 O1224   2.131   .     S
Zr1223 O1226   2.078   .     S
O1225  H1235   0.987   .     S
X1230  X156    1.428   1_556 A
X1231  X212    1.428   1_556 A
X1232  X176    1.503   1_556 A
