data_ja507947d_si_001
_audit_creation_date              2015-10-12
_audit_creation_method            'Materials Studio'
_symmetry_space_group_name_H-M    'P1'
_symmetry_Int_Tables_number       1
_symmetry_cell_setting            triclinic
loop_
_symmetry_equiv_pos_as_xyz
  x,y,z
_cell_length_a                    32.6205
_cell_length_b                    32.6205
_cell_length_c                    32.6205
_cell_angle_alpha                 90.0000
_cell_angle_beta                  90.0000
_cell_angle_gamma                 90.0000
loop_
_atom_site_label
_atom_site_type_symbol
_atom_site_fract_x
_atom_site_fract_y
_atom_site_fract_z
_atom_site_U_iso_or_equiv
_atom_site_adp_type
_atom_site_occupancy
O1     O     0.10460   0.05413  -0.00063   0.00000  Uiso   1.00
O2     O    -0.10639   0.05439   0.00215   0.00000  Uiso   1.00
O3     O     0.00057   0.10414  -0.05504   0.00000  Uiso   1.00
O4     O    -0.00238   0.10435   0.05610   0.00000  Uiso   1.00
O5     O    -0.00256   0.05450   0.10617   0.00000  Uiso   1.00
O6     O     0.00057   0.05414  -0.10485   0.00000  Uiso   1.00
O7     O    -0.05638   0.10429   0.00200   0.00000  Uiso   1.00
O8     O     0.05467   0.10413  -0.00086   0.00000  Uiso   1.00
Zr9    Zr   -0.00089   0.07087   0.00062   0.00000  Uiso   1.00
O10    O    -0.03817   0.03608   0.03791   0.00000  Uiso   1.00
O11    O     0.03632   0.03580  -0.03643   0.00000  Uiso   1.00
X12    C     0.09264   0.09212  -0.00150   0.00000  Uiso   1.00
X13    C    -0.09437   0.09237   0.00281   0.00000  Uiso   1.00
X14    C     0.00127   0.09225  -0.09310   0.00000  Uiso   1.00
X15    C    -0.00323   0.09246   0.09411   0.00000  Uiso   1.00
H16    H    -0.05541   0.05322  -0.05389   0.00000  Uiso   1.00
O17    O    -0.03793   0.03573  -0.03635   0.00000  Uiso   1.00
H18    H     0.05354   0.05330   0.05528   0.00000  Uiso   1.00
O19    O     0.03605   0.03579   0.03779   0.00000  Uiso   1.00
O20    O    -0.10642  -0.05665  -0.00070   0.00000  Uiso   1.00
O21    O     0.10453  -0.05698   0.00240   0.00000  Uiso   1.00
O22    O    -0.05638  -0.00296  -0.10469   0.00000  Uiso   1.00
O23    O    -0.05672   0.00035   0.10631   0.00000  Uiso   1.00
O24    O     0.05439  -0.00259   0.10635   0.00000  Uiso   1.00
O25    O     0.05470   0.00002  -0.10463   0.00000  Uiso   1.00
O26    O    -0.00240  -0.10687  -0.05462   0.00000  Uiso   1.00
O27    O     0.00043  -0.10666   0.05652   0.00000  Uiso   1.00
O28    O    -0.00233  -0.05706  -0.10463   0.00000  Uiso   1.00
O29    O     0.00034  -0.05659   0.10638   0.00000  Uiso   1.00
O30    O    -0.10635  -0.00277  -0.05474   0.00000  Uiso   1.00
O31    O     0.10458   0.00002  -0.05460   0.00000  Uiso   1.00
O32    O     0.10443  -0.00280   0.05646   0.00000  Uiso   1.00
O33    O    -0.10655   0.00031   0.05635   0.00000  Uiso   1.00
O34    O    -0.05652  -0.10668  -0.00062   0.00000  Uiso   1.00
O35    O     0.05460  -0.10684   0.00243   0.00000  Uiso   1.00
Zr36   Zr   -0.07307  -0.00117   0.00080   0.00000  Uiso   1.00
Zr37   Zr    0.07118  -0.00138   0.00088   0.00000  Uiso   1.00
Zr38   Zr   -0.00087  -0.00140  -0.07136   0.00000  Uiso   1.00
Zr39   Zr   -0.00110  -0.00112   0.07295   0.00000  Uiso   1.00
Zr40   Zr   -0.00095  -0.07342   0.00090   0.00000  Uiso   1.00
O41    O     0.03615  -0.03842   0.03811   0.00000  Uiso   1.00
O42    O    -0.03810  -0.03846  -0.03631   0.00000  Uiso   1.00
X43    C    -0.09448  -0.09464  -0.00144   0.00000  Uiso   1.00
X44    C     0.09269  -0.09506   0.00314   0.00000  Uiso   1.00
X45    C    -0.09435  -0.00366  -0.09271   0.00000  Uiso   1.00
X46    C    -0.09479   0.00104   0.09445   0.00000  Uiso   1.00
X47    C     0.09239  -0.00345   0.09442   0.00000  Uiso   1.00
X48    C     0.09266   0.00076  -0.09259   0.00000  Uiso   1.00
X49    C    -0.00309  -0.09512  -0.09272   0.00000  Uiso   1.00
X50    C     0.00112  -0.09460   0.09449   0.00000  Uiso   1.00
H51    H     0.05363  -0.05598  -0.05363   0.00000  Uiso   1.00
O52    O     0.03613  -0.03843  -0.03618   0.00000  Uiso   1.00
H53    H    -0.05559  -0.05568   0.05539   0.00000  Uiso   1.00
O54    O    -0.03805  -0.03823   0.03788   0.00000  Uiso   1.00
O55    O     0.60426   0.55488  -0.00076   0.00000  Uiso   1.00
O56    O     0.39325   0.55471   0.00204   0.00000  Uiso   1.00
O57    O     0.50021   0.60459  -0.05517   0.00000  Uiso   1.00
O58    O     0.49714   0.60482   0.05593   0.00000  Uiso   1.00
O59    O     0.49720   0.55501   0.10606   0.00000  Uiso   1.00
O60    O     0.50038   0.55454  -0.10490   0.00000  Uiso   1.00
O61    O     0.44313   0.60474   0.00185   0.00000  Uiso   1.00
O62    O     0.55421   0.60476  -0.00101   0.00000  Uiso   1.00
Zr63   Zr    0.49873   0.57138   0.00051   0.00000  Uiso   1.00
O64    O     0.46163   0.53648   0.03786   0.00000  Uiso   1.00
O65    O     0.53607   0.53637  -0.03647   0.00000  Uiso   1.00
X66    C     0.59220   0.59283  -0.00167   0.00000  Uiso   1.00
X67    C     0.40515   0.59273   0.00264   0.00000  Uiso   1.00
X68    C     0.50102   0.59265  -0.09321   0.00000  Uiso   1.00
X69    C     0.49637   0.59293   0.09394   0.00000  Uiso   1.00
H70    H     0.44429   0.55358  -0.05399   0.00000  Uiso   1.00
O71    O     0.46179   0.53614  -0.03643   0.00000  Uiso   1.00
H72    H     0.55327   0.55400   0.05520   0.00000  Uiso   1.00
O73    O     0.53581   0.53642   0.03774   0.00000  Uiso   1.00
O74    O     0.39349   0.44361  -0.00061   0.00000  Uiso   1.00
O75    O     0.60447   0.44384   0.00251   0.00000  Uiso   1.00
O76    O     0.44344   0.49738  -0.10473   0.00000  Uiso   1.00
O77    O     0.44326   0.50084   0.10631   0.00000  Uiso   1.00
O78    O     0.55439   0.49820   0.10643   0.00000  Uiso   1.00
O79    O     0.55459   0.50052  -0.10463   0.00000  Uiso   1.00
O80    O     0.49760   0.39362  -0.05446   0.00000  Uiso   1.00
O81    O     0.50045   0.39387   0.05659   0.00000  Uiso   1.00
O82    O     0.49760   0.44343  -0.10458   0.00000  Uiso   1.00
O83    O     0.50038   0.44393   0.10644   0.00000  Uiso   1.00
O84    O     0.39348   0.49746  -0.05476   0.00000  Uiso   1.00
O85    O     0.60443   0.50067  -0.05466   0.00000  Uiso   1.00
O86    O     0.60442   0.49813   0.05654   0.00000  Uiso   1.00
O87    O     0.39334   0.50072   0.05631   0.00000  Uiso   1.00
O88    O     0.44350   0.39370  -0.00047   0.00000  Uiso   1.00
O89    O     0.55457   0.39382   0.00256   0.00000  Uiso   1.00
Zr90   Zr    0.42674   0.49919   0.00078   0.00000  Uiso   1.00
Zr91   Zr    0.57105   0.49932   0.00089   0.00000  Uiso   1.00
Zr92   Zr    0.49897   0.49907  -0.07136   0.00000  Uiso   1.00
Zr93   Zr    0.49885   0.49940   0.07296   0.00000  Uiso   1.00
Zr94   Zr    0.49900   0.42711   0.00099   0.00000  Uiso   1.00
O95    O     0.53613   0.46217   0.03815   0.00000  Uiso   1.00
O96    O     0.46181   0.46196  -0.03629   0.00000  Uiso   1.00
X97    C     0.40551   0.40564  -0.00129   0.00000  Uiso   1.00
X98    C     0.59254   0.40584   0.00331   0.00000  Uiso   1.00
X99    C     0.40546   0.49660  -0.09273   0.00000  Uiso   1.00
X100   C     0.40527   0.50152   0.09432   0.00000  Uiso   1.00
X101   C     0.59242   0.49751   0.09454   0.00000  Uiso   1.00
X102   C     0.59265   0.50130  -0.09275   0.00000  Uiso   1.00
X103   C     0.49688   0.40547  -0.09249   0.00000  Uiso   1.00
X104   C     0.50117   0.40592   0.09455   0.00000  Uiso   1.00
H105   H     0.55357   0.44464  -0.05356   0.00000  Uiso   1.00
O106   O     0.53603   0.46216  -0.03611   0.00000  Uiso   1.00
H107   H     0.44438   0.44476   0.05545   0.00000  Uiso   1.00
O108   O     0.46186   0.46225   0.03792   0.00000  Uiso   1.00
O109   O     0.10365   0.55425   0.50000   0.00000  Uiso   1.00
O110   O    -0.10734   0.55467   0.50306   0.00000  Uiso   1.00
O111   O    -0.00032   0.60451   0.44620   0.00000  Uiso   1.00
O112   O    -0.00317   0.60431   0.55731   0.00000  Uiso   1.00
O113   O    -0.00321   0.55424   0.60717   0.00000  Uiso   1.00
O114   O    -0.00043   0.55467   0.39611   0.00000  Uiso   1.00
O115   O    -0.05733   0.60447   0.50320   0.00000  Uiso   1.00
O116   O     0.05376   0.60430   0.50020   0.00000  Uiso   1.00
Zr117  Zr   -0.00183   0.57104   0.50167   0.00000  Uiso   1.00
O118   O    -0.03906   0.53607   0.53879   0.00000  Uiso   1.00
O119   O     0.03525   0.53609   0.46434   0.00000  Uiso   1.00
X120   C     0.09173   0.59226   0.49935   0.00000  Uiso   1.00
X121   C    -0.09542   0.59271   0.50386   0.00000  Uiso   1.00
X122   C     0.00040   0.59262   0.40818   0.00000  Uiso   1.00
X123   C    -0.00388   0.59228   0.59529   0.00000  Uiso   1.00
H124   H    -0.05644   0.55367   0.44706   0.00000  Uiso   1.00
O125   O    -0.03895   0.53611   0.46451   0.00000  Uiso   1.00
H126   H     0.05272   0.55321   0.55609   0.00000  Uiso   1.00
O127   O     0.03518   0.53577   0.53857   0.00000  Uiso   1.00
O128   O    -0.10744   0.44357   0.49983   0.00000  Uiso   1.00
O129   O     0.10355   0.44318   0.50269   0.00000  Uiso   1.00
O130   O    -0.05764   0.49781   0.39595   0.00000  Uiso   1.00
O131   O    -0.05747   0.50021   0.60700   0.00000  Uiso   1.00
O132   O     0.05367   0.49707   0.60690   0.00000  Uiso   1.00
O133   O     0.05351   0.50050   0.39588   0.00000  Uiso   1.00
O134   O    -0.00354   0.39350   0.44571   0.00000  Uiso   1.00
O135   O    -0.00059   0.39322   0.55683   0.00000  Uiso   1.00
O136   O    -0.00360   0.44358   0.39585   0.00000  Uiso   1.00
O137   O    -0.00055   0.44305   0.60693   0.00000  Uiso   1.00
O138   O    -0.10752   0.49781   0.44588   0.00000  Uiso   1.00
O139   O     0.10353   0.50032   0.44578   0.00000  Uiso   1.00
O140   O     0.10359   0.49713   0.55688   0.00000  Uiso   1.00
O141   O    -0.10745   0.50041   0.55705   0.00000  Uiso   1.00
O142   O    -0.05754   0.39354   0.49975   0.00000  Uiso   1.00
O143   O     0.05353   0.39328   0.50268   0.00000  Uiso   1.00
Zr144  Zr   -0.07409   0.49906   0.50147   0.00000  Uiso   1.00
Zr145  Zr    0.07022   0.49876   0.50138   0.00000  Uiso   1.00
Zr146  Zr   -0.00202   0.49905   0.42930   0.00000  Uiso   1.00
Zr147  Zr   -0.00191   0.49872   0.57366   0.00000  Uiso   1.00
Zr148  Zr   -0.00198   0.42674   0.50133   0.00000  Uiso   1.00
O149   O     0.03524   0.46157   0.53857   0.00000  Uiso   1.00
O150   O    -0.03919   0.46185   0.46423   0.00000  Uiso   1.00
X151   C    -0.09549   0.40559   0.49898   0.00000  Uiso   1.00
X152   C     0.09155   0.40519   0.50339   0.00000  Uiso   1.00
X153   C    -0.09572   0.49716   0.40778   0.00000  Uiso   1.00
X154   C    -0.09547   0.50104   0.59505   0.00000  Uiso   1.00
X155   C     0.09164   0.49630   0.59487   0.00000  Uiso   1.00
X156   C     0.09153   0.50117   0.40780   0.00000  Uiso   1.00
X157   C    -0.00433   0.40556   0.40774   0.00000  Uiso   1.00
X158   C     0.00015   0.40507   0.59488   0.00000  Uiso   1.00
H159   H     0.05250   0.44438   0.44674   0.00000  Uiso   1.00
O160   O     0.03504   0.46187   0.46429   0.00000  Uiso   1.00
H161   H    -0.05652   0.44433   0.55590   0.00000  Uiso   1.00
O162   O    -0.03900   0.46185   0.53843   0.00000  Uiso   1.00
O163   O     0.60460   0.05403   0.49923   0.00000  Uiso   1.00
O164   O     0.39362   0.05383   0.50245   0.00000  Uiso   1.00
O165   O     0.50049   0.10406   0.44555   0.00000  Uiso   1.00
O166   O     0.49770   0.10375   0.55660   0.00000  Uiso   1.00
O167   O     0.49788   0.05367   0.60643   0.00000  Uiso   1.00
O168   O     0.50060   0.05425   0.39544   0.00000  Uiso   1.00
O169   O     0.44349   0.10387   0.50255   0.00000  Uiso   1.00
O170   O     0.55454   0.10389   0.49948   0.00000  Uiso   1.00
Zr171  Zr    0.49909   0.07053   0.50097   0.00000  Uiso   1.00
O172   O     0.46202   0.03546   0.53814   0.00000  Uiso   1.00
O173   O     0.53635   0.03574   0.46366   0.00000  Uiso   1.00
X174   C     0.59252   0.09198   0.49859   0.00000  Uiso   1.00
X175   C     0.40551   0.09185   0.50326   0.00000  Uiso   1.00
X176   C     0.50128   0.09220   0.40752   0.00000  Uiso   1.00
X177   C     0.49705   0.09168   0.59455   0.00000  Uiso   1.00
H178   H     0.44456   0.05303   0.44642   0.00000  Uiso   1.00
O179   O     0.46210   0.03551   0.46386   0.00000  Uiso   1.00
H180   H     0.55376   0.05283   0.55535   0.00000  Uiso   1.00
O181   O     0.53626   0.03535   0.53784   0.00000  Uiso   1.00
O182   O     0.39380  -0.05719   0.49933   0.00000  Uiso   1.00
O183   O     0.60480  -0.05709   0.50201   0.00000  Uiso   1.00
O184   O     0.44365  -0.00287   0.39536   0.00000  Uiso   1.00
O185   O     0.44384  -0.00039   0.60634   0.00000  Uiso   1.00
O186   O     0.55488  -0.00331   0.60614   0.00000  Uiso   1.00
O187   O     0.55474   0.00010   0.39515   0.00000  Uiso   1.00
O188   O     0.49770  -0.10692   0.44508   0.00000  Uiso   1.00
O189   O     0.50082  -0.10728   0.55619   0.00000  Uiso   1.00
O190   O     0.49763  -0.05681   0.39525   0.00000  Uiso   1.00
O191   O     0.50082  -0.05742   0.60624   0.00000  Uiso   1.00
O192   O     0.39374  -0.00309   0.44538   0.00000  Uiso   1.00
O193   O     0.60477  -0.00002   0.44503   0.00000  Uiso   1.00
O194   O     0.60480  -0.00310   0.55613   0.00000  Uiso   1.00
O195   O     0.39382  -0.00030   0.55644   0.00000  Uiso   1.00
O196   O     0.44376  -0.10716   0.49920   0.00000  Uiso   1.00
O197   O     0.55488  -0.10710   0.50202   0.00000  Uiso   1.00
Zr198  Zr    0.42710  -0.00165   0.50088   0.00000  Uiso   1.00
Zr199  Zr    0.57140  -0.00157   0.50064   0.00000  Uiso   1.00
Zr200  Zr    0.49921  -0.00139   0.42865   0.00000  Uiso   1.00
Zr201  Zr    0.49931  -0.00180   0.57293   0.00000  Uiso   1.00
Zr202  Zr    0.49930  -0.07377   0.50069   0.00000  Uiso   1.00
O203   O     0.53652  -0.03885   0.53785   0.00000  Uiso   1.00
O204   O     0.46210  -0.03869   0.46360   0.00000  Uiso   1.00
X205   C     0.40577  -0.09517   0.49851   0.00000  Uiso   1.00
X206   C     0.59286  -0.09509   0.50275   0.00000  Uiso   1.00
X207   C     0.40568  -0.00373   0.40739   0.00000  Uiso   1.00
X208   C     0.40585   0.00039   0.59440   0.00000  Uiso   1.00
X209   C     0.59284  -0.00398   0.59412   0.00000  Uiso   1.00
X210   C     0.59277   0.00079   0.40704   0.00000  Uiso   1.00
X211   C     0.49686  -0.09480   0.40715   0.00000  Uiso   1.00
X212   C     0.50156  -0.09540   0.59421   0.00000  Uiso   1.00
H213   H     0.55377  -0.05601   0.44606   0.00000  Uiso   1.00
O214   O     0.53627  -0.03856   0.46361   0.00000  Uiso   1.00
H215   H     0.44478  -0.05632   0.55531   0.00000  Uiso   1.00
O216   O     0.46225  -0.03878   0.53782   0.00000  Uiso   1.00
C217   C     0.18616   0.18586  -0.00413   0.00000  Uiso   1.00
C218   C     0.19692   0.14413  -0.00362   0.00000  Uiso   1.00
C219   C     0.16666   0.11375  -0.00292   0.00000  Uiso   1.00
X220   C     0.12484   0.12434  -0.00275   0.00000  Uiso   1.00
C221   C     0.11412   0.16612  -0.00354   0.00000  Uiso   1.00
C222   C     0.14439   0.19646  -0.00420   0.00000  Uiso   1.00
C223   C     0.21834   0.21821  -0.00429   0.00000  Uiso   1.00
C224   C     0.21360   0.25396   0.01932   0.00000  Uiso   1.00
C225   C     0.24387   0.28432   0.01934   0.00000  Uiso   1.00
C226   C     0.27965   0.27970  -0.00424   0.00000  Uiso   1.00
C227   C     0.28439   0.24396  -0.02788   0.00000  Uiso   1.00
C228   C     0.25411   0.21359  -0.02790   0.00000  Uiso   1.00
C229   C     0.31193   0.31196  -0.00401   0.00000  Uiso   1.00
C230   C     0.35368   0.30128  -0.00349   0.00000  Uiso   1.00
C231   C     0.38400   0.33160  -0.00275   0.00000  Uiso   1.00
X232   C     0.37333   0.37340  -0.00253   0.00000  Uiso   1.00
C233   C     0.33153   0.38405  -0.00331   0.00000  Uiso   1.00
C234   C     0.30124   0.35371  -0.00402   0.00000  Uiso   1.00
H235   H     0.22880   0.13493  -0.00306   0.00000  Uiso   1.00
H236   H     0.17613   0.08194  -0.00228   0.00000  Uiso   1.00
H237   H     0.08227   0.17550  -0.00363   0.00000  Uiso   1.00
H238   H     0.13506   0.22830  -0.00519   0.00000  Uiso   1.00
H239   H     0.18676   0.25818   0.03838   0.00000  Uiso   1.00
H240   H     0.23957   0.31114   0.03843   0.00000  Uiso   1.00
H241   H     0.31128   0.23974  -0.04687   0.00000  Uiso   1.00
H242   H     0.25842   0.18673  -0.04691   0.00000  Uiso   1.00
H243   H     0.36295   0.26942  -0.00296   0.00000  Uiso   1.00
H244   H     0.41582   0.32218  -0.00211   0.00000  Uiso   1.00
H245   H     0.32210   0.41587  -0.00337   0.00000  Uiso   1.00
H246   H     0.26939   0.36298  -0.00501   0.00000  Uiso   1.00
C247   C     0.18553   0.68577   0.49649   0.00000  Uiso   1.00
C248   C     0.19615   0.64400   0.49678   0.00000  Uiso   1.00
C249   C     0.16579   0.61371   0.49758   0.00000  Uiso   1.00
X250   C     0.12400   0.62442   0.49808   0.00000  Uiso   1.00
C251   C     0.11342   0.66624   0.49754   0.00000  Uiso   1.00
C252   C     0.14379   0.69650   0.49678   0.00000  Uiso   1.00
C253   C     0.21785   0.71802   0.49617   0.00000  Uiso   1.00
C254   C     0.21341   0.75376   0.51986   0.00000  Uiso   1.00
C255   C     0.24382   0.78398   0.51976   0.00000  Uiso   1.00
C256   C     0.27946   0.77925   0.49597   0.00000  Uiso   1.00
C257   C     0.28391   0.74352   0.47226   0.00000  Uiso   1.00
C258   C     0.25348   0.71328   0.47235   0.00000  Uiso   1.00
C259   C     0.31187   0.81140   0.49604   0.00000  Uiso   1.00
C260   C     0.35360   0.80059   0.49626   0.00000  Uiso   1.00
C261   C     0.38403   0.83082   0.49689   0.00000  Uiso   1.00
X262   C     0.37350   0.87266   0.49729   0.00000  Uiso   1.00
C263   C     0.33173   0.88342   0.49678   0.00000  Uiso   1.00
C264   C     0.30134   0.85319   0.49619   0.00000  Uiso   1.00
H265   H     0.22800   0.63468   0.49709   0.00000  Uiso   1.00
H266   H     0.17518   0.58188   0.49803   0.00000  Uiso   1.00
H267   H     0.08160   0.67572   0.49771   0.00000  Uiso   1.00
H268   H     0.13455   0.72837   0.49597   0.00000  Uiso   1.00
H269   H     0.18670   0.75806   0.53908   0.00000  Uiso   1.00
H270   H     0.23974   0.81079   0.53890   0.00000  Uiso   1.00
H271   H     0.31067   0.73920   0.45311   0.00000  Uiso   1.00
H272   H     0.25758   0.68643   0.45328   0.00000  Uiso   1.00
H273   H     0.36277   0.76870   0.49665   0.00000  Uiso   1.00
H274   H     0.41583   0.82131   0.49731   0.00000  Uiso   1.00
H275   H     0.32238   0.91527   0.49687   0.00000  Uiso   1.00
H276   H     0.26950   0.86257   0.49542   0.00000  Uiso   1.00
C277   C     0.81166   0.81212  -0.00445   0.00000  Uiso   1.00
C278   C     0.80112   0.85390  -0.00433   0.00000  Uiso   1.00
C279   C     0.83152   0.88409  -0.00353   0.00000  Uiso   1.00
X280   C     0.87326   0.87327  -0.00278   0.00000  Uiso   1.00
C281   C     0.88379   0.83144  -0.00315   0.00000  Uiso   1.00
C282   C     0.85336   0.80126  -0.00398   0.00000  Uiso   1.00
C283   C     0.77928   0.78003  -0.00476   0.00000  Uiso   1.00
C284   C     0.78380   0.74445  -0.02865   0.00000  Uiso   1.00
C285   C     0.75342   0.71419  -0.02870   0.00000  Uiso   1.00
C286   C     0.71781   0.71881  -0.00488   0.00000  Uiso   1.00
C287   C     0.71326   0.75443   0.01895   0.00000  Uiso   1.00
C288   C     0.74363   0.78467   0.01901   0.00000  Uiso   1.00
C289   C     0.68562   0.68652  -0.00464   0.00000  Uiso   1.00
C290   C     0.64386   0.69716  -0.00454   0.00000  Uiso   1.00
C291   C     0.61360   0.66682  -0.00378   0.00000  Uiso   1.00
X292   C     0.62434   0.62506  -0.00303   0.00000  Uiso   1.00
C293   C     0.66615   0.61445  -0.00337   0.00000  Uiso   1.00
C294   C     0.69639   0.64480  -0.00417   0.00000  Uiso   1.00
H295   H     0.76930   0.86329  -0.00528   0.00000  Uiso   1.00
H296   H     0.82220   0.91596  -0.00348   0.00000  Uiso   1.00
H297   H     0.91558   0.82190  -0.00255   0.00000  Uiso   1.00
H298   H     0.86249   0.76935  -0.00356   0.00000  Uiso   1.00
H299   H     0.81060   0.74024  -0.04778   0.00000  Uiso   1.00
H300   H     0.75756   0.68741  -0.04787   0.00000  Uiso   1.00
H301   H     0.68652   0.75861   0.03817   0.00000  Uiso   1.00
H302   H     0.73952   0.81139   0.03827   0.00000  Uiso   1.00
H303   H     0.63455   0.72900  -0.00548   0.00000  Uiso   1.00
H304   H     0.58175   0.67620  -0.00374   0.00000  Uiso   1.00
H305   H     0.67563   0.58264  -0.00277   0.00000  Uiso   1.00
H306   H     0.72828   0.63560  -0.00372   0.00000  Uiso   1.00
C307   C     0.81096   0.31212   0.49581   0.00000  Uiso   1.00
C308   C     0.80026   0.35385   0.49610   0.00000  Uiso   1.00
C309   C     0.83055   0.38415   0.49695   0.00000  Uiso   1.00
X310   C     0.87233   0.37345   0.49758   0.00000  Uiso   1.00
C311   C     0.88299   0.33165   0.49705   0.00000  Uiso   1.00
C312   C     0.85268   0.30138   0.49617   0.00000  Uiso   1.00
C313   C     0.77873   0.27990   0.49549   0.00000  Uiso   1.00
C314   C     0.78333   0.24443   0.47145   0.00000  Uiso   1.00
C315   C     0.75314   0.21401   0.47145   0.00000  Uiso   1.00
C316   C     0.71763   0.21835   0.49548   0.00000  Uiso   1.00
C317   C     0.71300   0.25386   0.51946   0.00000  Uiso   1.00
C318   C     0.74319   0.28427   0.51947   0.00000  Uiso   1.00
C319   C     0.68560   0.18593   0.49572   0.00000  Uiso   1.00
C320   C     0.64382   0.19643   0.49594   0.00000  Uiso   1.00
C321   C     0.61368   0.16600   0.49669   0.00000  Uiso   1.00
X322   C     0.62457   0.12426   0.49729   0.00000  Uiso   1.00
C323   C     0.66641   0.11379   0.49682   0.00000  Uiso   1.00
C324   C     0.69654   0.14426   0.49603   0.00000  Uiso   1.00
H325   H     0.76840   0.36313   0.49526   0.00000  Uiso   1.00
H326   H     0.82114   0.41599   0.49713   0.00000  Uiso   1.00
H327   H     0.91481   0.32221   0.49756   0.00000  Uiso   1.00
H328   H     0.86192   0.26950   0.49647   0.00000  Uiso   1.00
H329   H     0.81006   0.24044   0.45218   0.00000  Uiso   1.00
H330   H     0.75732   0.18731   0.45216   0.00000  Uiso   1.00
H331   H     0.68634   0.25781   0.53883   0.00000  Uiso   1.00
H332   H     0.73903   0.31090   0.53884   0.00000  Uiso   1.00
H333   H     0.63439   0.22824   0.49511   0.00000  Uiso   1.00
H334   H     0.58180   0.17527   0.49682   0.00000  Uiso   1.00
H335   H     0.67599   0.08200   0.49730   0.00000  Uiso   1.00
H336   H     0.72847   0.13518   0.49637   0.00000  Uiso   1.00
C337   C     0.81220   0.18625   0.00559   0.00000  Uiso   1.00
C338   C     0.85399   0.19681   0.00528   0.00000  Uiso   1.00
C339   C     0.88423   0.16642   0.00453   0.00000  Uiso   1.00
X340   C     0.87347   0.12465   0.00404   0.00000  Uiso   1.00
C341   C     0.83164   0.11411   0.00456   0.00000  Uiso   1.00
C342   C     0.80141   0.14452   0.00534   0.00000  Uiso   1.00
C343   C     0.78003   0.21863   0.00591   0.00000  Uiso   1.00
C344   C     0.74442   0.21407   0.02978   0.00000  Uiso   1.00
C345   C     0.71412   0.24443   0.02988   0.00000  Uiso   1.00
C346   C     0.71867   0.28011   0.00610   0.00000  Uiso   1.00
C347   C     0.75431   0.28468  -0.01772   0.00000  Uiso   1.00
C348   C     0.78460   0.25433  -0.01781   0.00000  Uiso   1.00
C349   C     0.68634   0.31233   0.00595   0.00000  Uiso   1.00
C350   C     0.69694   0.35410   0.00569   0.00000  Uiso   1.00
C351   C     0.66658   0.38438   0.00504   0.00000  Uiso   1.00
X352   C     0.62480   0.37366   0.00457   0.00000  Uiso   1.00
C353   C     0.61422   0.33184   0.00506   0.00000  Uiso   1.00
C354   C     0.64460   0.30158   0.00575   0.00000  Uiso   1.00
H355   H     0.86336   0.22864   0.00605   0.00000  Uiso   1.00
H356   H     0.91609   0.17577   0.00435   0.00000  Uiso   1.00
H357   H     0.82214   0.08230   0.00415   0.00000  Uiso   1.00
H358   H     0.76952   0.13534   0.00506   0.00000  Uiso   1.00
H359   H     0.74024   0.18726   0.04889   0.00000  Uiso   1.00
H360   H     0.68736   0.24024   0.04906   0.00000  Uiso   1.00
H361   H     0.75847   0.31144  -0.03691   0.00000  Uiso   1.00
H362   H     0.81131   0.25850  -0.03707   0.00000  Uiso   1.00
H363   H     0.72878   0.36343   0.00643   0.00000  Uiso   1.00
H364   H     0.67596   0.41622   0.00487   0.00000  Uiso   1.00
H365   H     0.58240   0.32236   0.00467   0.00000  Uiso   1.00
H366   H     0.63538   0.26970   0.00543   0.00000  Uiso   1.00
C367   C     0.81263   0.68519   0.50631   0.00000  Uiso   1.00
C368   C     0.85440   0.69570   0.50621   0.00000  Uiso   1.00
C369   C     0.88467   0.66533   0.50562   0.00000  Uiso   1.00
X370   C     0.87404   0.62340   0.50503   0.00000  Uiso   1.00
C371   C     0.83205   0.61302   0.50539   0.00000  Uiso   1.00
C372   C     0.80185   0.64348   0.50603   0.00000  Uiso   1.00
C373   C     0.78044   0.71760   0.50639   0.00000  Uiso   1.00
C374   C     0.74463   0.71305   0.52996   0.00000  Uiso   1.00
C375   C     0.71431   0.74341   0.52980   0.00000  Uiso   1.00
C376   C     0.71904   0.77909   0.50606   0.00000  Uiso   1.00
C377   C     0.75488   0.78365   0.48254   0.00000  Uiso   1.00
C378   C     0.78518   0.75330   0.48270   0.00000  Uiso   1.00
C379   C     0.68668   0.81133   0.50566   0.00000  Uiso   1.00
C380   C     0.69728   0.85312   0.50541   0.00000  Uiso   1.00
C381   C     0.66692   0.88341   0.50461   0.00000  Uiso   1.00
X382   C     0.62513   0.87271   0.50400   0.00000  Uiso   1.00
C383   C     0.61455   0.83088   0.50444   0.00000  Uiso   1.00
C384   C     0.64494   0.80061   0.50528   0.00000  Uiso   1.00
H385   H     0.86376   0.72754   0.50703   0.00000  Uiso   1.00
H386   H     0.91645   0.67495   0.50558   0.00000  Uiso   1.00
H387   H     0.82224   0.58130   0.50494   0.00000  Uiso   1.00
H388   H     0.76995   0.63432   0.50559   0.00000  Uiso   1.00
H389   H     0.74029   0.68624   0.54905   0.00000  Uiso   1.00
H390   H     0.68740   0.73921   0.54877   0.00000  Uiso   1.00
H391   H     0.75920   0.81041   0.46338   0.00000  Uiso   1.00
H392   H     0.81204   0.75748   0.46365   0.00000  Uiso   1.00
H393   H     0.72912   0.86245   0.50629   0.00000  Uiso   1.00
H394   H     0.67630   0.91525   0.50449   0.00000  Uiso   1.00
H395   H     0.58274   0.82141   0.50394   0.00000  Uiso   1.00
H396   H     0.63571   0.76873   0.50493   0.00000  Uiso   1.00
C397   C     0.18520   0.31132   0.50591   0.00000  Uiso   1.00
C398   C     0.19589   0.35308   0.50566   0.00000  Uiso   1.00
C399   C     0.16560   0.38347   0.50498   0.00000  Uiso   1.00
X400   C     0.12377   0.37290   0.50455   0.00000  Uiso   1.00
C401   C     0.11309   0.33110   0.50503   0.00000  Uiso   1.00
C402   C     0.14340   0.30073   0.50568   0.00000  Uiso   1.00
C403   C     0.21747   0.27895   0.50615   0.00000  Uiso   1.00
C404   C     0.21285   0.24312   0.48261   0.00000  Uiso   1.00
C405   C     0.24322   0.21282   0.48261   0.00000  Uiso   1.00
C406   C     0.27904   0.21754   0.50614   0.00000  Uiso   1.00
C407   C     0.28365   0.25334   0.52973   0.00000  Uiso   1.00
C408   C     0.25327   0.28365   0.52973   0.00000  Uiso   1.00
C409   C     0.31148   0.18534   0.50592   0.00000  Uiso   1.00
C410   C     0.35323   0.19611   0.50566   0.00000  Uiso   1.00
C411   C     0.38367   0.16588   0.50495   0.00000  Uiso   1.00
X412   C     0.37318   0.12402   0.50451   0.00000  Uiso   1.00
C413   C     0.33139   0.11328   0.50503   0.00000  Uiso   1.00
C414   C     0.30098   0.14352   0.50570   0.00000  Uiso   1.00
H415   H     0.22777   0.36232   0.50531   0.00000  Uiso   1.00
H416   H     0.17507   0.41528   0.50457   0.00000  Uiso   1.00
H417   H     0.08125   0.32171   0.50491   0.00000  Uiso   1.00
H418   H     0.13407   0.26889   0.50645   0.00000  Uiso   1.00
H419   H     0.18601   0.23880   0.46356   0.00000  Uiso   1.00
H420   H     0.23897   0.18598   0.46355   0.00000  Uiso   1.00
H421   H     0.31054   0.25768   0.54871   0.00000  Uiso   1.00
H422   H     0.25754   0.31054   0.54871   0.00000  Uiso   1.00
H423   H     0.36241   0.22800   0.50530   0.00000  Uiso   1.00
H424   H     0.41547   0.17540   0.50452   0.00000  Uiso   1.00
H425   H     0.32206   0.08142   0.50490   0.00000  Uiso   1.00
H426   H     0.26915   0.13413   0.50649   0.00000  Uiso   1.00
C427   C     0.18487   0.81251   0.00553   0.00000  Uiso   1.00
C428   C     0.19555   0.85426   0.00531   0.00000  Uiso   1.00
C429   C     0.16529   0.88469   0.00468   0.00000  Uiso   1.00
X430   C     0.12329   0.87427   0.00426   0.00000  Uiso   1.00
C431   C     0.11276   0.83231   0.00477   0.00000  Uiso   1.00
C432   C     0.14309   0.80196   0.00537   0.00000  Uiso   1.00
C433   C     0.21716   0.78010   0.00566   0.00000  Uiso   1.00
C434   C     0.21243   0.74424  -0.01782   0.00000  Uiso   1.00
C435   C     0.24279   0.71391  -0.01790   0.00000  Uiso   1.00
C436   C     0.27871   0.71861   0.00549   0.00000  Uiso   1.00
C437   C     0.28343   0.75445   0.02901   0.00000  Uiso   1.00
C438   C     0.25306   0.78479   0.02909   0.00000  Uiso   1.00
C439   C     0.31114   0.68635   0.00519   0.00000  Uiso   1.00
C440   C     0.35290   0.69707   0.00489   0.00000  Uiso   1.00
C441   C     0.38333   0.66680   0.00419   0.00000  Uiso   1.00
X442   C     0.37281   0.62495   0.00379   0.00000  Uiso   1.00
C443   C     0.33101   0.61425   0.00431   0.00000  Uiso   1.00
C444   C     0.30061   0.64454   0.00497   0.00000  Uiso   1.00
H445   H     0.22743   0.86349   0.00492   0.00000  Uiso   1.00
H446   H     0.17505   0.91642   0.00428   0.00000  Uiso   1.00
H447   H     0.08099   0.82264   0.00469   0.00000  Uiso   1.00
H448   H     0.13376   0.77012   0.00614   0.00000  Uiso   1.00
H449   H     0.18552   0.73992  -0.03676   0.00000  Uiso   1.00
H450   H     0.23843   0.68705  -0.03691   0.00000  Uiso   1.00
H451   H     0.31039   0.75880   0.04788   0.00000  Uiso   1.00
H452   H     0.25743   0.81169   0.04803   0.00000  Uiso   1.00
H453   H     0.36212   0.72895   0.00453   0.00000  Uiso   1.00
H454   H     0.41513   0.67630   0.00375   0.00000  Uiso   1.00
H455   H     0.32165   0.58240   0.00421   0.00000  Uiso   1.00
H456   H     0.26878   0.63516   0.00579   0.00000  Uiso   1.00
C457   C    -0.00628   0.18633   0.18759   0.00000  Uiso   1.00
C458   C    -0.00594   0.19691   0.14581   0.00000  Uiso   1.00
C459   C    -0.00511   0.16654   0.11554   0.00000  Uiso   1.00
X460   C    -0.00455   0.12475   0.12627   0.00000  Uiso   1.00
C461   C    -0.00510   0.11420   0.16810   0.00000  Uiso   1.00
C462   C    -0.00596   0.14460   0.19835   0.00000  Uiso   1.00
C463   C    -0.00670   0.21869   0.21981   0.00000  Uiso   1.00
C464   C    -0.03052   0.21401   0.25544   0.00000  Uiso   1.00
C465   C    -0.03066   0.24431   0.28581   0.00000  Uiso   1.00
C466   C    -0.00698   0.28005   0.28132   0.00000  Uiso   1.00
C467   C     0.01678   0.28476   0.24566   0.00000  Uiso   1.00
C468   C     0.01692   0.25447   0.21530   0.00000  Uiso   1.00
C469   C    -0.00687   0.31221   0.31374   0.00000  Uiso   1.00
C470   C    -0.00670   0.35401   0.30323   0.00000  Uiso   1.00
C471   C    -0.00609   0.38423   0.33365   0.00000  Uiso   1.00
X472   C    -0.00557   0.37343   0.37542   0.00000  Uiso   1.00
C473   C    -0.00599   0.33159   0.38591   0.00000  Uiso   1.00
C474   C    -0.00664   0.30138   0.35546   0.00000  Uiso   1.00
H475   H    -0.00676   0.22875   0.13645   0.00000  Uiso   1.00
H476   H    -0.00490   0.17590   0.08369   0.00000  Uiso   1.00
H477   H    -0.00464   0.08240   0.17760   0.00000  Uiso   1.00
H478   H    -0.00569   0.13539   0.23023   0.00000  Uiso   1.00
H479   H    -0.04956   0.18714   0.25959   0.00000  Uiso   1.00
H480   H    -0.04980   0.24000   0.31259   0.00000  Uiso   1.00
H481   H     0.03589   0.31158   0.24153   0.00000  Uiso   1.00
H482   H     0.03614   0.25875   0.18858   0.00000  Uiso   1.00
H483   H    -0.00747   0.36341   0.27141   0.00000  Uiso   1.00
H484   H    -0.00598   0.41609   0.32434   0.00000  Uiso   1.00
H485   H    -0.00556   0.32205   0.41771   0.00000  Uiso   1.00
H486   H    -0.00626   0.26948   0.36462   0.00000  Uiso   1.00
C487   C     0.49427   0.31140   0.81423   0.00000  Uiso   1.00
C488   C     0.49455   0.35312   0.80337   0.00000  Uiso   1.00
C489   C     0.49526   0.38359   0.83355   0.00000  Uiso   1.00
X490   C     0.49568   0.37313   0.87541   0.00000  Uiso   1.00
C491   C     0.49515   0.33137   0.88623   0.00000  Uiso   1.00
C492   C     0.49448   0.30092   0.85603   0.00000  Uiso   1.00
C493   C     0.49403   0.27896   0.78209   0.00000  Uiso   1.00
C494   C     0.51771   0.24324   0.78678   0.00000  Uiso   1.00
C495   C     0.51772   0.21286   0.75651   0.00000  Uiso   1.00
C496   C     0.49405   0.21741   0.72077   0.00000  Uiso   1.00
C497   C     0.47030   0.25309   0.71611   0.00000  Uiso   1.00
C498   C     0.47029   0.28348   0.74639   0.00000  Uiso   1.00
C499   C     0.49433   0.18518   0.68842   0.00000  Uiso   1.00
C500   C     0.49461   0.19592   0.64668   0.00000  Uiso   1.00
C501   C     0.49536   0.16567   0.61629   0.00000  Uiso   1.00
X502   C     0.49583   0.12384   0.62685   0.00000  Uiso   1.00
C503   C     0.49531   0.11312   0.66863   0.00000  Uiso   1.00
C504   C     0.49460   0.14339   0.69900   0.00000  Uiso   1.00
H505   H     0.49492   0.36225   0.77146   0.00000  Uiso   1.00
H506   H     0.49571   0.41537   0.82399   0.00000  Uiso   1.00
H507   H     0.49526   0.32207   0.91810   0.00000  Uiso   1.00
H508   H     0.49368   0.26911   0.86546   0.00000  Uiso   1.00
H509   H     0.53686   0.23908   0.81357   0.00000  Uiso   1.00
H510   H     0.53688   0.18609   0.76077   0.00000  Uiso   1.00
H511   H     0.45122   0.25727   0.68927   0.00000  Uiso   1.00
H512   H     0.45121   0.31030   0.74210   0.00000  Uiso   1.00
H513   H     0.49494   0.22781   0.63747   0.00000  Uiso   1.00
H514   H     0.49579   0.17517   0.58449   0.00000  Uiso   1.00
H515   H     0.49546   0.08127   0.67800   0.00000  Uiso   1.00
H516   H     0.49381   0.13405   0.73084   0.00000  Uiso   1.00
C517   C    -0.00579   0.81229   0.81527   0.00000  Uiso   1.00
C518   C    -0.00549   0.85402   0.80451   0.00000  Uiso   1.00
C519   C    -0.00473   0.88450   0.83471   0.00000  Uiso   1.00
X520   C    -0.00426   0.87416   0.87672   0.00000  Uiso   1.00
C521   C    -0.00483   0.83222   0.88734   0.00000  Uiso   1.00
C522   C    -0.00555   0.80182   0.85706   0.00000  Uiso   1.00
C523   C    -0.00611   0.77983   0.78305   0.00000  Uiso   1.00
C524   C     0.01731   0.74392   0.78777   0.00000  Uiso   1.00
C525   C     0.01721   0.71353   0.75748   0.00000  Uiso   1.00
C526   C    -0.00630   0.71822   0.72163   0.00000  Uiso   1.00
C527   C    -0.02977   0.75409   0.71693   0.00000  Uiso   1.00
C528   C    -0.02967   0.78449   0.74724   0.00000  Uiso   1.00
C529   C    -0.00616   0.68593   0.68924   0.00000  Uiso   1.00
C530   C    -0.00596   0.69662   0.64748   0.00000  Uiso   1.00
C531   C    -0.00537   0.66633   0.61708   0.00000  Uiso   1.00
X532   C    -0.00497   0.62449   0.62762   0.00000  Uiso   1.00
C533   C    -0.00540   0.61381   0.66942   0.00000  Uiso   1.00
C534   C    -0.00596   0.64412   0.69980   0.00000  Uiso   1.00
H535   H    -0.00514   0.86318   0.77261   0.00000  Uiso   1.00
H536   H    -0.00428   0.91622   0.82490   0.00000  Uiso   1.00
H537   H    -0.00472   0.82260   0.91912   0.00000  Uiso   1.00
H538   H    -0.00639   0.76999   0.86646   0.00000  Uiso   1.00
H539   H     0.03635   0.73961   0.81462   0.00000  Uiso   1.00
H540   H     0.03618   0.68664   0.76181   0.00000  Uiso   1.00
H541   H    -0.04874   0.75843   0.69004   0.00000  Uiso   1.00
H542   H    -0.04857   0.81143   0.74289   0.00000  Uiso   1.00
H543   H    -0.00558   0.72849   0.63823   0.00000  Uiso   1.00
H544   H    -0.00499   0.67582   0.58526   0.00000  Uiso   1.00
H545   H    -0.00530   0.58197   0.67880   0.00000  Uiso   1.00
H546   H    -0.00669   0.63477   0.73164   0.00000  Uiso   1.00
C547   C     0.49327   0.68667   0.18720   0.00000  Uiso   1.00
C548   C     0.49342   0.69728   0.14545   0.00000  Uiso   1.00
C549   C     0.49423   0.66693   0.11522   0.00000  Uiso   1.00
X550   C     0.49497   0.62518   0.12601   0.00000  Uiso   1.00
C551   C     0.49458   0.61459   0.16783   0.00000  Uiso   1.00
C552   C     0.49373   0.64497   0.19803   0.00000  Uiso   1.00
C553   C     0.49301   0.71896   0.21934   0.00000  Uiso   1.00
C554   C     0.46907   0.71439   0.25489   0.00000  Uiso   1.00
C555   C     0.46916   0.74463   0.28527   0.00000  Uiso   1.00
C556   C     0.49318   0.78012   0.28080   0.00000  Uiso   1.00
C557   C     0.51704   0.78472   0.24521   0.00000  Uiso   1.00
C558   C     0.51696   0.75450   0.21485   0.00000  Uiso   1.00
C559   C     0.49356   0.81215   0.31320   0.00000  Uiso   1.00
C560   C     0.49373   0.85393   0.30270   0.00000  Uiso   1.00
C561   C     0.49463   0.88407   0.33313   0.00000  Uiso   1.00
X562   C     0.49542   0.87317   0.37486   0.00000  Uiso   1.00
C563   C     0.49501   0.83133   0.38534   0.00000  Uiso   1.00
C564   C     0.49408   0.80121   0.35487   0.00000  Uiso   1.00
H565   H     0.49250   0.72912   0.13611   0.00000  Uiso   1.00
H566   H     0.49431   0.67627   0.08336   0.00000  Uiso   1.00
H567   H     0.49518   0.58280   0.17734   0.00000  Uiso   1.00
H568   H     0.49415   0.63580   0.22993   0.00000  Uiso   1.00
H569   H     0.44982   0.68767   0.25897   0.00000  Uiso   1.00
H570   H     0.44996   0.74048   0.31203   0.00000  Uiso   1.00
H571   H     0.53639   0.81138   0.24116   0.00000  Uiso   1.00
H572   H     0.53625   0.75861   0.18815   0.00000  Uiso   1.00
H573   H     0.49276   0.86336   0.27089   0.00000  Uiso   1.00
H574   H     0.49471   0.91595   0.32386   0.00000  Uiso   1.00
H575   H     0.49564   0.82175   0.41711   0.00000  Uiso   1.00
H576   H     0.49447   0.76928   0.36395   0.00000  Uiso   1.00
C577   C     0.00368   0.81213   0.18850   0.00000  Uiso   1.00
C578   C     0.00341   0.80127   0.14679   0.00000  Uiso   1.00
C579   C     0.00273   0.83145   0.11633   0.00000  Uiso   1.00
X580   C     0.00232   0.87330   0.12681   0.00000  Uiso   1.00
C581   C     0.00285   0.88412   0.16856   0.00000  Uiso   1.00
C582   C     0.00349   0.85393   0.19899   0.00000  Uiso   1.00
C583   C     0.00386   0.78001   0.22093   0.00000  Uiso   1.00
C584   C    -0.01991   0.78471   0.25659   0.00000  Uiso   1.00
C585   C    -0.01996   0.75446   0.28698   0.00000  Uiso   1.00
C586   C     0.00373   0.71874   0.28248   0.00000  Uiso   1.00
C587   C     0.02756   0.71406   0.24686   0.00000  Uiso   1.00
C588   C     0.02762   0.74433   0.21646   0.00000  Uiso   1.00
C589   C     0.00338   0.68642   0.31470   0.00000  Uiso   1.00
C590   C     0.00302   0.64469   0.30395   0.00000  Uiso   1.00
C591   C     0.00219   0.61431   0.33421   0.00000  Uiso   1.00
X592   C     0.00173   0.62489   0.37603   0.00000  Uiso   1.00
C593   C     0.00233   0.66667   0.38676   0.00000  Uiso   1.00
C594   C     0.00312   0.69703   0.35648   0.00000  Uiso   1.00
H595   H     0.00303   0.76936   0.13766   0.00000  Uiso   1.00
H596   H     0.00229   0.82189   0.08454   0.00000  Uiso   1.00
H597   H     0.00275   0.91599   0.17786   0.00000  Uiso   1.00
H598   H     0.00429   0.86335   0.23081   0.00000  Uiso   1.00
H599   H    -0.03908   0.81150   0.26070   0.00000  Uiso   1.00
H600   H    -0.03918   0.75872   0.31371   0.00000  Uiso   1.00
H601   H     0.04665   0.68723   0.24272   0.00000  Uiso   1.00
H602   H     0.04675   0.74004   0.18968   0.00000  Uiso   1.00
H603   H     0.00269   0.63547   0.27207   0.00000  Uiso   1.00
H604   H     0.00170   0.58250   0.32472   0.00000  Uiso   1.00
H605   H     0.00218   0.67604   0.41860   0.00000  Uiso   1.00
H606   H     0.00397   0.72887   0.36581   0.00000  Uiso   1.00
C607   C     0.50377   0.68460   0.81416   0.00000  Uiso   1.00
C608   C     0.50339   0.69538   0.85588   0.00000  Uiso   1.00
C609   C     0.50261   0.66520   0.88637   0.00000  Uiso   1.00
X610   C     0.50220   0.62318   0.87605   0.00000  Uiso   1.00
C611   C     0.50286   0.61254   0.83412   0.00000  Uiso   1.00
C612   C     0.50360   0.64280   0.80371   0.00000  Uiso   1.00
C613   C     0.50410   0.71680   0.78169   0.00000  Uiso   1.00
C614   C     0.48073   0.71205   0.74576   0.00000  Uiso   1.00
C615   C     0.48080   0.74235   0.71538   0.00000  Uiso   1.00
C616   C     0.50426   0.77823   0.72010   0.00000  Uiso   1.00
C617   C     0.52769   0.78295   0.75599   0.00000  Uiso   1.00
C618   C     0.52761   0.75264   0.78638   0.00000  Uiso   1.00
C619   C     0.50408   0.81063   0.68783   0.00000  Uiso   1.00
C620   C     0.50378   0.85240   0.69854   0.00000  Uiso   1.00
C621   C     0.50312   0.88281   0.66827   0.00000  Uiso   1.00
X622   C     0.50276   0.87228   0.62642   0.00000  Uiso   1.00
C623   C     0.50331   0.83048   0.61573   0.00000  Uiso   1.00
C624   C     0.50393   0.80009   0.64602   0.00000  Uiso   1.00
H625   H     0.50299   0.72728   0.86502   0.00000  Uiso   1.00
H626   H     0.50210   0.67503   0.91808   0.00000  Uiso   1.00
H627   H     0.50279   0.58075   0.82453   0.00000  Uiso   1.00
H628   H     0.50449   0.63339   0.77189   0.00000  Uiso   1.00
H629   H     0.46173   0.68518   0.74143   0.00000  Uiso   1.00
H630   H     0.46186   0.73800   0.68847   0.00000  Uiso   1.00
H631   H     0.54661   0.80987   0.76035   0.00000  Uiso   1.00
H632   H     0.54648   0.75702   0.81334   0.00000  Uiso   1.00
H633   H     0.50335   0.86162   0.73042   0.00000  Uiso   1.00
H634   H     0.50265   0.91461   0.67776   0.00000  Uiso   1.00
H635   H     0.50324   0.82111   0.58388   0.00000  Uiso   1.00
H636   H     0.50475   0.76825   0.63666   0.00000  Uiso   1.00
C637   C     0.50395   0.31244   0.18841   0.00000  Uiso   1.00
C638   C     0.50368   0.30168   0.14668   0.00000  Uiso   1.00
C639   C     0.50292   0.33193   0.11628   0.00000  Uiso   1.00
X640   C     0.50243   0.37376   0.12684   0.00000  Uiso   1.00
C641   C     0.50296   0.38449   0.16863   0.00000  Uiso   1.00
C642   C     0.50368   0.35422   0.19900   0.00000  Uiso   1.00
C643   C     0.50422   0.28022   0.22076   0.00000  Uiso   1.00
C644   C     0.48052   0.28477   0.25648   0.00000  Uiso   1.00
C645   C     0.48052   0.25440   0.28676   0.00000  Uiso   1.00
C646   C     0.50421   0.21869   0.28210   0.00000  Uiso   1.00
C647   C     0.52798   0.21416   0.24641   0.00000  Uiso   1.00
C648   C     0.52798   0.24454   0.21613   0.00000  Uiso   1.00
C649   C     0.50395   0.18626   0.31423   0.00000  Uiso   1.00
C650   C     0.50367   0.14454   0.30338   0.00000  Uiso   1.00
C651   C     0.50294   0.11408   0.33357   0.00000  Uiso   1.00
X652   C     0.50250   0.12455   0.37542   0.00000  Uiso   1.00
C653   C     0.50302   0.16631   0.38624   0.00000  Uiso   1.00
C654   C     0.50372   0.19674   0.35604   0.00000  Uiso   1.00
H655   H     0.50335   0.26980   0.13747   0.00000  Uiso   1.00
H656   H     0.50248   0.32244   0.08448   0.00000  Uiso   1.00
H657   H     0.50279   0.41634   0.17799   0.00000  Uiso   1.00
H658   H     0.50446   0.36357   0.23083   0.00000  Uiso   1.00
H659   H     0.46134   0.31153   0.26072   0.00000  Uiso   1.00
H660   H     0.46134   0.25856   0.31353   0.00000  Uiso   1.00
H661   H     0.54707   0.18735   0.24215   0.00000  Uiso   1.00
H662   H     0.54708   0.24036   0.18931   0.00000  Uiso   1.00
H663   H     0.50333   0.13541   0.27148   0.00000  Uiso   1.00
H664   H     0.50250   0.08229   0.32401   0.00000  Uiso   1.00
H665   H     0.50290   0.17560   0.41811   0.00000  Uiso   1.00
H666   H     0.50452   0.22856   0.36546   0.00000  Uiso   1.00
C667   C     0.00352   0.18444   0.81441   0.00000  Uiso   1.00
C668   C     0.00333   0.19511   0.85617   0.00000  Uiso   1.00
C669   C     0.00275   0.16485   0.88660   0.00000  Uiso   1.00
X670   C     0.00234   0.12285   0.87620   0.00000  Uiso   1.00
C671   C     0.00281   0.11231   0.83423   0.00000  Uiso   1.00
C672   C     0.00335   0.14265   0.80388   0.00000  Uiso   1.00
C673   C     0.00360   0.21675   0.78201   0.00000  Uiso   1.00
C674   C    -0.01988   0.21202   0.74615   0.00000  Uiso   1.00
C675   C    -0.02004   0.24243   0.71585   0.00000  Uiso   1.00
C676   C     0.00327   0.27840   0.72058   0.00000  Uiso   1.00
C677   C     0.02681   0.28310   0.75641   0.00000  Uiso   1.00
C678   C     0.02698   0.25269   0.78672   0.00000  Uiso   1.00
C679   C     0.00289   0.31089   0.68837   0.00000  Uiso   1.00
C680   C     0.00260   0.35264   0.69915   0.00000  Uiso   1.00
C681   C     0.00182   0.38312   0.66892   0.00000  Uiso   1.00
X682   C     0.00135   0.37268   0.62705   0.00000  Uiso   1.00
C683   C     0.00186   0.33089   0.61629   0.00000  Uiso   1.00
C684   C     0.00260   0.30044   0.64653   0.00000  Uiso   1.00
H685   H     0.00293   0.22699   0.86540   0.00000  Uiso   1.00
H686   H     0.00238   0.17461   0.91833   0.00000  Uiso   1.00
H687   H     0.00273   0.08054   0.82457   0.00000  Uiso   1.00
H688   H     0.00409   0.13332   0.77203   0.00000  Uiso   1.00
H689   H    -0.03878   0.18509   0.74180   0.00000  Uiso   1.00
H690   H    -0.03906   0.23807   0.68900   0.00000  Uiso   1.00
H691   H     0.04564   0.31008   0.76079   0.00000  Uiso   1.00
H692   H     0.04592   0.25707   0.81361   0.00000  Uiso   1.00
H693   H     0.00228   0.36182   0.73104   0.00000  Uiso   1.00
H694   H     0.00139   0.41491   0.67847   0.00000  Uiso   1.00
H695   H     0.00171   0.32158   0.58443   0.00000  Uiso   1.00
H696   H     0.00341   0.26863   0.63710   0.00000  Uiso   1.00
C697   C     0.18584  -0.00630   0.18819   0.00000  Uiso   1.00
C698   C     0.19660  -0.00600   0.14647   0.00000  Uiso   1.00
C699   C     0.16636  -0.00521   0.11609   0.00000  Uiso   1.00
X700   C     0.12454  -0.00473   0.12668   0.00000  Uiso   1.00
C701   C     0.11380  -0.00529   0.16845   0.00000  Uiso   1.00
C702   C     0.14407  -0.00604   0.19880   0.00000  Uiso   1.00
C703   C     0.21803  -0.00659   0.22052   0.00000  Uiso   1.00
C704   C     0.21351   0.01720   0.25618   0.00000  Uiso   1.00
C705   C     0.24385   0.01717   0.28646   0.00000  Uiso   1.00
C706   C     0.27948  -0.00665   0.28185   0.00000  Uiso   1.00
C707   C     0.28399  -0.03049   0.24622   0.00000  Uiso   1.00
C708   C     0.25363  -0.03046   0.21593   0.00000  Uiso   1.00
C709   C     0.31184  -0.00644   0.31400   0.00000  Uiso   1.00
C710   C     0.35356  -0.00614   0.30320   0.00000  Uiso   1.00
C711   C     0.38397  -0.00541   0.33342   0.00000  Uiso   1.00
X712   C     0.37342  -0.00499   0.37525   0.00000  Uiso   1.00
C713   C     0.33165  -0.00557   0.38602   0.00000  Uiso   1.00
C714   C     0.30127  -0.00626   0.35578   0.00000  Uiso   1.00
H715   H     0.22849  -0.00567   0.13726   0.00000  Uiso   1.00
H716   H     0.17584  -0.00475   0.08428   0.00000  Uiso   1.00
H717   H     0.08196  -0.00514   0.17782   0.00000  Uiso   1.00
H718   H     0.13474  -0.00686   0.23065   0.00000  Uiso   1.00
H719   H     0.18680   0.03645   0.26036   0.00000  Uiso   1.00
H720   H     0.23973   0.03640   0.31320   0.00000  Uiso   1.00
H721   H     0.31076  -0.04966   0.24202   0.00000  Uiso   1.00
H722   H     0.25777  -0.04961   0.18913   0.00000  Uiso   1.00
H723   H     0.36273  -0.00576   0.27130   0.00000  Uiso   1.00
H724   H     0.41577  -0.00494   0.32391   0.00000  Uiso   1.00
H725   H     0.32230  -0.00547   0.41787   0.00000  Uiso   1.00
H726   H     0.26944  -0.00708   0.36514   0.00000  Uiso   1.00
C727   C     0.31161   0.49356   0.81392   0.00000  Uiso   1.00
C728   C     0.30106   0.49367   0.85570   0.00000  Uiso   1.00
C729   C     0.33145   0.49445   0.88591   0.00000  Uiso   1.00
X730   C     0.37321   0.49520   0.87512   0.00000  Uiso   1.00
C731   C     0.38375   0.49484   0.83329   0.00000  Uiso   1.00
C732   C     0.35332   0.49401   0.80308   0.00000  Uiso   1.00
C733   C     0.27921   0.49330   0.78180   0.00000  Uiso   1.00
C734   C     0.28373   0.46952   0.74614   0.00000  Uiso   1.00
C735   C     0.25330   0.46946   0.71591   0.00000  Uiso   1.00
C736   C     0.21763   0.49320   0.72061   0.00000  Uiso   1.00
C737   C     0.21311   0.51695   0.75629   0.00000  Uiso   1.00
C738   C     0.24351   0.51700   0.78650   0.00000  Uiso   1.00
C739   C     0.18535   0.49339   0.68837   0.00000  Uiso   1.00
C740   C     0.14361   0.49351   0.69910   0.00000  Uiso   1.00
C741   C     0.11325   0.49425   0.66883   0.00000  Uiso   1.00
X742   C     0.12387   0.49494   0.62703   0.00000  Uiso   1.00
C743   C     0.16567   0.49458   0.61633   0.00000  Uiso   1.00
C744   C     0.19600   0.49380   0.64662   0.00000  Uiso   1.00
H745   H     0.26924   0.49272   0.86508   0.00000  Uiso   1.00
H746   H     0.32211   0.49450   0.91777   0.00000  Uiso   1.00
H747   H     0.41554   0.49544   0.82377   0.00000  Uiso   1.00
H748   H     0.36247   0.49444   0.77118   0.00000  Uiso   1.00
H749   H     0.31055   0.45044   0.74186   0.00000  Uiso   1.00
H750   H     0.25745   0.45035   0.68909   0.00000  Uiso   1.00
H751   H     0.18634   0.53611   0.76055   0.00000  Uiso   1.00
H752   H     0.23939   0.53620   0.81327   0.00000  Uiso   1.00
H753   H     0.13436   0.49261   0.73097   0.00000  Uiso   1.00
H754   H     0.08143   0.49431   0.67829   0.00000  Uiso   1.00
H755   H     0.17507   0.49514   0.58450   0.00000  Uiso   1.00
H756   H     0.22786   0.49423   0.63733   0.00000  Uiso   1.00
C757   C     0.81205  -0.00664   0.81375   0.00000  Uiso   1.00
C758   C     0.80138  -0.00651   0.85550   0.00000  Uiso   1.00
C759   C     0.83168  -0.00573   0.88580   0.00000  Uiso   1.00
X760   C     0.87346  -0.00502   0.87511   0.00000  Uiso   1.00
C761   C     0.88411  -0.00540   0.83331   0.00000  Uiso   1.00
C762   C     0.85378  -0.00621   0.80303   0.00000  Uiso   1.00
C763   C     0.77977  -0.00690   0.78154   0.00000  Uiso   1.00
C764   C     0.78440  -0.03074   0.74593   0.00000  Uiso   1.00
C765   C     0.75411  -0.03076   0.71558   0.00000  Uiso   1.00
C766   C     0.71847  -0.00694   0.72012   0.00000  Uiso   1.00
C767   C     0.71384   0.01686   0.75575   0.00000  Uiso   1.00
C768   C     0.74411   0.01688   0.78608   0.00000  Uiso   1.00
C769   C     0.68631  -0.00676   0.68779   0.00000  Uiso   1.00
C770   C     0.64456  -0.00670   0.69842   0.00000  Uiso   1.00
C771   C     0.61429  -0.00599   0.66809   0.00000  Uiso   1.00
X772   C     0.62502  -0.00527   0.62631   0.00000  Uiso   1.00
C773   C     0.66683  -0.00559   0.61570   0.00000  Uiso   1.00
C774   C     0.69708  -0.00634   0.64607   0.00000  Uiso   1.00
H775   H     0.76952  -0.00743   0.86479   0.00000  Uiso   1.00
H776   H     0.82227  -0.00566   0.91764   0.00000  Uiso   1.00
H777   H     0.91593  -0.00482   0.82386   0.00000  Uiso   1.00
H778   H     0.86301  -0.00580   0.77115   0.00000  Uiso   1.00
H779   H     0.81121  -0.04987   0.74179   0.00000  Uiso   1.00
H780   H     0.75832  -0.04990   0.68879   0.00000  Uiso   1.00
H781   H     0.68709   0.03607   0.75987   0.00000  Uiso   1.00
H782   H     0.73992   0.03611   0.81281   0.00000  Uiso   1.00
H783   H     0.63523  -0.00762   0.73026   0.00000  Uiso   1.00
H784   H     0.58245  -0.00597   0.67748   0.00000  Uiso   1.00
H785   H     0.67630  -0.00502   0.58389   0.00000  Uiso   1.00
H786   H     0.72897  -0.00588   0.63687   0.00000  Uiso   1.00
C787   C     0.68598   0.49524   0.18873   0.00000  Uiso   1.00
C788   C     0.69674   0.49546   0.14697   0.00000  Uiso   1.00
C789   C     0.66651   0.49607   0.11648   0.00000  Uiso   1.00
X790   C     0.62463   0.49646   0.12692   0.00000  Uiso   1.00
C791   C     0.61389   0.49603   0.16872   0.00000  Uiso   1.00
C792   C     0.64414   0.49545   0.19917   0.00000  Uiso   1.00
C793   C     0.71820   0.49501   0.22125   0.00000  Uiso   1.00
C794   C     0.71337   0.51831   0.25722   0.00000  Uiso   1.00
C795   C     0.74363   0.51824   0.28767   0.00000  Uiso   1.00
C796   C     0.77958   0.49487   0.28300   0.00000  Uiso   1.00
C797   C     0.78439   0.47152   0.24705   0.00000  Uiso   1.00
C798   C     0.75412   0.47159   0.21659   0.00000  Uiso   1.00
C799   C     0.81193   0.49501   0.31539   0.00000  Uiso   1.00
C800   C     0.85371   0.49520   0.30481   0.00000  Uiso   1.00
C801   C     0.88409   0.49577   0.33513   0.00000  Uiso   1.00
X802   C     0.87362   0.49617   0.37712   0.00000  Uiso   1.00
C803   C     0.83163   0.49573   0.38756   0.00000  Uiso   1.00
C804   C     0.80133   0.49520   0.35716   0.00000  Uiso   1.00
H805   H     0.72864   0.49583   0.13779   0.00000  Uiso   1.00
H806   H     0.67604   0.49645   0.08469   0.00000  Uiso   1.00
H807   H     0.58203   0.49612   0.17804   0.00000  Uiso   1.00
H808   H     0.63471   0.49469   0.23099   0.00000  Uiso   1.00
H809   H     0.68646   0.53724   0.26155   0.00000  Uiso   1.00
H810   H     0.73918   0.53713   0.31459   0.00000  Uiso   1.00
H811   H     0.81135   0.45265   0.24270   0.00000  Uiso   1.00
H812   H     0.75859   0.45277   0.18962   0.00000  Uiso   1.00
H813   H     0.86300   0.49559   0.27295   0.00000  Uiso   1.00
H814   H     0.91584   0.49613   0.32542   0.00000  Uiso   1.00
H815   H     0.82191   0.49581   0.41932   0.00000  Uiso   1.00
H816   H     0.76947   0.49445   0.36644   0.00000  Uiso   1.00
C817   C     0.18649   0.00338   0.81403   0.00000  Uiso   1.00
C818   C     0.14477   0.00307   0.80323   0.00000  Uiso   1.00
C819   C     0.11436   0.00236   0.83345   0.00000  Uiso   1.00
X820   C     0.12492   0.00197   0.87528   0.00000  Uiso   1.00
C821   C     0.16669   0.00254   0.88605   0.00000  Uiso   1.00
C822   C     0.19706   0.00321   0.85580   0.00000  Uiso   1.00
C823   C     0.21884   0.00357   0.78187   0.00000  Uiso   1.00
C824   C     0.25446  -0.02025   0.78648   0.00000  Uiso   1.00
C825   C     0.28478  -0.02030   0.75618   0.00000  Uiso   1.00
C826   C     0.28024   0.00347   0.72051   0.00000  Uiso   1.00
C827   C     0.24464   0.02734   0.71592   0.00000  Uiso   1.00
C828   C     0.21431   0.02739   0.74623   0.00000  Uiso   1.00
C829   C     0.31242   0.00317   0.68818   0.00000  Uiso   1.00
C830   C     0.30164   0.00282   0.64646   0.00000  Uiso   1.00
C831   C     0.33188   0.00205   0.61607   0.00000  Uiso   1.00
X832   C     0.37370   0.00163   0.62665   0.00000  Uiso   1.00
C833   C     0.38445   0.00223   0.66843   0.00000  Uiso   1.00
C834   C     0.35419   0.00297   0.69878   0.00000  Uiso   1.00
H835   H     0.13559   0.00267   0.77133   0.00000  Uiso   1.00
H836   H     0.08256   0.00189   0.82394   0.00000  Uiso   1.00
H837   H     0.17604   0.00246   0.91790   0.00000  Uiso   1.00
H838   H     0.22890   0.00403   0.86516   0.00000  Uiso   1.00
H839   H     0.25859  -0.03947   0.81323   0.00000  Uiso   1.00
H840   H     0.31150  -0.03955   0.76035   0.00000  Uiso   1.00
H841   H     0.24049   0.04648   0.68912   0.00000  Uiso   1.00
H842   H     0.18754   0.04656   0.74204   0.00000  Uiso   1.00
H843   H     0.26975   0.00246   0.63726   0.00000  Uiso   1.00
H844   H     0.32239   0.00156   0.58427   0.00000  Uiso   1.00
H845   H     0.41629   0.00213   0.67779   0.00000  Uiso   1.00
H846   H     0.36353   0.00382   0.73062   0.00000  Uiso   1.00
C847   C     0.31133   0.50406   0.18788   0.00000  Uiso   1.00
C848   C     0.30079   0.50389   0.14608   0.00000  Uiso   1.00
C849   C     0.33118   0.50325   0.11581   0.00000  Uiso   1.00
X850   C     0.37297   0.50273   0.12652   0.00000  Uiso   1.00
C851   C     0.38350   0.50313   0.16836   0.00000  Uiso   1.00
C852   C     0.35308   0.50380   0.19862   0.00000  Uiso   1.00
C853   C     0.27892   0.50424   0.22011   0.00000  Uiso   1.00
C854   C     0.28355   0.52780   0.25593   0.00000  Uiso   1.00
C855   C     0.25319   0.52776   0.28625   0.00000  Uiso   1.00
C856   C     0.21740   0.50417   0.28155   0.00000  Uiso   1.00
C857   C     0.21276   0.48066   0.24570   0.00000  Uiso   1.00
C858   C     0.24311   0.48070   0.21539   0.00000  Uiso   1.00
C859   C     0.18514   0.50390   0.31392   0.00000  Uiso   1.00
C860   C     0.14335   0.50371   0.30334   0.00000  Uiso   1.00
C861   C     0.11305   0.50300   0.33371   0.00000  Uiso   1.00
X862   C     0.12374   0.50242   0.37551   0.00000  Uiso   1.00
C863   C     0.16557   0.50283   0.38607   0.00000  Uiso   1.00
C864   C     0.19585   0.50358   0.35568   0.00000  Uiso   1.00
H865   H     0.26896   0.50468   0.13671   0.00000  Uiso   1.00
H866   H     0.32181   0.50316   0.08396   0.00000  Uiso   1.00
H867   H     0.41531   0.50269   0.17786   0.00000  Uiso   1.00
H868   H     0.36229   0.50341   0.23051   0.00000  Uiso   1.00
H869   H     0.31043   0.54679   0.26026   0.00000  Uiso   1.00
H870   H     0.25747   0.54672   0.31316   0.00000  Uiso   1.00
H871   H     0.18593   0.46161   0.24138   0.00000  Uiso   1.00
H872   H     0.23885   0.46166   0.18853   0.00000  Uiso   1.00
H873   H     0.13401   0.50455   0.27151   0.00000  Uiso   1.00
H874   H     0.08121   0.50290   0.32433   0.00000  Uiso   1.00
H875   H     0.17505   0.50235   0.41788   0.00000  Uiso   1.00
H876   H     0.22773   0.50320   0.36491   0.00000  Uiso   1.00
C877   C     0.81269   0.00350   0.18665   0.00000  Uiso   1.00
C878   C     0.80218   0.00329   0.14486   0.00000  Uiso   1.00
C879   C     0.83254   0.00266   0.11452   0.00000  Uiso   1.00
X880   C     0.87451   0.00217   0.12506   0.00000  Uiso   1.00
C881   C     0.88489   0.00262   0.16706   0.00000  Uiso   1.00
C882   C     0.85445   0.00329   0.19732   0.00000  Uiso   1.00
C883   C     0.78026   0.00370   0.21895   0.00000  Uiso   1.00
C884   C     0.78499   0.02708   0.25488   0.00000  Uiso   1.00
C885   C     0.75463   0.02705   0.28526   0.00000  Uiso   1.00
C886   C     0.71872   0.00363   0.28053   0.00000  Uiso   1.00
C887   C     0.71397  -0.01970   0.24457   0.00000  Uiso   1.00
C888   C     0.74432  -0.01967   0.21420   0.00000  Uiso   1.00
C889   C     0.68644   0.00339   0.31298   0.00000  Uiso   1.00
C890   C     0.64461   0.00316   0.30247   0.00000  Uiso   1.00
C891   C     0.61432   0.00250   0.33288   0.00000  Uiso   1.00
X892   C     0.62500   0.00200   0.37469   0.00000  Uiso   1.00
C893   C     0.66686   0.00243   0.38519   0.00000  Uiso   1.00
C894   C     0.69714   0.00313   0.35475   0.00000  Uiso   1.00
H895   H     0.77034   0.00406   0.13550   0.00000  Uiso   1.00
H896   H     0.82288   0.00255   0.08275   0.00000  Uiso   1.00
H897   H     0.91663   0.00223   0.17683   0.00000  Uiso   1.00
H898   H     0.86367   0.00293   0.22920   0.00000  Uiso   1.00
H899   H     0.81194   0.04594   0.25929   0.00000  Uiso   1.00
H900   H     0.75903   0.04588   0.31223   0.00000  Uiso   1.00
H901   H     0.68706  -0.03863   0.24018   0.00000  Uiso   1.00
H902   H     0.73994  -0.03858   0.18728   0.00000  Uiso   1.00
H903   H     0.63523   0.00395   0.27064   0.00000  Uiso   1.00
H904   H     0.58247   0.00237   0.32352   0.00000  Uiso   1.00
H905   H     0.67636   0.00201   0.41699   0.00000  Uiso   1.00
H906   H     0.72902   0.00277   0.36398   0.00000  Uiso   1.00
C907   C     0.68500   0.50383   0.81513   0.00000  Uiso   1.00
C908   C     0.64327   0.50354   0.80444   0.00000  Uiso   1.00
C909   C     0.61286   0.50285   0.83469   0.00000  Uiso   1.00
X910   C     0.62330   0.50244   0.87667   0.00000  Uiso   1.00
C911   C     0.66525   0.50302   0.88722   0.00000  Uiso   1.00
C912   C     0.69558   0.50367   0.85689   0.00000  Uiso   1.00
C913   C     0.71735   0.50402   0.78287   0.00000  Uiso   1.00
C914   C     0.75312   0.48040   0.78751   0.00000  Uiso   1.00
C915   C     0.78343   0.48035   0.75715   0.00000  Uiso   1.00
C916   C     0.77876   0.50393   0.72135   0.00000  Uiso   1.00
C917   C     0.74301   0.52759   0.71673   0.00000  Uiso   1.00
C918   C     0.71270   0.52763   0.74710   0.00000  Uiso   1.00
C919   C     0.81098   0.50368   0.68895   0.00000  Uiso   1.00
C920   C     0.80023   0.50342   0.64720   0.00000  Uiso   1.00
C921   C     0.83049   0.50271   0.61679   0.00000  Uiso   1.00
X922   C     0.87233   0.50225   0.62733   0.00000  Uiso   1.00
C923   C     0.88304   0.50276   0.66912   0.00000  Uiso   1.00
C924   C     0.85277   0.50344   0.69950   0.00000  Uiso   1.00
H925   H     0.63405   0.50315   0.77255   0.00000  Uiso   1.00
H926   H     0.58112   0.50241   0.82493   0.00000  Uiso   1.00
H927   H     0.67492   0.50295   0.91899   0.00000  Uiso   1.00
H928   H     0.72742   0.50449   0.86621   0.00000  Uiso   1.00
H929   H     0.75739   0.46133   0.81433   0.00000  Uiso   1.00
H930   H     0.81023   0.46125   0.76139   0.00000  Uiso   1.00
H931   H     0.73872   0.54659   0.68985   0.00000  Uiso   1.00
H932   H     0.68584   0.54667   0.74283   0.00000  Uiso   1.00
H933   H     0.76835   0.50308   0.63799   0.00000  Uiso   1.00
H934   H     0.82100   0.50228   0.58498   0.00000  Uiso   1.00
H935   H     0.91489   0.50262   0.67849   0.00000  Uiso   1.00
H936   H     0.86214   0.50423   0.73134   0.00000  Uiso   1.00
loop_
_geom_bond_atom_site_label_1
_geom_bond_atom_site_label_2
_geom_bond_distance
_geom_bond_site_symmetry_2
_ccdc_geom_bond_type
O1     Zr37    2.114   .     S
O1     X12     1.300   .     A
O2     Zr36    2.114   .     S
O2     X13     1.299   .     A
O3     Zr9     2.116   .     S
O3     X14     1.301   .     A
O4     Zr9     2.114   .     S
O4     X15     1.300   .     A
O5     Zr39    2.114   .     S
O5     X15     1.300   .     A
O6     Zr38    2.116   .     S
O6     X14     1.301   .     A
O7     Zr9     2.113   .     S
O7     X13     1.299   .     A
O8     Zr9     2.113   .     S
O8     X12     1.299   .     A
Zr9    O10     2.061   .     S
Zr9    O11     2.060   .     S
Zr9    O19     2.057   .     S
Zr9    O17     2.056   .     S
O10    Zr36    2.059   .     S
O10    Zr39    2.060   .     S
O11    Zr37    2.061   .     S
O11    Zr38    2.060   .     S
X12    X220    1.486   .     S
X13    X340    1.487   1_455 S
X14    X670    1.414   1_554 A
X15    X460    1.487   .     S
H16    O17     0.989   .     S
O17    Zr36    2.057   .     S
O17    Zr38    2.057   .     S
H18    O19     0.989   .     S
O19    Zr37    2.057   .     S
O19    Zr39    2.057   .     S
O20    Zr36    2.112   .     S
O20    X43     1.299   .     A
O21    Zr37    2.116   .     S
O21    X44     1.301   .     A
O22    Zr38    2.113   .     S
O22    X45     1.299   .     A
O23    Zr39    2.116   .     S
O23    X46     1.301   .     A
O24    Zr39    2.113   .     S
O24    X47     1.299   .     A
O25    Zr38    2.113   .     S
O25    X48     1.299   .     A
O26    Zr40    2.115   .     S
O26    X49     1.301   .     A
O27    Zr40    2.114   .     S
O27    X50     1.300   .     A
O28    Zr38    2.116   .     S
O28    X49     1.301   .     A
O29    Zr39    2.113   .     S
O29    X50     1.299   .     A
O30    Zr36    2.113   .     S
O30    X45     1.299   .     A
O31    Zr37    2.113   .     S
O31    X48     1.299   .     A
O32    Zr37    2.113   .     S
O32    X47     1.299   .     A
O33    Zr36    2.116   .     S
O33    X46     1.301   .     A
O34    Zr40    2.113   .     S
O34    X43     1.299   .     A
O35    Zr40    2.115   .     S
O35    X44     1.301   .     A
Zr36   O42     2.061   .     S
Zr36   O54     2.056   .     S
Zr37   O41     2.060   .     S
Zr37   O52     2.057   .     S
Zr38   O42     2.060   .     S
Zr38   O52     2.057   .     S
Zr39   O41     2.061   .     S
Zr39   O54     2.056   .     S
Zr40   O41     2.060   .     S
Zr40   O42     2.060   .     S
Zr40   O54     2.058   .     S
Zr40   O52     2.056   .     S
X43    X280    1.485   1_445 S
X44    X430    1.414   1_545 A
X45    X760    1.485   1_454 S
X46    X880    1.415   1_455 A
X47    X700    1.486   .     S
X48    X820    1.486   1_554 S
X49    X520    1.414   1_544 A
X50    X580    1.487   1_545 S
H51    O52     0.989   .     S
H53    O54     0.989   .     S
O55    Zr91    2.112   .     S
O55    X66     1.299   .     A
O56    Zr90    2.115   .     S
O56    X67     1.300   .     A
O57    Zr63    2.115   .     S
O57    X68     1.301   .     A
O58    Zr63    2.112   .     S
O58    X69     1.299   .     A
O59    Zr93    2.112   .     S
O59    X69     1.299   .     A
O60    Zr92    2.115   .     S
O60    X68     1.301   .     A
O61    Zr63    2.116   .     S
O61    X67     1.300   .     A
O62    Zr63    2.113   .     S
O62    X66     1.299   .     A
Zr63   O64     2.060   .     S
Zr63   O65     2.060   .     S
Zr63   O73     2.059   .     S
Zr63   O71     2.056   .     S
O64    Zr90    2.059   .     S
O64    Zr93    2.061   .     S
O65    Zr91    2.061   .     S
O65    Zr92    2.059   .     S
X66    X292    1.485   .     S
X67    X442    1.489   .     S
X68    X610    1.414   1_554 A
X69    X550    1.484   .     S
H70    O71     0.989   .     S
O71    Zr90    2.058   .     S
O71    Zr92    2.057   .     S
H72    O73     0.989   .     S
O73    Zr91    2.057   .     S
O73    Zr93    2.057   .     S
O74    Zr90    2.113   .     S
O74    X97     1.299   .     A
O75    Zr91    2.114   .     S
O75    X98     1.299   .     A
O76    Zr92    2.114   .     S
O76    X99     1.300   .     A
O77    Zr93    2.115   .     S
O77    X100    1.300   .     A
O78    Zr93    2.116   .     S
O78    X101    1.300   .     A
O79    Zr92    2.114   .     S
O79    X102    1.301   .     A
O80    Zr94    2.114   .     S
O80    X103    1.299   .     A
O81    Zr94    2.114   .     S
O81    X104    1.299   .     A
O82    Zr92    2.114   .     S
O82    X103    1.300   .     A
O83    Zr93    2.114   .     S
O83    X104    1.300   .     A
O84    Zr90    2.112   .     S
O84    X99     1.299   .     A
O85    Zr91    2.115   .     S
O85    X102    1.301   .     A
O86    Zr91    2.117   .     S
O86    X101    1.300   .     A
O87    Zr90    2.115   .     S
O87    X100    1.300   .     A
O88    Zr94    2.113   .     S
O88    X97     1.299   .     A
O89    Zr94    2.114   .     S
O89    X98     1.299   .     A
Zr90   O96     2.061   .     S
Zr90   O108    2.057   .     S
Zr91   O95     2.060   .     S
Zr91   O106    2.057   .     S
Zr92   O96     2.060   .     S
Zr92   O106    2.057   .     S
Zr93   O95     2.060   .     S
Zr93   O108    2.057   .     S
Zr94   O95     2.060   .     S
Zr94   O96     2.060   .     S
Zr94   O108    2.057   .     S
Zr94   O106    2.057   .     S
X97    X232    1.486   .     S
X98    X352    1.487   .     S
X99    X730    1.486   1_554 S
X100   X850    1.488   .     S
X101   X790    1.490   .     S
X102   X910    1.413   1_554 A
X103   X490    1.487   1_554 S
X104   X640    1.487   .     S
H105   O106    0.989   .     S
H107   O108    0.989   .     S
O109   Zr145   2.114   .     S
O109   X120    1.299   .     A
O110   Zr144   2.114   .     S
O110   X121    1.301   .     A
O111   Zr117   2.114   .     S
O111   X122    1.300   .     A
O112   Zr117   2.115   .     S
O112   X123    1.300   .     A
O113   Zr147   2.116   .     S
O113   X123    1.300   .     A
O114   Zr146   2.113   .     S
O114   X122    1.299   .     A
O115   Zr117   2.114   .     S
O115   X121    1.301   .     A
O116   Zr117   2.114   .     S
O116   X120    1.300   .     A
Zr117  O118    2.060   .     S
Zr117  O119    2.060   .     S
Zr117  O127    2.057   .     S
Zr117  O125    2.058   .     S
O118   Zr144   2.060   .     S
O118   Zr147   2.061   .     S
O119   Zr145   2.060   .     S
O119   Zr146   2.060   .     S
X120   X250    1.487   .     S
X121   X370    1.413   1_455 A
X122   X592    1.487   .     S
X123   X532    1.489   .     S
H124   O125    0.989   .     S
O125   Zr144   2.056   .     S
O125   Zr146   2.057   .     S
H126   O127    0.989   .     S
O127   Zr145   2.058   .     S
O127   Zr147   2.058   .     S
O128   Zr144   2.112   .     S
O128   X151    1.299   .     A
O129   Zr145   2.115   .     S
O129   X152    1.300   .     A
O130   Zr146   2.116   .     S
O130   X153    1.301   .     A
O131   Zr147   2.114   .     S
O131   X154    1.300   .     A
O132   Zr147   2.113   .     S
O132   X155    1.299   .     A
O133   Zr146   2.115   .     S
O133   X156    1.300   .     A
O134   Zr148   2.114   .     S
O134   X157    1.300   .     A
O135   Zr148   2.116   .     S
O135   X158    1.300   .     A
O136   Zr146   2.114   .     S
O136   X157    1.299   .     A
O137   Zr147   2.116   .     S
O137   X158    1.300   .     A
O138   Zr144   2.117   .     S
O138   X153    1.301   .     A
O139   Zr145   2.115   .     S
O139   X156    1.300   .     A
O140   Zr145   2.113   .     S
O140   X155    1.299   .     A
O141   Zr144   2.115   .     S
O141   X154    1.300   .     A
O142   Zr148   2.112   .     S
O142   X151    1.299   .     A
O143   Zr148   2.115   .     S
O143   X152    1.300   .     A
Zr144  O150    2.060   .     S
Zr144  O162    2.058   .     S
Zr145  O149    2.060   .     S
Zr145  O160    2.057   .     S
Zr146  O150    2.059   .     S
Zr146  O160    2.058   .     S
Zr147  O149    2.061   .     S
Zr147  O162    2.057   .     S
Zr148  O149    2.059   .     S
Zr148  O150    2.061   .     S
Zr148  O162    2.058   .     S
Zr148  O160    2.057   .     S
X151   X310    1.485   1_455 S
X152   X400    1.489   .     S
X153   X802    1.415   1_455 A
X154   X922    1.488   1_455 S
X155   X742    1.486   .     S
X156   X862    1.488   .     S
X157   X472    1.487   .     S
X158   X682    1.490   .     S
H159   O160    0.989   .     S
H161   O162    0.989   .     S
O163   Zr199   2.113   .     S
O163   X174    1.299   .     A
O164   Zr198   2.115   .     S
O164   X175    1.300   .     A
O165   Zr171   2.114   .     S
O165   X176    1.299   .     A
O166   Zr171   2.114   .     S
O166   X177    1.299   .     A
O167   Zr201   2.114   .     S
O167   X177    1.300   .     A
O168   Zr200   2.114   .     S
O168   X176    1.300   .     A
O169   Zr171   2.115   .     S
O169   X175    1.300   .     A
O170   Zr171   2.111   .     S
O170   X174    1.299   .     A
Zr171  O172    2.059   .     S
Zr171  O173    2.061   .     S
Zr171  O181    2.058   .     S
Zr171  O179    2.056   .     S
O172   Zr198   2.059   .     S
O172   Zr201   2.060   .     S
O173   Zr199   2.060   .     S
O173   Zr200   2.059   .     S
X174   X322    1.485   .     S
X175   X412    1.489   .     S
X176   X652    1.487   .     S
X177   X502    1.487   .     S
H178   O179    0.989   .     S
O179   Zr198   2.057   .     S
O179   Zr200   2.057   .     S
H180   O181    0.989   .     S
O181   Zr199   2.058   .     S
O181   Zr201   2.057   .     S
O182   Zr198   2.113   .     S
O182   X205    1.299   .     A
O183   Zr199   2.114   .     S
O183   X206    1.300   .     A
O184   Zr200   2.114   .     S
O184   X207    1.299   .     A
O185   Zr201   2.113   .     S
O185   X208    1.299   .     A
O186   Zr201   2.112   .     S
O186   X209    1.299   .     A
O187   Zr200   2.116   .     S
O187   X210    1.300   .     A
O188   Zr202   2.112   .     S
O188   X211    1.299   .     A
O189   Zr202   2.115   .     S
O189   X212    1.300   .     A
O190   Zr200   2.111   .     S
O190   X211    1.299   .     A
O191   Zr201   2.115   .     S
O191   X212    1.300   .     A
O192   Zr198   2.113   .     S
O192   X207    1.299   .     A
O193   Zr199   2.116   .     S
O193   X210    1.300   .     A
O194   Zr199   2.113   .     S
O194   X209    1.299   .     A
O195   Zr198   2.113   .     S
O195   X208    1.299   .     A
O196   Zr202   2.114   .     S
O196   X205    1.300   .     A
O197   Zr202   2.114   .     S
O197   X206    1.300   .     A
Zr198  O204    2.060   .     S
Zr198  O216    2.057   .     S
Zr199  O203    2.061   .     S
Zr199  O214    2.056   .     S
Zr200  O204    2.061   .     S
Zr200  O214    2.057   .     S
Zr201  O203    2.060   .     S
Zr201  O216    2.057   .     S
Zr202  O203    2.059   .     S
Zr202  O204    2.060   .     S
Zr202  O216    2.057   .     S
Zr202  O214    2.058   .     S
X205   X262    1.487   1_545 S
X206   X382    1.488   1_545 S
X207   X712    1.486   .     S
X208   X832    1.486   .     S
X209   X772    1.485   .     S
X210   X892    1.490   .     S
X211   X562    1.484   1_545 S
X212   X622    1.489   1_545 S
H213   O214    0.989   .     S
H215   O216    0.989   .     S
C217   C218    1.406   .     A
C217   C222    1.406   .     A
C217   C223    1.489   .     S
C218   C219    1.399   .     A
C218   H235    1.083   .     S
C219   X220    1.407   .     A
C219   H236    1.083   .     S
X220   C221    1.407   .     A
C221   C222    1.398   .     A
C221   H237    1.083   .     S
C222   H238    1.083   .     S
C223   C224    1.406   .     A
C223   C228    1.406   .     A
C224   C225    1.398   .     A
C224   H239    1.083   .     S
C225   C226    1.406   .     A
C225   H240    1.083   .     S
C226   C227    1.406   .     A
C226   C229    1.489   .     S
C227   C228    1.399   .     A
C227   H241    1.083   .     S
C228   H242    1.083   .     S
C229   C230    1.406   .     A
C229   C234    1.406   .     A
C230   C231    1.399   .     A
C230   H243    1.083   .     S
C231   X232    1.407   .     A
C231   H244    1.083   .     S
X232   C233    1.407   .     A
C233   C234    1.399   .     A
C233   H245    1.083   .     S
C234   H246    1.083   .     S
C247   C248    1.406   .     A
C247   C252    1.406   .     A
C247   C253    1.489   .     S
C248   C249    1.399   .     A
C248   H265    1.083   .     S
C249   X250    1.407   .     A
C249   H266    1.083   .     S
X250   C251    1.407   .     A
C251   C252    1.399   .     A
C251   H267    1.083   .     S
C252   H268    1.083   .     S
C253   C254    1.406   .     A
C253   C258    1.406   .     A
C254   C255    1.399   .     A
C254   H269    1.083   .     S
C255   C256    1.406   .     A
C255   H270    1.083   .     S
C256   C257    1.406   .     A
C256   C259    1.489   .     S
C257   C258    1.399   .     A
C257   H271    1.083   .     S
C258   H272    1.083   .     S
C259   C260    1.406   .     A
C259   C264    1.406   .     A
C260   C261    1.399   .     A
C260   H273    1.083   .     S
C261   X262    1.407   .     A
C261   H274    1.083   .     S
X262   C263    1.407   .     A
X262   X205    1.487   1_565 S
C263   C264    1.399   .     A
C263   H275    1.083   .     S
C264   H276    1.083   .     S
C277   C278    1.405   .     A
C277   C282    1.406   .     A
C277   C283    1.487   .     S
C278   C279    1.398   .     A
C278   H295    1.083   .     S
C279   X280    1.407   .     A
C279   H296    1.083   .     S
X280   C281    1.407   .     A
X280   X43     1.485   1_665 S
C281   C282    1.398   .     A
C281   H297    1.083   .     S
C282   H298    1.083   .     S
C283   C284    1.406   .     A
C283   C288    1.406   .     A
C284   C285    1.399   .     A
C284   H299    1.083   .     S
C285   C286    1.406   .     A
C285   H300    1.083   .     S
C286   C287    1.406   .     A
C286   C289    1.487   .     S
C287   C288    1.398   .     A
C287   H301    1.083   .     S
C288   H302    1.083   .     S
C289   C290    1.406   .     A
C289   C294    1.406   .     A
C290   C291    1.398   .     A
C290   H303    1.083   .     S
C291   X292    1.407   .     A
C291   H304    1.083   .     S
X292   C293    1.407   .     A
C293   C294    1.398   .     A
C293   H305    1.083   .     S
C294   H306    1.083   .     S
C307   C308    1.406   .     A
C307   C312    1.405   .     A
C307   C313    1.487   .     S
C308   C309    1.398   .     A
C308   H325    1.083   .     S
C309   X310    1.407   .     A
C309   H326    1.083   .     S
X310   C311    1.407   .     A
X310   X151    1.485   1_655 S
C311   C312    1.398   .     A
C311   H327    1.083   .     S
C312   H328    1.083   .     S
C313   C314    1.406   .     A
C313   C318    1.406   .     A
C314   C315    1.398   .     A
C314   H329    1.083   .     S
C315   C316    1.406   .     A
C315   H330    1.083   .     S
C316   C317    1.406   .     A
C316   C319    1.486   .     S
C317   C318    1.398   .     A
C317   H331    1.083   .     S
C318   H332    1.083   .     S
C319   C320    1.405   .     A
C319   C324    1.406   .     A
C320   C321    1.398   .     A
C320   H333    1.083   .     S
C321   X322    1.407   .     A
C321   H334    1.083   .     S
X322   C323    1.407   .     A
C323   C324    1.398   .     A
C323   H335    1.083   .     S
C324   H336    1.083   .     S
C337   C338    1.406   .     A
C337   C342    1.406   .     A
C337   C343    1.489   .     S
C338   C339    1.399   .     A
C338   H355    1.083   .     S
C339   X340    1.407   .     A
C339   H356    1.083   .     S
X340   C341    1.407   .     A
X340   X13     1.487   1_655 S
C341   C342    1.399   .     A
C341   H357    1.083   .     S
C342   H358    1.083   .     S
C343   C344    1.406   .     A
C343   C348    1.406   .     A
C344   C345    1.399   .     A
C344   H359    1.083   .     S
C345   C346    1.406   .     A
C345   H360    1.083   .     S
C346   C347    1.406   .     A
C346   C349    1.489   .     S
C347   C348    1.399   .     A
C347   H361    1.083   .     S
C348   H362    1.083   .     S
C349   C350    1.406   .     A
C349   C354    1.406   .     A
C350   C351    1.399   .     A
C350   H363    1.083   .     S
C351   X352    1.407   .     A
C351   H364    1.083   .     S
X352   C353    1.407   .     A
C353   C354    1.399   .     A
C353   H365    1.083   .     S
C354   H366    1.083   .     S
C367   C368    1.405   .     A
C367   C372    1.405   .     A
C367   C373    1.490   .     S
C368   C369    1.399   .     A
C368   H385    1.083   .     S
C369   X370    1.411   .     A
C369   H386    1.083   .     S
X370   C371    1.411   .     A
X370   X121    1.413   1_655 A
C371   C372    1.399   .     A
C371   H387    1.083   .     S
C372   H388    1.083   .     S
C373   C374    1.406   .     A
C373   C378    1.406   .     A
C374   C375    1.400   .     A
C374   H389    1.083   .     S
C375   C376    1.406   .     A
C375   H390    1.083   .     S
C376   C377    1.406   .     A
C376   C379    1.490   .     S
C377   C378    1.399   .     A
C377   H391    1.083   .     S
C378   H392    1.083   .     S
C379   C380    1.406   .     A
C379   C384    1.406   .     A
C380   C381    1.399   .     A
C380   H393    1.083   .     S
C381   X382    1.407   .     A
C381   H394    1.083   .     S
X382   C383    1.407   .     A
X382   X206    1.488   1_565 S
C383   C384    1.399   .     A
C383   H395    1.083   .     S
C384   H396    1.083   .     S
C397   C398    1.406   .     A
C397   C402    1.406   .     A
C397   C403    1.491   .     S
C398   C399    1.400   .     A
C398   H415    1.083   .     S
C399   X400    1.408   .     A
C399   H416    1.083   .     S
X400   C401    1.407   .     A
C401   C402    1.400   .     A
C401   H417    1.083   .     S
C402   H418    1.083   .     S
C403   C404    1.407   .     A
C403   C408    1.407   .     A
C404   C405    1.400   .     A
C404   H419    1.083   .     S
C405   C406    1.407   .     A
C405   H420    1.083   .     S
C406   C407    1.407   .     A
C406   C409    1.491   .     S
C407   C408    1.400   .     A
C407   H421    1.083   .     S
C408   H422    1.083   .     S
C409   C410    1.406   .     A
C409   C414    1.406   .     A
C410   C411    1.400   .     A
C410   H423    1.083   .     S
C411   X412    1.408   .     A
C411   H424    1.083   .     S
X412   C413    1.408   .     A
C413   C414    1.399   .     A
C413   H425    1.083   .     S
C414   H426    1.083   .     S
C427   C428    1.406   .     A
C427   C432    1.406   .     A
C427   C433    1.492   .     S
C428   C429    1.400   .     A
C428   H445    1.083   .     S
C429   X430    1.411   .     A
C429   H446    1.083   .     S
X430   C431    1.411   .     A
X430   X44     1.414   1_565 A
C431   C432    1.400   .     A
C431   H447    1.083   .     S
C432   H448    1.083   .     S
C433   C434    1.407   .     A
C433   C438    1.407   .     A
C434   C435    1.400   .     A
C434   H449    1.083   .     S
C435   C436    1.407   .     A
C435   H450    1.083   .     S
C436   C437    1.407   .     A
C436   C439    1.492   .     S
C437   C438    1.400   .     A
C437   H451    1.083   .     S
C438   H452    1.083   .     S
C439   C440    1.407   .     A
C439   C444    1.407   .     A
C440   C441    1.400   .     A
C440   H453    1.083   .     S
C441   X442    1.408   .     A
C441   H454    1.083   .     S
X442   C443    1.408   .     A
C443   C444    1.400   .     A
C443   H455    1.083   .     S
C444   H456    1.083   .     S
C457   C458    1.406   .     A
C457   C462    1.406   .     A
C457   C463    1.490   .     S
C458   C459    1.399   .     A
C458   H475    1.083   .     S
C459   X460    1.407   .     A
C459   H476    1.083   .     S
X460   C461    1.407   .     A
C461   C462    1.399   .     A
C461   H477    1.083   .     S
C462   H478    1.083   .     S
C463   C464    1.406   .     A
C463   C468    1.406   .     A
C464   C465    1.399   .     A
C464   H479    1.083   .     S
C465   C466    1.406   .     A
C465   H480    1.083   .     S
C466   C467    1.406   .     A
C466   C469    1.490   .     S
C467   C468    1.399   .     A
C467   H481    1.083   .     S
C468   H482    1.083   .     S
C469   C470    1.406   .     A
C469   C474    1.406   .     A
C470   C471    1.399   .     A
C470   H483    1.083   .     S
C471   X472    1.407   .     A
C471   H484    1.083   .     S
X472   C473    1.407   .     A
C473   C474    1.399   .     A
C473   H485    1.083   .     S
C474   H486    1.083   .     S
C487   C488    1.406   .     A
C487   C492    1.406   .     A
C487   C493    1.490   .     S
C488   C489    1.399   .     A
C488   H505    1.083   .     S
C489   X490    1.407   .     A
C489   H506    1.083   .     S
X490   C491    1.407   .     A
X490   X103    1.487   1_556 S
C491   C492    1.399   .     A
C491   H507    1.083   .     S
C492   H508    1.083   .     S
C493   C494    1.406   .     A
C493   C498    1.406   .     A
C494   C495    1.399   .     A
C494   H509    1.083   .     S
C495   C496    1.406   .     A
C495   H510    1.083   .     S
C496   C497    1.406   .     A
C496   C499    1.490   .     S
C497   C498    1.399   .     A
C497   H511    1.083   .     S
C498   H512    1.083   .     S
C499   C500    1.406   .     A
C499   C504    1.406   .     A
C500   C501    1.399   .     A
C500   H513    1.083   .     S
C501   X502    1.407   .     A
C501   H514    1.083   .     S
X502   C503    1.407   .     A
C503   C504    1.399   .     A
C503   H515    1.083   .     S
C504   H516    1.083   .     S
C517   C518    1.406   .     A
C517   C522    1.406   .     A
C517   C523    1.492   .     S
C518   C519    1.400   .     A
C518   H535    1.083   .     S
C519   X520    1.411   .     A
C519   H536    1.083   .     S
X520   C521    1.411   .     A
X520   X49     1.414   1_566 A
C521   C522    1.400   .     A
C521   H537    1.083   .     S
C522   H538    1.083   .     S
C523   C524    1.407   .     A
C523   C528    1.407   .     A
C524   C525    1.400   .     A
C524   H539    1.083   .     S
C525   C526    1.407   .     A
C525   H540    1.083   .     S
C526   C527    1.407   .     A
C526   C529    1.492   .     S
C527   C528    1.400   .     A
C527   H541    1.083   .     S
C528   H542    1.083   .     S
C529   C530    1.406   .     A
C529   C534    1.407   .     A
C530   C531    1.400   .     A
C530   H543    1.083   .     S
C531   X532    1.408   .     A
C531   H544    1.083   .     S
X532   C533    1.408   .     A
C533   C534    1.400   .     A
C533   H545    1.083   .     S
C534   H546    1.083   .     S
C547   C548    1.405   .     A
C547   C552    1.405   .     A
C547   C553    1.486   .     S
C548   C549    1.398   .     A
C548   H565    1.083   .     S
C549   X550    1.407   .     A
C549   H566    1.083   .     S
X550   C551    1.407   .     A
C551   C552    1.398   .     A
C551   H567    1.083   .     S
C552   H568    1.083   .     S
C553   C554    1.406   .     A
C553   C558    1.406   .     A
C554   C555    1.398   .     A
C554   H569    1.083   .     S
C555   C556    1.406   .     A
C555   H570    1.083   .     S
C556   C557    1.406   .     A
C556   C559    1.486   .     S
C557   C558    1.398   .     A
C557   H571    1.083   .     S
C558   H572    1.083   .     S
C559   C560    1.405   .     A
C559   C564    1.405   .     A
C560   C561    1.397   .     A
C560   H573    1.083   .     S
C561   X562    1.407   .     A
C561   H574    1.083   .     S
X562   C563    1.407   .     A
X562   X211    1.484   1_565 S
C563   C564    1.398   .     A
C563   H575    1.083   .     S
C564   H576    1.083   .     S
C577   C578    1.406   .     A
C577   C582    1.406   .     A
C577   C583    1.489   .     S
C578   C579    1.399   .     A
C578   H595    1.083   .     S
C579   X580    1.407   .     A
C579   H596    1.083   .     S
X580   C581    1.407   .     A
X580   X50     1.487   1_565 S
C581   C582    1.399   .     A
C581   H597    1.083   .     S
C582   H598    1.083   .     S
C583   C584    1.406   .     A
C583   C588    1.406   .     A
C584   C585    1.399   .     A
C584   H599    1.083   .     S
C585   C586    1.406   .     A
C585   H600    1.083   .     S
C586   C587    1.406   .     A
C586   C589    1.489   .     S
C587   C588    1.399   .     A
C587   H601    1.083   .     S
C588   H602    1.083   .     S
C589   C590    1.406   .     A
C589   C594    1.406   .     A
C590   C591    1.399   .     A
C590   H603    1.083   .     S
C591   X592    1.407   .     A
C591   H604    1.083   .     S
X592   C593    1.407   .     A
C593   C594    1.399   .     A
C593   H605    1.083   .     S
C594   H606    1.083   .     S
C607   C608    1.406   .     A
C607   C612    1.406   .     A
C607   C613    1.492   .     S
C608   C609    1.400   .     A
C608   H625    1.083   .     S
C609   X610    1.411   .     A
C609   H626    1.083   .     S
X610   C611    1.411   .     A
X610   X68     1.414   1_556 A
C611   C612    1.400   .     A
C611   H627    1.083   .     S
C612   H628    1.083   .     S
C613   C614    1.407   .     A
C613   C618    1.407   .     A
C614   C615    1.400   .     A
C614   H629    1.083   .     S
C615   C616    1.407   .     A
C615   H630    1.083   .     S
C616   C617    1.407   .     A
C616   C619    1.492   .     S
C617   C618    1.400   .     A
C617   H631    1.083   .     S
C618   H632    1.083   .     S
C619   C620    1.406   .     A
C619   C624    1.406   .     A
C620   C621    1.400   .     A
C620   H633    1.083   .     S
C621   X622    1.408   .     A
C621   H634    1.083   .     S
X622   C623    1.408   .     A
X622   X212    1.489   1_565 S
C623   C624    1.400   .     A
C623   H635    1.083   .     S
C624   H636    1.083   .     S
C637   C638    1.406   .     A
C637   C642    1.406   .     A
C637   C643    1.489   .     S
C638   C639    1.399   .     A
C638   H655    1.083   .     S
C639   X640    1.407   .     A
C639   H656    1.083   .     S
X640   C641    1.407   .     A
C641   C642    1.399   .     A
C641   H657    1.083   .     S
C642   H658    1.083   .     S
C643   C644    1.406   .     A
C643   C648    1.406   .     A
C644   C645    1.399   .     A
C644   H659    1.083   .     S
C645   C646    1.406   .     A
C645   H660    1.083   .     S
C646   C647    1.406   .     A
C646   C649    1.489   .     S
C647   C648    1.399   .     A
C647   H661    1.083   .     S
C648   H662    1.083   .     S
C649   C650    1.406   .     A
C649   C654    1.406   .     A
C650   C651    1.399   .     A
C650   H663    1.083   .     S
C651   X652    1.407   .     A
C651   H664    1.083   .     S
X652   C653    1.407   .     A
C653   C654    1.399   .     A
C653   H665    1.083   .     S
C654   H666    1.083   .     S
C667   C668    1.406   .     A
C667   C672    1.406   .     A
C667   C673    1.493   .     S
C668   C669    1.400   .     A
C668   H685    1.083   .     S
C669   X670    1.411   .     A
C669   H686    1.083   .     S
X670   C671    1.411   .     A
X670   X14     1.414   1_556 A
C671   C672    1.400   .     A
C671   H687    1.083   .     S
C672   H688    1.083   .     S
C673   C674    1.407   .     A
C673   C678    1.407   .     A
C674   C675    1.400   .     A
C674   H689    1.083   .     S
C675   C676    1.407   .     A
C675   H690    1.083   .     S
C676   C677    1.407   .     A
C676   C679    1.493   .     S
C677   C678    1.401   .     A
C677   H691    1.083   .     S
C678   H692    1.083   .     S
C679   C680    1.407   .     A
C679   C684    1.407   .     A
C680   C681    1.400   .     A
C680   H693    1.083   .     S
C681   X682    1.408   .     A
C681   H694    1.083   .     S
X682   C683    1.408   .     A
C683   C684    1.400   .     A
C683   H695    1.083   .     S
C684   H696    1.083   .     S
C697   C698    1.406   .     A
C697   C702    1.406   .     A
C697   C703    1.488   .     S
C698   C699    1.399   .     A
C698   H715    1.083   .     S
C699   X700    1.407   .     A
C699   H716    1.083   .     S
X700   C701    1.407   .     A
C701   C702    1.398   .     A
C701   H717    1.083   .     S
C702   H718    1.083   .     S
C703   C704    1.406   .     A
C703   C708    1.406   .     A
C704   C705    1.398   .     A
C704   H719    1.083   .     S
C705   C706    1.406   .     A
C705   H720    1.083   .     S
C706   C707    1.406   .     A
C706   C709    1.488   .     S
C707   C708    1.399   .     A
C707   H721    1.083   .     S
C708   H722    1.083   .     S
C709   C710    1.406   .     A
C709   C714    1.406   .     A
C710   C711    1.399   .     A
C710   H723    1.083   .     S
C711   X712    1.407   .     A
C711   H724    1.083   .     S
X712   C713    1.407   .     A
C713   C714    1.398   .     A
C713   H725    1.083   .     S
C714   H726    1.083   .     S
C727   C728    1.406   .     A
C727   C732    1.406   .     A
C727   C733    1.488   .     S
C728   C729    1.398   .     A
C728   H745    1.083   .     S
C729   X730    1.407   .     A
C729   H746    1.083   .     S
X730   C731    1.407   .     A
X730   X99     1.486   1_556 S
C731   C732    1.399   .     A
C731   H747    1.083   .     S
C732   H748    1.083   .     S
C733   C734    1.406   .     A
C733   C738    1.406   .     A
C734   C735    1.399   .     A
C734   H749    1.083   .     S
C735   C736    1.406   .     A
C735   H750    1.083   .     S
C736   C737    1.406   .     A
C736   C739    1.488   .     S
C737   C738    1.398   .     A
C737   H751    1.083   .     S
C738   H752    1.083   .     S
C739   C740    1.406   .     A
C739   C744    1.406   .     A
C740   C741    1.398   .     A
C740   H753    1.083   .     S
C741   X742    1.407   .     A
C741   H754    1.083   .     S
X742   C743    1.407   .     A
C743   C744    1.399   .     A
C743   H755    1.083   .     S
C744   H756    1.083   .     S
C757   C758    1.406   .     A
C757   C762    1.406   .     A
C757   C763    1.488   .     S
C758   C759    1.398   .     A
C758   H775    1.083   .     S
C759   X760    1.407   .     A
C759   H776    1.083   .     S
X760   C761    1.407   .     A
X760   X45     1.485   1_656 S
C761   C762    1.398   .     A
C761   H777    1.083   .     S
C762   H778    1.083   .     S
C763   C764    1.406   .     A
C763   C768    1.406   .     A
C764   C765    1.399   .     A
C764   H779    1.083   .     S
C765   C766    1.406   .     A
C765   H780    1.083   .     S
C766   C767    1.406   .     A
C766   C769    1.487   .     S
C767   C768    1.398   .     A
C767   H781    1.083   .     S
C768   H782    1.083   .     S
C769   C770    1.406   .     A
C769   C774    1.406   .     A
C770   C771    1.398   .     A
C770   H783    1.083   .     S
C771   X772    1.407   .     A
C771   H784    1.083   .     S
X772   C773    1.407   .     A
C773   C774    1.399   .     A
C773   H785    1.083   .     S
C774   H786    1.083   .     S
C787   C788    1.407   .     A
C787   C792    1.407   .     A
C787   C793    1.493   .     S
C788   C789    1.401   .     A
C788   H805    1.083   .     S
C789   X790    1.408   .     A
C789   H806    1.083   .     S
X790   C791    1.408   .     A
C791   C792    1.400   .     A
C791   H807    1.083   .     S
C792   H808    1.083   .     S
C793   C794    1.407   .     A
C793   C798    1.407   .     A
C794   C795    1.400   .     A
C794   H809    1.083   .     S
C795   C796    1.407   .     A
C795   H810    1.083   .     S
C796   C797    1.407   .     A
C796   C799    1.493   .     S
C797   C798    1.401   .     A
C797   H811    1.083   .     S
C798   H812    1.083   .     S
C799   C800    1.406   .     A
C799   C804    1.406   .     A
C800   C801    1.400   .     A
C800   H813    1.083   .     S
C801   X802    1.412   .     A
C801   H814    1.083   .     S
X802   C803    1.411   .     A
X802   X153    1.415   1_655 A
C803   C804    1.400   .     A
C803   H815    1.083   .     S
C804   H816    1.083   .     S
C817   C818    1.406   .     A
C817   C822    1.406   .     A
C817   C823    1.488   .     S
C818   C819    1.399   .     A
C818   H835    1.083   .     S
C819   X820    1.407   .     A
C819   H836    1.083   .     S
X820   C821    1.407   .     A
X820   X48     1.486   1_556 S
C821   C822    1.398   .     A
C821   H837    1.083   .     S
C822   H838    1.083   .     S
C823   C824    1.406   .     A
C823   C828    1.406   .     A
C824   C825    1.398   .     A
C824   H839    1.083   .     S
C825   C826    1.406   .     A
C825   H840    1.083   .     S
C826   C827    1.406   .     A
C826   C829    1.488   .     S
C827   C828    1.399   .     A
C827   H841    1.083   .     S
C828   H842    1.083   .     S
C829   C830    1.406   .     A
C829   C834    1.406   .     A
C830   C831    1.399   .     A
C830   H843    1.083   .     S
C831   X832    1.407   .     A
C831   H844    1.083   .     S
X832   C833    1.407   .     A
C833   C834    1.398   .     A
C833   H845    1.083   .     S
C834   H846    1.083   .     S
C847   C848    1.406   .     A
C847   C852    1.406   .     A
C847   C853    1.491   .     S
C848   C849    1.399   .     A
C848   H865    1.083   .     S
C849   X850    1.407   .     A
C849   H866    1.083   .     S
X850   C851    1.408   .     A
C851   C852    1.400   .     A
C851   H867    1.083   .     S
C852   H868    1.083   .     S
C853   C854    1.407   .     A
C853   C858    1.407   .     A
C854   C855    1.400   .     A
C854   H869    1.083   .     S
C855   C856    1.407   .     A
C855   H870    1.083   .     S
C856   C857    1.406   .     A
C856   C859    1.491   .     S
C857   C858    1.399   .     A
C857   H871    1.083   .     S
C858   H872    1.083   .     S
C859   C860    1.406   .     A
C859   C864    1.406   .     A
C860   C861    1.399   .     A
C860   H873    1.083   .     S
C861   X862    1.407   .     A
C861   H874    1.083   .     S
X862   C863    1.408   .     A
C863   C864    1.400   .     A
C863   H875    1.083   .     S
C864   H876    1.083   .     S
C877   C878    1.406   .     A
C877   C882    1.406   .     A
C877   C883    1.493   .     S
C878   C879    1.400   .     A
C878   H895    1.083   .     S
C879   X880    1.411   .     A
C879   H896    1.083   .     S
X880   C881    1.412   .     A
X880   X46     1.415   1_655 A
C881   C882    1.400   .     A
C881   H897    1.083   .     S
C882   H898    1.083   .     S
C883   C884    1.407   .     A
C883   C888    1.407   .     A
C884   C885    1.401   .     A
C884   H899    1.083   .     S
C885   C886    1.407   .     A
C885   H900    1.083   .     S
C886   C887    1.407   .     A
C886   C889    1.493   .     S
C887   C888    1.400   .     A
C887   H901    1.083   .     S
C888   H902    1.083   .     S
C889   C890    1.407   .     A
C889   C894    1.407   .     A
C890   C891    1.400   .     A
C890   H903    1.083   .     S
C891   X892    1.408   .     A
C891   H904    1.083   .     S
X892   C893    1.408   .     A
C893   C894    1.401   .     A
C893   H905    1.083   .     S
C894   H906    1.083   .     S
C907   C908    1.405   .     A
C907   C912    1.405   .     A
C907   C913    1.490   .     S
C908   C909    1.399   .     A
C908   H925    1.083   .     S
C909   X910    1.411   .     A
C909   H926    1.083   .     S
X910   C911    1.411   .     A
X910   X102    1.413   1_556 A
C911   C912    1.399   .     A
C911   H927    1.083   .     S
C912   H928    1.083   .     S
C913   C914    1.406   .     A
C913   C918    1.407   .     A
C914   C915    1.399   .     A
C914   H929    1.083   .     S
C915   C916    1.406   .     A
C915   H930    1.083   .     S
C916   C917    1.407   .     A
C916   C919    1.491   .     S
C917   C918    1.400   .     A
C917   H931    1.083   .     S
C918   H932    1.083   .     S
C919   C920    1.406   .     A
C919   C924    1.406   .     A
C920   C921    1.400   .     A
C920   H933    1.083   .     S
C921   X922    1.407   .     A
C921   H934    1.083   .     S
X922   C923    1.407   .     A
X922   X154    1.488   1_655 S
C923   C924    1.399   .     A
C923   H935    1.083   .     S
C924   H936    1.083   .     S
