data_mostly_converged_ja5103103_si_002
_audit_creation_date              2015-10-12
_audit_creation_method            'Materials Studio'
_symmetry_space_group_name_H-M    'P1'
_symmetry_Int_Tables_number       1
_symmetry_cell_setting            triclinic
loop_
_symmetry_equiv_pos_as_xyz
  x,y,z
_cell_length_a                    38.4265
_cell_length_b                    38.4265
_cell_length_c                    38.4265
_cell_angle_alpha                 90.0000
_cell_angle_beta                  90.0000
_cell_angle_gamma                 90.0000
loop_
_atom_site_label
_atom_site_type_symbol
_atom_site_fract_x
_atom_site_fract_y
_atom_site_fract_z
_atom_site_U_iso_or_equiv
_atom_site_adp_type
_atom_site_occupancy
C1     C     0.26205   1.07435   0.02415   0.00000  Uiso   1.00
C2     C     0.26896   1.11006   0.01241   0.00000  Uiso   1.00
H3     H     0.27377   1.13272   0.02840   0.00000  Uiso   1.00
C4     C     0.24077   0.92842  -0.02706   0.00000  Uiso   1.00
C5     C     0.23387   0.89270  -0.01535   0.00000  Uiso   1.00
H6     H     0.22883   0.87011  -0.03137   0.00000  Uiso   1.00
C7     C     0.24759   0.97056  -0.07532   0.00000  Uiso   1.00
C8     C     0.24964   0.98128  -0.11170   0.00000  Uiso   1.00
H9     H     0.24905   0.96533  -0.13487   0.00000  Uiso   1.00
C10    C     0.25511   1.03224   0.07244   0.00000  Uiso   1.00
C11    C     0.25296   1.02152   0.10881   0.00000  Uiso   1.00
H12    H     0.25329   1.03752   0.13196   0.00000  Uiso   1.00
C13    C     0.26221   1.07434  -0.03246   0.00000  Uiso   1.00
C14    C     0.26897   1.11013  -0.02172   0.00000  Uiso   1.00
H15    H     0.27370   1.13267  -0.03794   0.00000  Uiso   1.00
C16    C     0.24113   0.92829   0.02957   0.00000  Uiso   1.00
C17    C     0.23414   0.89255   0.01878   0.00000  Uiso   1.00
H18    H     0.22941   0.86998   0.03496   0.00000  Uiso   1.00
C19    C     0.25324   1.02695  -0.07520   0.00000  Uiso   1.00
C20    C     0.25215   1.01528  -0.11158   0.00000  Uiso   1.00
H21    H     0.25348   1.03105  -0.13482   0.00000  Uiso   1.00
C22    C     0.24998   0.97573   0.07235   0.00000  Uiso   1.00
C23    C     0.25080   0.98747   0.10871   0.00000  Uiso   1.00
H24    H     0.24951   0.97170   0.13196   0.00000  Uiso   1.00
Fe25   Fe    0.25156   1.00135  -0.00143   0.00000  Uiso   1.00
C26    C     0.25873   1.06523   0.06143   0.00000  Uiso   1.00
C27    C     0.24372   0.93763  -0.06435   0.00000  Uiso   1.00
C28    C     0.25816   1.06390  -0.06552   0.00000  Uiso   1.00
C29    C     0.24517   0.93870   0.06266   0.00000  Uiso   1.00
N30    N     0.25909   1.05311  -0.00211   0.00000  Uiso   1.00
N31    N     0.24405   0.94958  -0.00076   0.00000  Uiso   1.00
N32    N     0.25042   1.00078  -0.05380   0.00000  Uiso   1.00
N33    N     0.25268   1.00193   0.05095   0.00000  Uiso   1.00
C34    C     0.76383   0.57119   0.52438   0.00000  Uiso   1.00
C35    C     0.76965   0.60735   0.51348   0.00000  Uiso   1.00
H36    H     0.77426   0.62968   0.52998   0.00000  Uiso   1.00
C37    C     0.74622   0.42587   0.46960   0.00000  Uiso   1.00
C38    C     0.74040   0.38973   0.48054   0.00000  Uiso   1.00
H39    H     0.73561   0.36741   0.46407   0.00000  Uiso   1.00
C40    C     0.75076   0.46952   0.42233   0.00000  Uiso   1.00
C41    C     0.75165   0.48131   0.38623   0.00000  Uiso   1.00
H42    H     0.75094   0.46597   0.36265   0.00000  Uiso   1.00
C43    C     0.75905   0.52764   0.57167   0.00000  Uiso   1.00
C44    C     0.75783   0.51593   0.60777   0.00000  Uiso   1.00
H45    H     0.75822   0.53131   0.63133   0.00000  Uiso   1.00
C46    C     0.76302   0.57268   0.46773   0.00000  Uiso   1.00
C47    C     0.76912   0.60832   0.47936   0.00000  Uiso   1.00
H48    H     0.77315   0.63139   0.46372   0.00000  Uiso   1.00
C49    C     0.74733   0.42435   0.52631   0.00000  Uiso   1.00
C50    C     0.74110   0.38874   0.51467   0.00000  Uiso   1.00
H51    H     0.73702   0.36568   0.53031   0.00000  Uiso   1.00
C52    C     0.75487   0.52612   0.42386   0.00000  Uiso   1.00
C53    C     0.75325   0.51537   0.38723   0.00000  Uiso   1.00
H54    H     0.75355   0.53178   0.36440   0.00000  Uiso   1.00
C55    C     0.75517   0.47102   0.57019   0.00000  Uiso   1.00
C56    C     0.75642   0.48186   0.60681   0.00000  Uiso   1.00
H57    H     0.75597   0.46548   0.62967   0.00000  Uiso   1.00
Fe58   Fe    0.75515   0.49853   0.49701   0.00000  Uiso   1.00
C59    C     0.76157   0.56104   0.56152   0.00000  Uiso   1.00
C60    C     0.74782   0.43614   0.43242   0.00000  Uiso   1.00
C61    C     0.75889   0.56304   0.43439   0.00000  Uiso   1.00
C62    C     0.75095   0.43409   0.55970   0.00000  Uiso   1.00
N63    N     0.76094   0.55057   0.49758   0.00000  Uiso   1.00
N64    N     0.74941   0.44646   0.49642   0.00000  Uiso   1.00
N65    N     0.75329   0.49928   0.44460   0.00000  Uiso   1.00
N66    N     0.75696   0.49782   0.54941   0.00000  Uiso   1.00
C67    C     0.74421   0.96801   1.07137   0.00000  Uiso   1.00
C68    C     0.74551   0.97924   1.10763   0.00000  Uiso   1.00
H69    H     0.74553   0.96352   1.13097   0.00000  Uiso   1.00
C70    C     0.74966   1.02838   0.92284   0.00000  Uiso   1.00
C71    C     0.74856   1.01711   0.88658   0.00000  Uiso   1.00
H72    H     0.74866   1.03282   0.86323   0.00000  Uiso   1.00
C73    C     0.75404   1.07142   0.97067   0.00000  Uiso   1.00
C74    C     0.75928   1.10752   0.98205   0.00000  Uiso   1.00
H75    H     0.76343   1.13015   0.96584   0.00000  Uiso   1.00
C76    C     0.73988   0.92500   1.02352   0.00000  Uiso   1.00
C77    C     0.73485   0.88887   1.01213   0.00000  Uiso   1.00
H78    H     0.73087   0.86620   1.02834   0.00000  Uiso   1.00
C79    C     0.74721   1.02470   1.07067   0.00000  Uiso   1.00
C80    C     0.74644   1.01334   1.10714   0.00000  Uiso   1.00
H81    H     0.74685   1.02942   1.13022   0.00000  Uiso   1.00
C82    C     0.74677   0.97169   0.92355   0.00000  Uiso   1.00
C83    C     0.74768   0.98302   0.88708   0.00000  Uiso   1.00
H84    H     0.74744   0.96695   0.86400   0.00000  Uiso   1.00
C85    C     0.75361   1.07211   1.02738   0.00000  Uiso   1.00
C86    C     0.75899   1.10801   1.01619   0.00000  Uiso   1.00
H87    H     0.76281   1.13092   1.03210   0.00000  Uiso   1.00
C88    C     0.74037   0.92431   0.96683   0.00000  Uiso   1.00
C89    C     0.73522   0.88838   0.97800   0.00000  Uiso   1.00
H90    H     0.73163   0.86544   0.96206   0.00000  Uiso   1.00
Fe91   Fe    0.74688   0.99821   0.99710   0.00000  Uiso   1.00
C92    C     0.74198   0.93472   1.06079   0.00000  Uiso   1.00
C93    C     0.75219   1.06165   0.93339   0.00000  Uiso   1.00
C94    C     0.75050   1.06185   1.06066   0.00000  Uiso   1.00
C95    C     0.74377   0.93454   0.93357   0.00000  Uiso   1.00
N96    N     0.74572   0.99816   1.04953   0.00000  Uiso   1.00
N97    N     0.74803   0.99825   0.94469   0.00000  Uiso   1.00
N98    N     0.75159   1.05039   0.99722   0.00000  Uiso   1.00
N99    N     0.74217   0.94605   0.99698   0.00000  Uiso   1.00
C100   C     0.24359   0.46663   0.57220   0.00000  Uiso   1.00
C101   C     0.24553   0.47680   0.60874   0.00000  Uiso   1.00
H102   H     0.24564   0.46041   0.63161   0.00000  Uiso   1.00
C103   C     0.24654   0.53088   0.42538   0.00000  Uiso   1.00
C104   C     0.24447   0.52062   0.38886   0.00000  Uiso   1.00
H105   H     0.24403   0.53696   0.36595   0.00000  Uiso   1.00
C106   C     0.25240   0.57258   0.47424   0.00000  Uiso   1.00
C107   C     0.25817   0.60832   0.48644   0.00000  Uiso   1.00
H108   H     0.26210   0.63135   0.47073   0.00000  Uiso   1.00
C109   C     0.23812   0.42498   0.52330   0.00000  Uiso   1.00
C110   C     0.23279   0.38917   0.51106   0.00000  Uiso   1.00
H111   H     0.22908   0.36608   0.52673   0.00000  Uiso   1.00
C112   C     0.24718   0.52327   0.57304   0.00000  Uiso   1.00
C113   C     0.24683   0.51089   0.60920   0.00000  Uiso   1.00
H114   H     0.24772   0.52631   0.63271   0.00000  Uiso   1.00
C115   C     0.24342   0.47427   0.42462   0.00000  Uiso   1.00
C116   C     0.24345   0.48655   0.38845   0.00000  Uiso   1.00
H117   H     0.24251   0.47109   0.36497   0.00000  Uiso   1.00
C118   C     0.25322   0.57178   0.53094   0.00000  Uiso   1.00
C119   C     0.25866   0.60791   0.52058   0.00000  Uiso   1.00
H120   H     0.26300   0.63037   0.53701   0.00000  Uiso   1.00
C121   C     0.23762   0.42581   0.46669   0.00000  Uiso   1.00
C122   C     0.23258   0.38960   0.47694   0.00000  Uiso   1.00
H123   H     0.22870   0.36710   0.46044   0.00000  Uiso   1.00
Fe124  Fe    0.24518   0.49880   0.49881   0.00000  Uiso   1.00
C125   C     0.24099   0.43370   0.56070   0.00000  Uiso   1.00
C126   C     0.24960   0.56378   0.43679   0.00000  Uiso   1.00
C127   C     0.25072   0.56064   0.56400   0.00000  Uiso   1.00
C128   C     0.24056   0.43693   0.43372   0.00000  Uiso   1.00
N129   N     0.24504   0.49735   0.55120   0.00000  Uiso   1.00
N130   N     0.24528   0.50022   0.44643   0.00000  Uiso   1.00
N131   N     0.25035   0.55089   0.50027   0.00000  Uiso   1.00
N132   N     0.24001   0.44673   0.49734   0.00000  Uiso   1.00
C133   C     1.07387   0.25523   0.02510   0.00000  Uiso   1.00
C134   C     1.10951   0.26052   0.01308   0.00000  Uiso   1.00
H135   H     1.13256   0.26571   0.02839   0.00000  Uiso   1.00
C136   C     0.92535   0.25376  -0.03278   0.00000  Uiso   1.00
C137   C     0.88972   0.25965  -0.02104   0.00000  Uiso   1.00
H138   H     0.86669   0.26434  -0.03656   0.00000  Uiso   1.00
C139   C     0.97196   0.24549  -0.07637   0.00000  Uiso   1.00
C140   C     0.98253   0.23823  -0.11238   0.00000  Uiso   1.00
H141   H     0.96583   0.23366  -0.13457   0.00000  Uiso   1.00
C142   C     1.02723   0.24906   0.06908   0.00000  Uiso   1.00
C143   C     1.01662   0.24353   0.10539   0.00000  Uiso   1.00
H144   H     1.03329   0.24009   0.12781   0.00000  Uiso   1.00
C145   C     1.07232   0.25216  -0.03144   0.00000  Uiso   1.00
C146   C     1.10853   0.25855  -0.02100   0.00000  Uiso   1.00
H147   H     1.13086   0.26205  -0.03778   0.00000  Uiso   1.00
C148   C     0.92685   0.25290   0.02378   0.00000  Uiso   1.00
C149   C     0.89065   0.25897   0.01307   0.00000  Uiso   1.00
H150   H     0.86833   0.26320   0.02968   0.00000  Uiso   1.00
C151   C     1.02850   0.24360  -0.07784   0.00000  Uiso   1.00
C152   C     1.01662   0.23695  -0.11330   0.00000  Uiso   1.00
H153   H     1.03204   0.23135  -0.13619   0.00000  Uiso   1.00
C154   C     0.97067   0.24697   0.07058   0.00000  Uiso   1.00
C155   C     0.98252   0.24214   0.10633   0.00000  Uiso   1.00
H156   H     0.96709   0.23758   0.12945   0.00000  Uiso   1.00
Fe157  Fe    0.99960   0.24994  -0.00373   0.00000  Uiso   1.00
C158   C     1.06408   0.25287   0.05853   0.00000  Uiso   1.00
C159   C     0.93517   0.25004  -0.06605   0.00000  Uiso   1.00
C160   C     1.06182   0.24720  -0.06816   0.00000  Uiso   1.00
C161   C     0.93730   0.24952   0.06066   0.00000  Uiso   1.00
N162   N     1.05181   0.25108  -0.00449   0.00000  Uiso   1.00
N163   N     0.94739   0.25074  -0.00306   0.00000  Uiso   1.00
N164   N     0.99885   0.24768  -0.05589   0.00000  Uiso   1.00
N165   N     1.00034   0.25022   0.04850   0.00000  Uiso   1.00
C166   C     0.57509   0.75758   0.52997   0.00000  Uiso   1.00
C167   C     0.61065   0.76268   0.51762   0.00000  Uiso   1.00
H168   H     0.63402   0.76694   0.53275   0.00000  Uiso   1.00
C169   C     0.42582   0.76134   0.47453   0.00000  Uiso   1.00
C170   C     0.39046   0.76745   0.48695   0.00000  Uiso   1.00
H171   H     0.36731   0.77299   0.47190   0.00000  Uiso   1.00
C172   C     0.47159   0.75358   0.42989   0.00000  Uiso   1.00
C173   C     0.48146   0.74748   0.39347   0.00000  Uiso   1.00
H174   H     0.46435   0.74396   0.37140   0.00000  Uiso   1.00
C175   C     0.52897   0.75080   0.57448   0.00000  Uiso   1.00
C176   C     0.51879   0.74423   0.61074   0.00000  Uiso   1.00
H177   H     0.53574   0.73960   0.63273   0.00000  Uiso   1.00
C178   C     0.57271   0.75660   0.47341   0.00000  Uiso   1.00
C179   C     0.60917   0.76197   0.48353   0.00000  Uiso   1.00
H180   H     0.63131   0.76572   0.46656   0.00000  Uiso   1.00
C181   C     0.42806   0.75860   0.53098   0.00000  Uiso   1.00
C182   C     0.39185   0.76570   0.52100   0.00000  Uiso   1.00
H183   H     0.36983   0.76977   0.53805   0.00000  Uiso   1.00
C184   C     0.52809   0.75085   0.42738   0.00000  Uiso   1.00
C185   C     0.51552   0.74570   0.39192   0.00000  Uiso   1.00
H186   H     0.53045   0.74064   0.36858   0.00000  Uiso   1.00
C187   C     0.47235   0.75005   0.57688   0.00000  Uiso   1.00
C188   C     0.48467   0.74365   0.61222   0.00000  Uiso   1.00
H189   H     0.46951   0.73863   0.63542   0.00000  Uiso   1.00
Fe190  Fe    0.50035   0.75502   0.50220   0.00000  Uiso   1.00
C191   C     0.56576   0.75402   0.56342   0.00000  Uiso   1.00
C192   C     0.43502   0.75806   0.44104   0.00000  Uiso   1.00
C193   C     0.56167   0.75307   0.43667   0.00000  Uiso   1.00
C194   C     0.43885   0.75343   0.56756   0.00000  Uiso   1.00
N195   N     0.55254   0.75498   0.50060   0.00000  Uiso   1.00
N196   N     0.44821   0.75704   0.50380   0.00000  Uiso   1.00
N197   N     0.49885   0.75469   0.44997   0.00000  Uiso   1.00
N198   N     0.50179   0.75342   0.55442   0.00000  Uiso   1.00
C199   C     0.02948   0.73704  -0.07391   0.00000  Uiso   1.00
C200   C     0.01694   0.73085  -0.10921   0.00000  Uiso   1.00
H201   H     0.03189   0.72482  -0.13230   0.00000  Uiso   1.00
C202   C    -0.02671   0.74227   0.07528   0.00000  Uiso   1.00
C203   C    -0.01447   0.73709   0.11086   0.00000  Uiso   1.00
H204   H    -0.02967   0.73292   0.13419   0.00000  Uiso   1.00
C205   C    -0.07080   0.74984   0.02900   0.00000  Uiso   1.00
C206   C    -0.10678   0.75754   0.01863   0.00000  Uiso   1.00
H207   H    -0.12874   0.76276   0.03545   0.00000  Uiso   1.00
C208   C     0.07404   0.74451  -0.02807   0.00000  Uiso   1.00
C209   C     0.11045   0.75040  -0.01802   0.00000  Uiso   1.00
H210   H     0.13264   0.75369  -0.03501   0.00000  Uiso   1.00
C211   C    -0.02696   0.74087  -0.07171   0.00000  Uiso   1.00
C212   C    -0.01708   0.73327  -0.10786   0.00000  Uiso   1.00
H213   H    -0.03419   0.72934  -0.12986   0.00000  Uiso   1.00
C214   C     0.02992   0.74292   0.07300   0.00000  Uiso   1.00
C215   C     0.01965   0.73767   0.10945   0.00000  Uiso   1.00
H216   H     0.03657   0.73391   0.13163   0.00000  Uiso   1.00
C217   C    -0.07277   0.75103  -0.02759   0.00000  Uiso   1.00
C218   C    -0.10800   0.75842  -0.01548   0.00000  Uiso   1.00
H219   H    -0.13092   0.76422  -0.03076   0.00000  Uiso   1.00
C220   C     0.07624   0.74773   0.02845   0.00000  Uiso   1.00
C221   C     0.11181   0.75246   0.01604   0.00000  Uiso   1.00
H222   H     0.13510   0.75749   0.03105   0.00000  Uiso   1.00
Fe223  Fe    0.00156   0.74436   0.00057   0.00000  Uiso   1.00
C224   C     0.06305   0.73999  -0.06475   0.00000  Uiso   1.00
C225   C    -0.06015   0.74598   0.06584   0.00000  Uiso   1.00
C226   C    -0.06341   0.74705  -0.06098   0.00000  Uiso   1.00
C227   C     0.06671   0.74606   0.06200   0.00000  Uiso   1.00
N228   N     0.00023   0.74202  -0.05157   0.00000  Uiso   1.00
N229   N     0.00279   0.74471   0.05279   0.00000  Uiso   1.00
N230   N    -0.05061   0.74694   0.00192   0.00000  Uiso   1.00
N231   N     0.05380   0.74380  -0.00087   0.00000  Uiso   1.00
C232   C     0.52597   0.23805   0.42067   0.00000  Uiso   1.00
C233   C     0.51273   0.23377   0.38535   0.00000  Uiso   1.00
H234   H     0.52720   0.22876   0.36171   0.00000  Uiso   1.00
C235   C     0.47312   0.23739   0.57104   0.00000  Uiso   1.00
C236   C     0.48603   0.23082   0.60615   0.00000  Uiso   1.00
H237   H     0.47126   0.22610   0.62965   0.00000  Uiso   1.00
C238   C     0.42806   0.24714   0.52608   0.00000  Uiso   1.00
C239   C     0.39185   0.25521   0.51685   0.00000  Uiso   1.00
H240   H     0.37027   0.25966   0.53437   0.00000  Uiso   1.00
C241   C     0.57153   0.24290   0.46586   0.00000  Uiso   1.00
C242   C     0.60820   0.24820   0.47530   0.00000  Uiso   1.00
H243   H     0.63003   0.25205   0.45797   0.00000  Uiso   1.00
C244   C     0.46964   0.24242   0.42413   0.00000  Uiso   1.00
C245   C     0.47877   0.23650   0.38747   0.00000  Uiso   1.00
H246   H     0.46122   0.23384   0.36562   0.00000  Uiso   1.00
C247   C     0.52963   0.23747   0.56757   0.00000  Uiso   1.00
C248   C     0.52011   0.23101   0.60402   0.00000  Uiso   1.00
H249   H     0.53747   0.22631   0.62568   0.00000  Uiso   1.00
C250   C     0.42480   0.25063   0.46963   0.00000  Uiso   1.00
C251   C     0.38986   0.25748   0.48283   0.00000  Uiso   1.00
H252   H     0.36659   0.26385   0.46832   0.00000  Uiso   1.00
C253   C     0.57499   0.24386   0.52232   0.00000  Uiso   1.00
C254   C     0.61031   0.24894   0.50935   0.00000  Uiso   1.00
H255   H     0.63395   0.25330   0.52402   0.00000  Uiso   1.00
Fe256  Fe    0.49970   0.24227   0.49591   0.00000  Uiso   1.00
C257   C     0.55971   0.23999   0.42935   0.00000  Uiso   1.00
C258   C     0.43959   0.24193   0.56248   0.00000  Uiso   1.00
C259   C     0.43344   0.24825   0.43588   0.00000  Uiso   1.00
C260   C     0.56617   0.24094   0.55593   0.00000  Uiso   1.00
N261   N     0.49722   0.24232   0.44377   0.00000  Uiso   1.00
N262   N     0.50212   0.24028   0.54802   0.00000  Uiso   1.00
N263   N     0.44761   0.24527   0.49845   0.00000  Uiso   1.00
N264   N     0.55188   0.24122   0.49340   0.00000  Uiso   1.00
C265   C     1.07450   0.02698   0.24545   0.00000  Uiso   1.00
C266   C     1.11009   0.01377   0.24579   0.00000  Uiso   1.00
H267   H     1.13423   0.02821   0.24462   0.00000  Uiso   1.00
C268   C     0.92339  -0.02491   0.24336   0.00000  Uiso   1.00
C269   C     0.88821  -0.01203   0.23714   0.00000  Uiso   1.00
H270   H     0.86458  -0.02679   0.23312   0.00000  Uiso   1.00
C271   C     0.96826  -0.07013   0.25321   0.00000  Uiso   1.00
C272   C     0.97724  -0.10659   0.26047   0.00000  Uiso   1.00
H273   H     0.95958  -0.12812   0.26454   0.00000  Uiso   1.00
C274   C     1.02923   0.07291   0.24338   0.00000  Uiso   1.00
C275   C     1.02004   0.11001   0.24268   0.00000  Uiso   1.00
H276   H     1.03753   0.13205   0.24209   0.00000  Uiso   1.00
C277   C     1.07063  -0.02940   0.24928   0.00000  Uiso   1.00
C278   C     1.10769  -0.02021   0.24742   0.00000  Uiso   1.00
H279   H     1.12980  -0.03759   0.24729   0.00000  Uiso   1.00
C280   C     0.92705   0.03158   0.24203   0.00000  Uiso   1.00
C281   C     0.89045   0.02203   0.23657   0.00000  Uiso   1.00
H282   H     0.86877   0.03935   0.23182   0.00000  Uiso   1.00
C283   C     1.02467  -0.07400   0.25598   0.00000  Uiso   1.00
C284   C     1.01125  -0.10898   0.26208   0.00000  Uiso   1.00
H285   H     1.02565  -0.13256   0.26755   0.00000  Uiso   1.00
C286   C     0.97271   0.07695   0.24320   0.00000  Uiso   1.00
C287   C     0.98603   0.11251   0.24339   0.00000  Uiso   1.00
H288   H     0.97168   0.13672   0.24387   0.00000  Uiso   1.00
Fe289  Fe    0.99880   0.00125   0.24701   0.00000  Uiso   1.00
C290   C     1.06575   0.06073   0.24433   0.00000  Uiso   1.00
C291   C     0.93199  -0.05846   0.24763   0.00000  Uiso   1.00
C292   C     1.05848  -0.06577   0.25347   0.00000  Uiso   1.00
C293   C     0.93888   0.06823   0.24277   0.00000  Uiso   1.00
N294   N     1.05104  -0.00173   0.24773   0.00000  Uiso   1.00
N295   N     0.94659   0.00405   0.24521   0.00000  Uiso   1.00
N296   N     0.99599  -0.05075   0.25159   0.00000  Uiso   1.00
N297   N     1.00153   0.05339   0.24343   0.00000  Uiso   1.00
C298   C     0.57822   0.52153   0.74679   0.00000  Uiso   1.00
C299   C     0.61317   0.50807   0.74050   0.00000  Uiso   1.00
H300   H     0.63699   0.52243   0.73610   0.00000  Uiso   1.00
C301   C     0.42646   0.47174   0.74854   0.00000  Uiso   1.00
C302   C     0.39107   0.48549   0.74864   0.00000  Uiso   1.00
H303   H     0.36672   0.47145   0.74702   0.00000  Uiso   1.00
C304   C     0.47100   0.42519   0.74697   0.00000  Uiso   1.00
C305   C     0.47967   0.38797   0.74664   0.00000  Uiso   1.00
H306   H     0.46189   0.36617   0.74587   0.00000  Uiso   1.00
C307   C     0.53407   0.56736   0.75675   0.00000  Uiso   1.00
C308   C     0.52559   0.60391   0.76415   0.00000  Uiso   1.00
H309   H     0.54354   0.62524   0.76801   0.00000  Uiso   1.00
C310   C     0.57374   0.46512   0.74627   0.00000  Uiso   1.00
C311   C     0.61045   0.47405   0.74049   0.00000  Uiso   1.00
H312   H     0.63185   0.45635   0.73586   0.00000  Uiso   1.00
C313   C     0.43120   0.52794   0.75311   0.00000  Uiso   1.00
C314   C     0.39400   0.51938   0.75079   0.00000  Uiso   1.00
H315   H     0.37217   0.53712   0.75067   0.00000  Uiso   1.00
C316   C     0.52741   0.42042   0.74775   0.00000  Uiso   1.00
C317   C     0.51362   0.38502   0.74795   0.00000  Uiso   1.00
H318   H     0.52766   0.36064   0.74877   0.00000  Uiso   1.00
C319   C     0.47779   0.57184   0.76016   0.00000  Uiso   1.00
C320   C     0.49163   0.60667   0.76615   0.00000  Uiso   1.00
H321   H     0.47752   0.63040   0.77172   0.00000  Uiso   1.00
Fe322  Fe    0.50251   0.49639   0.75088   0.00000  Uiso   1.00
C323   C     0.57012   0.55523   0.75078   0.00000  Uiso   1.00
C324   C     0.43469   0.43791   0.74727   0.00000  Uiso   1.00
C325   C     0.56131   0.42872   0.74738   0.00000  Uiso   1.00
C326   C     0.44392   0.56399   0.75765   0.00000  Uiso   1.00
N327   N     0.55463   0.49294   0.74919   0.00000  Uiso   1.00
N328   N     0.45034   0.50002   0.75143   0.00000  Uiso   1.00
N329   N     0.49896   0.44433   0.74741   0.00000  Uiso   1.00
N330   N     0.50611   0.54830   0.75544   0.00000  Uiso   1.00
C331   C     0.97565   1.07226   0.74682   0.00000  Uiso   1.00
C332   C     0.98836   1.10802   0.74666   0.00000  Uiso   1.00
H333   H     0.97357   1.13195   0.74559   0.00000  Uiso   1.00
C334   C     1.02978   0.92181   0.74431   0.00000  Uiso   1.00
C335   C     1.01719   0.88644   0.73853   0.00000  Uiso   1.00
H336   H     1.03214   0.86293   0.73451   0.00000  Uiso   1.00
C337   C     1.07456   0.96729   0.75310   0.00000  Uiso   1.00
C338   C     1.11102   0.97693   0.75943   0.00000  Uiso   1.00
H339   H     1.13292   0.95968   0.76326   0.00000  Uiso   1.00
C340   C     0.93039   1.02641   0.74602   0.00000  Uiso   1.00
C341   C     0.89343   1.01668   0.74640   0.00000  Uiso   1.00
H342   H     0.87114   1.03386   0.74648   0.00000  Uiso   1.00
C343   C     1.03210   1.06912   0.74955   0.00000  Uiso   1.00
C344   C     1.02239   1.10607   0.74768   0.00000  Uiso   1.00
H345   H     1.03947   1.12841   0.74707   0.00000  Uiso   1.00
C346   C     0.97325   0.92485   0.74368   0.00000  Uiso   1.00
C347   C     0.98311   0.88831   0.73836   0.00000  Uiso   1.00
H348   H     0.96596   0.86640   0.73404   0.00000  Uiso   1.00
C349   C     1.07757   1.02380   0.75522   0.00000  Uiso   1.00
C350   C     1.11290   1.01100   0.76061   0.00000  Uiso   1.00
H351   H     1.13635   1.02585   0.76539   0.00000  Uiso   1.00
C352   C     0.92726   0.96989   0.74600   0.00000  Uiso   1.00
C353   C     0.89149   0.98264   0.74714   0.00000  Uiso   1.00
H354   H     0.86755   0.96788   0.74826   0.00000  Uiso   1.00
Fe355  Fe    1.00258   0.99691   0.74806   0.00000  Uiso   1.00
C356   C     0.94202   1.06309   0.74636   0.00000  Uiso   1.00
C357   C     1.06328   0.93073   0.74842   0.00000  Uiso   1.00
C358   C     1.06867   1.05745   0.75291   0.00000  Uiso   1.00
C359   C     0.93652   0.93624   0.74526   0.00000  Uiso   1.00
N360   N     1.00471   1.04918   0.74869   0.00000  Uiso   1.00
N361   N     1.00058   0.94471   0.74630   0.00000  Uiso   1.00
N362   N     1.05472   0.99473   0.75157   0.00000  Uiso   1.00
N363   N     0.95034   0.99902   0.74562   0.00000  Uiso   1.00
C364   C     0.47045   0.57847   0.24378   0.00000  Uiso   1.00
C365   C     0.48343   0.61414   0.24404   0.00000  Uiso   1.00
H366   H     0.46879   0.63818   0.24383   0.00000  Uiso   1.00
C367   C     0.52399   0.42766   0.23852   0.00000  Uiso   1.00
C368   C     0.51110   0.39243   0.23264   0.00000  Uiso   1.00
H369   H     0.52585   0.36888   0.22808   0.00000  Uiso   1.00
C370   C     0.56909   0.47281   0.24701   0.00000  Uiso   1.00
C371   C     0.60567   0.48222   0.25295   0.00000  Uiso   1.00
H372   H     0.62753   0.46485   0.25642   0.00000  Uiso   1.00
C373   C     0.42499   0.53280   0.24316   0.00000  Uiso   1.00
C374   C     0.38802   0.52313   0.24407   0.00000  Uiso   1.00
H375   H     0.36576   0.54034   0.24462   0.00000  Uiso   1.00
C376   C     0.52701   0.57494   0.24523   0.00000  Uiso   1.00
C377   C     0.51748   0.61196   0.24427   0.00000  Uiso   1.00
H378   H     0.53472   0.63418   0.24382   0.00000  Uiso   1.00
C379   C     0.46748   0.43101   0.23910   0.00000  Uiso   1.00
C380   C     0.47704   0.39448   0.23319   0.00000  Uiso   1.00
H381   H     0.45970   0.37270   0.22901   0.00000  Uiso   1.00
C382   C     0.57237   0.52928   0.24955   0.00000  Uiso   1.00
C383   C     0.60771   0.51626   0.25440   0.00000  Uiso   1.00
H384   H     0.63129   0.53093   0.25909   0.00000  Uiso   1.00
C385   C     0.42170   0.47623   0.24273   0.00000  Uiso   1.00
C386   C     0.38601   0.48908   0.24461   0.00000  Uiso   1.00
H387   H     0.36205   0.47438   0.24603   0.00000  Uiso   1.00
Fe388  Fe    0.49714   0.50291   0.24350   0.00000  Uiso   1.00
C389   C     0.43671   0.56950   0.24390   0.00000  Uiso   1.00
C390   C     0.55762   0.43631   0.24225   0.00000  Uiso   1.00
C391   C     0.56360   0.56300   0.24777   0.00000  Uiso   1.00
C392   C     0.43086   0.44255   0.24172   0.00000  Uiso   1.00
N393   N     0.49947   0.55518   0.24461   0.00000  Uiso   1.00
N394   N     0.49494   0.45072   0.24128   0.00000  Uiso   1.00
N395   N     0.54934   0.50037   0.24597   0.00000  Uiso   1.00
N396   N     0.44486   0.50532   0.24211   0.00000  Uiso   1.00
O397   O     0.20040   0.25340   0.15735   0.00000  Uiso   1.00
O398   O     0.23526   0.28447   0.14581   0.00000  Uiso   1.00
O399   O     0.25335   0.16249   0.19716   0.00000  Uiso   1.00
O400   O     0.29061   0.15733   0.23817   0.00000  Uiso   1.00
O401   O     0.16034   0.19857   0.24612   0.00000  Uiso   1.00
O402   O     0.15472   0.24845   0.28856   0.00000  Uiso   1.00
O403   O     0.33957   0.25754   0.29630   0.00000  Uiso   1.00
O404   O     0.34689   0.21659   0.25852   0.00000  Uiso   1.00
O405   O     0.29479   0.34217   0.24486   0.00000  Uiso   1.00
O406   O     0.25715   0.35736   0.22024   0.00000  Uiso   1.00
O407   O     0.24859   0.30077   0.33617   0.00000  Uiso   1.00
O408   O     0.20624   0.24528   0.33703   0.00000  Uiso   1.00
O409   O     0.29659   0.25323   0.33736   0.00000  Uiso   1.00
O410   O     0.25913   0.22572   0.35253   0.00000  Uiso   1.00
O411   O     0.24441   0.34106   0.29289   0.00000  Uiso   1.00
O412   O     0.20566   0.34046   0.23568   0.00000  Uiso   1.00
O413   O     0.33837   0.30226   0.25173   0.00000  Uiso   1.00
O414   O     0.34365   0.25665   0.20793   0.00000  Uiso   1.00
O415   O     0.15783   0.24973   0.19894   0.00000  Uiso   1.00
O416   O     0.14243   0.27613   0.24044   0.00000  Uiso   1.00
O417   O     0.20405   0.15832   0.24274   0.00000  Uiso   1.00
O418   O     0.24167   0.15140   0.28030   0.00000  Uiso   1.00
O419   O     0.25022   0.20636   0.15721   0.00000  Uiso   1.00
O420   O     0.28985   0.25462   0.15603   0.00000  Uiso   1.00
Zr421  Zr    0.24521   0.25160   0.18885   0.00000  Uiso   1.00
O422   O     0.28184   0.28422   0.21216   0.00000  Uiso   1.00
Zr423  Zr    0.24758   0.19151   0.24300   0.00000  Uiso   1.00
O424   O     0.28017   0.21791   0.27840   0.00000  Uiso   1.00
Zr425  Zr    0.18818   0.24594   0.24469   0.00000  Uiso   1.00
O426   O     0.21357   0.28249   0.27779   0.00000  Uiso   1.00
Zr427  Zr    0.30904   0.25597   0.25099   0.00000  Uiso   1.00
O428   O     0.28390   0.22177   0.21506   0.00000  Uiso   1.00
Zr429  Zr    0.25019   0.30999   0.24744   0.00000  Uiso   1.00
O430   O     0.21285   0.28624   0.21574   0.00000  Uiso   1.00
Zr431  Zr    0.25116   0.25488   0.30656   0.00000  Uiso   1.00
O432   O     0.21850   0.21787   0.28159   0.00000  Uiso   1.00
O433   O     0.21286   0.21410   0.20945   0.00000  Uiso   1.00
O434   O     0.28424   0.29067   0.28422   0.00000  Uiso   1.00
C435   C     0.16811   0.25242   0.16695   0.00000  Uiso   1.00
C436   C     0.25369   0.17389   0.16560   0.00000  Uiso   1.00
C437   C     0.17163   0.16691   0.24513   0.00000  Uiso   1.00
C438   C     0.32894   0.25514   0.32814   0.00000  Uiso   1.00
C439   C     0.32728   0.33378   0.24790   0.00000  Uiso   1.00
C440   C     0.24558   0.33236   0.32538   0.00000  Uiso   1.00
H441   H     0.29509   0.30013   0.19679   0.00000  Uiso   1.00
H442   H     0.19747   0.29706   0.29165   0.00000  Uiso   1.00
H443   H     0.19864   0.19942   0.19364   0.00000  Uiso   1.00
H444   H     0.29433   0.20284   0.29373   0.00000  Uiso   1.00
H445   H     0.34368   0.19962   0.23941   0.00000  Uiso   1.00
H446   H     0.30223   0.15555   0.26107   0.00000  Uiso   1.00
H447   H     0.19358   0.34622   0.25768   0.00000  Uiso   1.00
H448   H     0.14954   0.30049   0.24495   0.00000  Uiso   1.00
H449   H     0.36771   0.25916   0.21694   0.00000  Uiso   1.00
H450   H     0.28344   0.25031   0.13139   0.00000  Uiso   1.00
H451   H     0.19704   0.26785   0.34534   0.00000  Uiso   1.00
H452   H     0.15569   0.22585   0.30091   0.00000  Uiso   1.00
H453   H     0.24402   0.30769   0.15273   0.00000  Uiso   1.00
H454   H     0.25482   0.35171   0.19512   0.00000  Uiso   1.00
H455   H     0.25128   0.16036   0.30240   0.00000  Uiso   1.00
H456   H     0.25461   0.20111   0.34631   0.00000  Uiso   1.00
O457   O     0.70235   0.66029   0.24663   0.00000  Uiso   1.00
O458   O     0.73820   0.64834   0.21843   0.00000  Uiso   1.00
O459   O     0.74880   0.70250   0.33986   0.00000  Uiso   1.00
O460   O     0.78744   0.74341   0.34514   0.00000  Uiso   1.00
O461   O     0.65883   0.74988   0.29897   0.00000  Uiso   1.00
O462   O     0.65374   0.78966   0.24645   0.00000  Uiso   1.00
O463   O     0.83920   0.80160   0.24549   0.00000  Uiso   1.00
O464   O     0.84593   0.76567   0.28764   0.00000  Uiso   1.00
O465   O     0.79945   0.74731   0.16084   0.00000  Uiso   1.00
O466   O     0.76219   0.72143   0.14480   0.00000  Uiso   1.00
O467   O     0.74486   0.83866   0.19854   0.00000  Uiso   1.00
O468   O     0.70423   0.83740   0.25738   0.00000  Uiso   1.00
O469   O     0.79532   0.84193   0.24697   0.00000  Uiso   1.00
O470   O     0.75763   0.85843   0.27049   0.00000  Uiso   1.00
O471   O     0.75011   0.79498   0.15883   0.00000  Uiso   1.00
O472   O     0.71041   0.73827   0.15830   0.00000  Uiso   1.00
O473   O     0.84099   0.75575   0.20254   0.00000  Uiso   1.00
O474   O     0.84438   0.71305   0.25010   0.00000  Uiso   1.00
O475   O     0.65904   0.70099   0.25145   0.00000  Uiso   1.00
O476   O     0.64482   0.74009   0.22012   0.00000  Uiso   1.00
O477   O     0.70088   0.74789   0.34097   0.00000  Uiso   1.00
O478   O     0.73891   0.78642   0.34815   0.00000  Uiso   1.00
O479   O     0.75258   0.66214   0.29640   0.00000  Uiso   1.00
O480   O     0.79192   0.65997   0.24866   0.00000  Uiso   1.00
Zr481  Zr    0.74691   0.69245   0.25023   0.00000  Uiso   1.00
O482   O     0.78445   0.71591   0.21873   0.00000  Uiso   1.00
Zr483  Zr    0.74561   0.74774   0.30947   0.00000  Uiso   1.00
O484   O     0.77854   0.78333   0.28369   0.00000  Uiso   1.00
Zr485  Zr    0.68855   0.74720   0.25270   0.00000  Uiso   1.00
O486   O     0.71478   0.78000   0.21636   0.00000  Uiso   1.00
Zr487  Zr    0.80952   0.75583   0.24743   0.00000  Uiso   1.00
O488   O     0.78372   0.72006   0.28125   0.00000  Uiso   1.00
Zr489  Zr    0.75333   0.75005   0.19098   0.00000  Uiso   1.00
O490   O     0.71550   0.71814   0.21387   0.00000  Uiso   1.00
Zr491  Zr    0.75040   0.81015   0.24503   0.00000  Uiso   1.00
O492   O     0.71680   0.78524   0.28127   0.00000  Uiso   1.00
O493   O     0.71269   0.71304   0.28608   0.00000  Uiso   1.00
O494   O     0.78552   0.78792   0.21106   0.00000  Uiso   1.00
C495   C     0.66986   0.66924   0.24836   0.00000  Uiso   1.00
C496   C     0.75223   0.67091   0.32897   0.00000  Uiso   1.00
C497   C     0.66880   0.74974   0.33109   0.00000  Uiso   1.00
C498   C     0.82790   0.83328   0.24626   0.00000  Uiso   1.00
C499   C     0.83151   0.75104   0.17062   0.00000  Uiso   1.00
C500   C     0.74636   0.82742   0.16697   0.00000  Uiso   1.00
H501   H     0.79870   0.70053   0.20372   0.00000  Uiso   1.00
H502   H     0.69892   0.79321   0.20095   0.00000  Uiso   1.00
H503   H     0.69830   0.69739   0.30074   0.00000  Uiso   1.00
H504   H     0.79171   0.79929   0.29901   0.00000  Uiso   1.00
H505   H     0.84246   0.74723   0.30529   0.00000  Uiso   1.00
H506   H     0.79898   0.76636   0.34684   0.00000  Uiso   1.00
H507   H     0.69911   0.76031   0.15126   0.00000  Uiso   1.00
H508   H     0.65320   0.74381   0.19604   0.00000  Uiso   1.00
H509   H     0.86843   0.72210   0.24779   0.00000  Uiso   1.00
H510   H     0.78584   0.63532   0.25342   0.00000  Uiso   1.00
H511   H     0.69520   0.84767   0.23554   0.00000  Uiso   1.00
H512   H     0.65178   0.80220   0.26888   0.00000  Uiso   1.00
H513   H     0.74782   0.65452   0.19532   0.00000  Uiso   1.00
H514   H     0.75989   0.69651   0.15122   0.00000  Uiso   1.00
H515   H     0.74376   0.80907   0.33696   0.00000  Uiso   1.00
H516   H     0.75431   0.85390   0.29571   0.00000  Uiso   1.00
O517   O     0.69899   0.33303   0.74893   0.00000  Uiso   1.00
O518   O     0.73455   0.34760   0.77628   0.00000  Uiso   1.00
O519   O     0.75118   0.29525   0.65501   0.00000  Uiso   1.00
O520   O     0.79102   0.25615   0.64969   0.00000  Uiso   1.00
O521   O     0.66166   0.24395   0.69389   0.00000  Uiso   1.00
O522   O     0.65945   0.20028   0.74243   0.00000  Uiso   1.00
O523   O     0.84479   0.20136   0.74746   0.00000  Uiso   1.00
O524   O     0.84980   0.23878   0.70783   0.00000  Uiso   1.00
O525   O     0.79957   0.24848   0.83424   0.00000  Uiso   1.00
O526   O     0.76200   0.27515   0.84925   0.00000  Uiso   1.00
O527   O     0.75649   0.15740   0.79503   0.00000  Uiso   1.00
O528   O     0.71382   0.15320   0.74086   0.00000  Uiso   1.00
O529   O     0.80382   0.15800   0.74894   0.00000  Uiso   1.00
O530   O     0.76723   0.14205   0.71821   0.00000  Uiso   1.00
O531   O     0.75072   0.20097   0.83475   0.00000  Uiso   1.00
O532   O     0.71106   0.25639   0.83574   0.00000  Uiso   1.00
O533   O     0.84253   0.24739   0.79305   0.00000  Uiso   1.00
O534   O     0.84403   0.29021   0.74614   0.00000  Uiso   1.00
O535   O     0.65836   0.28986   0.74280   0.00000  Uiso   1.00
O536   O     0.64649   0.24774   0.77268   0.00000  Uiso   1.00
O537   O     0.70453   0.24548   0.65264   0.00000  Uiso   1.00
O538   O     0.74407   0.21202   0.64441   0.00000  Uiso   1.00
O539   O     0.74710   0.33540   0.69864   0.00000  Uiso   1.00
O540   O     0.78864   0.33865   0.74627   0.00000  Uiso   1.00
Zr541  Zr    0.74533   0.30402   0.74440   0.00000  Uiso   1.00
O542   O     0.78373   0.28270   0.77635   0.00000  Uiso   1.00
Zr543  Zr    0.74887   0.24936   0.68462   0.00000  Uiso   1.00
O544   O     0.78364   0.21581   0.71065   0.00000  Uiso   1.00
Zr545  Zr    0.69087   0.24562   0.74030   0.00000  Uiso   1.00
O546   O     0.71851   0.21404   0.77661   0.00000  Uiso   1.00
Zr547  Zr    0.81205   0.24517   0.74751   0.00000  Uiso   1.00
O548   O     0.78442   0.27945   0.71366   0.00000  Uiso   1.00
Zr549  Zr    0.75438   0.24619   0.80305   0.00000  Uiso   1.00
O550   O     0.71501   0.27590   0.77992   0.00000  Uiso   1.00
Zr551  Zr    0.75696   0.18667   0.74871   0.00000  Uiso   1.00
O552   O     0.72235   0.20975   0.71214   0.00000  Uiso   1.00
O553   O     0.71326   0.28164   0.70768   0.00000  Uiso   1.00
O554   O     0.78984   0.21112   0.78320   0.00000  Uiso   1.00
C555   C     0.66718   0.32214   0.74688   0.00000  Uiso   1.00
C556   C     0.75011   0.32693   0.66612   0.00000  Uiso   1.00
C557   C     0.67227   0.24362   0.66200   0.00000  Uiso   1.00
C558   C     0.83568   0.16896   0.74803   0.00000  Uiso   1.00
C559   C     0.83195   0.24849   0.82496   0.00000  Uiso   1.00
C560   C     0.75338   0.16845   0.82655   0.00000  Uiso   1.00
H561   H     0.79670   0.29862   0.79196   0.00000  Uiso   1.00
H562   H     0.70329   0.19968   0.79161   0.00000  Uiso   1.00
H563   H     0.69794   0.29658   0.69320   0.00000  Uiso   1.00
H564   H     0.79825   0.20102   0.69548   0.00000  Uiso   1.00
H565   H     0.84513   0.25705   0.69030   0.00000  Uiso   1.00
H566   H     0.80381   0.23388   0.64791   0.00000  Uiso   1.00
H567   H     0.69872   0.23424   0.84024   0.00000  Uiso   1.00
H568   H     0.65489   0.24333   0.79662   0.00000  Uiso   1.00
H569   H     0.86863   0.28282   0.74867   0.00000  Uiso   1.00
H570   H     0.78145   0.36276   0.74048   0.00000  Uiso   1.00
H571   H     0.70432   0.14643   0.76382   0.00000  Uiso   1.00
H572   H     0.66163   0.18779   0.71998   0.00000  Uiso   1.00
H573   H     0.74412   0.34170   0.79948   0.00000  Uiso   1.00
H574   H     0.75903   0.29997   0.84279   0.00000  Uiso   1.00
H575   H     0.75584   0.19071   0.65267   0.00000  Uiso   1.00
H576   H     0.76052   0.14812   0.69410   0.00000  Uiso   1.00
O577   O     0.24972   0.69571   0.66454   0.00000  Uiso   1.00
O578   O     0.22146   0.73081   0.65097   0.00000  Uiso   1.00
O579   O     0.34226   0.74936   0.70438   0.00000  Uiso   1.00
O580   O     0.34669   0.78796   0.74387   0.00000  Uiso   1.00
O581   O     0.30586   0.65820   0.75568   0.00000  Uiso   1.00
O582   O     0.25353   0.65233   0.79575   0.00000  Uiso   1.00
O583   O     0.24439   0.83825   0.79980   0.00000  Uiso   1.00
O584   O     0.28620   0.84550   0.76416   0.00000  Uiso   1.00
O585   O     0.16179   0.79262   0.75057   0.00000  Uiso   1.00
O586   O     0.14774   0.75444   0.72356   0.00000  Uiso   1.00
O587   O     0.20262   0.74340   0.84144   0.00000  Uiso   1.00
O588   O     0.26352   0.70557   0.84119   0.00000  Uiso   1.00
O589   O     0.24838   0.79633   0.84203   0.00000  Uiso   1.00
O590   O     0.27381   0.76046   0.86003   0.00000  Uiso   1.00
O591   O     0.16249   0.74440   0.79784   0.00000  Uiso   1.00
O592   O     0.16216   0.70392   0.74265   0.00000  Uiso   1.00
O593   O     0.20216   0.83628   0.75243   0.00000  Uiso   1.00
O594   O     0.25073   0.83910   0.71072   0.00000  Uiso   1.00
O595   O     0.25742   0.65411   0.70649   0.00000  Uiso   1.00
O596   O     0.22775   0.64005   0.74695   0.00000  Uiso   1.00
O597   O     0.34594   0.70195   0.75136   0.00000  Uiso   1.00
O598   O     0.35151   0.74114   0.78848   0.00000  Uiso   1.00
O599   O     0.29891   0.74513   0.66393   0.00000  Uiso   1.00
O600   O     0.25018   0.78526   0.66096   0.00000  Uiso   1.00
Zr601  Zr    0.25299   0.74140   0.69486   0.00000  Uiso   1.00
O602   O     0.22010   0.77864   0.71693   0.00000  Uiso   1.00
Zr603  Zr    0.31249   0.74510   0.74976   0.00000  Uiso   1.00
O604   O     0.28570   0.77849   0.78400   0.00000  Uiso   1.00
Zr605  Zr    0.25824   0.68554   0.75183   0.00000  Uiso   1.00
O606   O     0.22118   0.71172   0.78393   0.00000  Uiso   1.00
Zr607  Zr    0.24809   0.80665   0.75535   0.00000  Uiso   1.00
O608   O     0.28267   0.78067   0.72052   0.00000  Uiso   1.00
Zr609  Zr    0.19399   0.74791   0.75267   0.00000  Uiso   1.00
O610   O     0.21810   0.70968   0.72214   0.00000  Uiso   1.00
Zr611  Zr    0.24850   0.74990   0.81228   0.00000  Uiso   1.00
O612   O     0.28577   0.71665   0.78851   0.00000  Uiso   1.00
O613   O     0.29040   0.70961   0.71658   0.00000  Uiso   1.00
O614   O     0.21299   0.78258   0.78881   0.00000  Uiso   1.00
C615   C     0.25280   0.66363   0.67443   0.00000  Uiso   1.00
C616   C     0.33128   0.74875   0.67269   0.00000  Uiso   1.00
C617   C     0.33749   0.66963   0.75489   0.00000  Uiso   1.00
C618   C     0.24586   0.82844   0.83198   0.00000  Uiso   1.00
C619   C     0.17048   0.82521   0.75082   0.00000  Uiso   1.00
C620   C     0.17100   0.74276   0.83033   0.00000  Uiso   1.00
H621   H     0.20435   0.79160   0.70115   0.00000  Uiso   1.00
H622   H     0.20662   0.69577   0.79795   0.00000  Uiso   1.00
H623   H     0.30540   0.69495   0.70149   0.00000  Uiso   1.00
H624   H     0.30051   0.79299   0.79928   0.00000  Uiso   1.00
H625   H     0.30480   0.84149   0.74681   0.00000  Uiso   1.00
H626   H     0.34818   0.80031   0.76641   0.00000  Uiso   1.00
H627   H     0.15776   0.69168   0.76488   0.00000  Uiso   1.00
H628   H     0.20327   0.64758   0.74982   0.00000  Uiso   1.00
H629   H     0.24688   0.86350   0.71820   0.00000  Uiso   1.00
H630   H     0.25633   0.77866   0.63677   0.00000  Uiso   1.00
H631   H     0.24229   0.69599   0.85220   0.00000  Uiso   1.00
H632   H     0.27604   0.65183   0.80827   0.00000  Uiso   1.00
H633   H     0.19807   0.73986   0.65692   0.00000  Uiso   1.00
H634   H     0.15443   0.75188   0.69876   0.00000  Uiso   1.00
H635   H     0.34041   0.74717   0.81089   0.00000  Uiso   1.00
H636   H     0.29914   0.75828   0.85546   0.00000  Uiso   1.00
O637   O     0.30145   0.24319   0.65897   0.00000  Uiso   1.00
O638   O     0.26610   0.21458   0.64594   0.00000  Uiso   1.00
O639   O     0.24669   0.33652   0.69584   0.00000  Uiso   1.00
O640   O     0.20858   0.34201   0.73608   0.00000  Uiso   1.00
O641   O     0.33893   0.30164   0.74781   0.00000  Uiso   1.00
O642   O     0.34391   0.25250   0.79051   0.00000  Uiso   1.00
O643   O     0.15907   0.24516   0.79448   0.00000  Uiso   1.00
O644   O     0.15322   0.28432   0.75448   0.00000  Uiso   1.00
O645   O     0.20491   0.15764   0.74666   0.00000  Uiso   1.00
O646   O     0.24251   0.14254   0.72121   0.00000  Uiso   1.00
O647   O     0.25001   0.20030   0.83695   0.00000  Uiso   1.00
O648   O     0.29080   0.25562   0.83901   0.00000  Uiso   1.00
O649   O     0.20116   0.24474   0.83673   0.00000  Uiso   1.00
O650   O     0.23717   0.27704   0.85082   0.00000  Uiso   1.00
O651   O     0.25514   0.15957   0.79419   0.00000  Uiso   1.00
O652   O     0.29365   0.15857   0.73761   0.00000  Uiso   1.00
O653   O     0.16126   0.19768   0.75250   0.00000  Uiso   1.00
O654   O     0.15593   0.24043   0.70691   0.00000  Uiso   1.00
O655   O     0.34283   0.25171   0.70101   0.00000  Uiso   1.00
O656   O     0.35692   0.22370   0.74273   0.00000  Uiso   1.00
O657   O     0.29523   0.34165   0.74242   0.00000  Uiso   1.00
O658   O     0.25700   0.34936   0.77851   0.00000  Uiso   1.00
O659   O     0.25148   0.29221   0.65654   0.00000  Uiso   1.00
O660   O     0.21141   0.24345   0.65562   0.00000  Uiso   1.00
Zr661  Zr    0.25562   0.24732   0.68895   0.00000  Uiso   1.00
O662   O     0.21851   0.21508   0.71207   0.00000  Uiso   1.00
Zr663  Zr    0.25180   0.30828   0.74218   0.00000  Uiso   1.00
O664   O     0.21872   0.28229   0.77745   0.00000  Uiso   1.00
Zr665  Zr    0.31134   0.25427   0.74594   0.00000  Uiso   1.00
O666   O     0.28549   0.21802   0.77895   0.00000  Uiso   1.00
Zr667  Zr    0.19051   0.24396   0.74987   0.00000  Uiso   1.00
O668   O     0.21630   0.27746   0.71381   0.00000  Uiso   1.00
Zr669  Zr    0.24950   0.18995   0.74832   0.00000  Uiso   1.00
O670   O     0.28751   0.21333   0.71716   0.00000  Uiso   1.00
Zr671  Zr    0.24719   0.24572   0.80671   0.00000  Uiso   1.00
O672   O     0.28012   0.28261   0.78182   0.00000  Uiso   1.00
O673   O     0.28727   0.28538   0.70962   0.00000  Uiso   1.00
O674   O     0.21466   0.20976   0.78409   0.00000  Uiso   1.00
C675   C     0.33347   0.24629   0.66907   0.00000  Uiso   1.00
C676   C     0.24723   0.32473   0.66444   0.00000  Uiso   1.00
C677   C     0.32758   0.33320   0.74597   0.00000  Uiso   1.00
C678   C     0.16900   0.24516   0.82662   0.00000  Uiso   1.00
C679   C     0.17243   0.16605   0.74989   0.00000  Uiso   1.00
C680   C     0.25352   0.16864   0.82654   0.00000  Uiso   1.00
H681   H     0.20553   0.19871   0.69694   0.00000  Uiso   1.00
H682   H     0.30147   0.20370   0.79318   0.00000  Uiso   1.00
H683   H     0.30178   0.29990   0.69393   0.00000  Uiso   1.00
H684   H     0.20417   0.29746   0.79231   0.00000  Uiso   1.00
H685   H     0.15608   0.29944   0.73382   0.00000  Uiso   1.00
H686   H     0.19650   0.34403   0.75872   0.00000  Uiso   1.00
H687   H     0.30646   0.15459   0.75960   0.00000  Uiso   1.00
H688   H     0.34956   0.19943   0.74727   0.00000  Uiso   1.00
H689   H     0.13181   0.23929   0.71603   0.00000  Uiso   1.00
H690   H     0.21782   0.24857   0.63113   0.00000  Uiso   1.00
H691   H     0.30154   0.23315   0.84554   0.00000  Uiso   1.00
H692   H     0.34179   0.27488   0.80311   0.00000  Uiso   1.00
H693   H     0.25739   0.19128   0.65275   0.00000  Uiso   1.00
H694   H     0.24490   0.14814   0.69610   0.00000  Uiso   1.00
H695   H     0.24562   0.34155   0.80021   0.00000  Uiso   1.00
H696   H     0.24299   0.30118   0.84398   0.00000  Uiso   1.00
O697   O     0.70445   0.74843   0.65942   0.00000  Uiso   1.00
O698   O     0.73990   0.77870   0.64743   0.00000  Uiso   1.00
O699   O     0.75642   0.65696   0.69954   0.00000  Uiso   1.00
O700   O     0.79437   0.65205   0.74027   0.00000  Uiso   1.00
O701   O     0.66404   0.69412   0.74641   0.00000  Uiso   1.00
O702   O     0.65896   0.74250   0.79058   0.00000  Uiso   1.00
O703   O     0.84385   0.75230   0.79820   0.00000  Uiso   1.00
O704   O     0.85076   0.71086   0.76065   0.00000  Uiso   1.00
O705   O     0.79966   0.83680   0.74642   0.00000  Uiso   1.00
O706   O     0.76217   0.85203   0.72149   0.00000  Uiso   1.00
O707   O     0.75287   0.79639   0.83787   0.00000  Uiso   1.00
O708   O     0.71036   0.74081   0.83885   0.00000  Uiso   1.00
O709   O     0.80086   0.74865   0.83932   0.00000  Uiso   1.00
O710   O     0.76328   0.72154   0.85483   0.00000  Uiso   1.00
O711   O     0.74895   0.83634   0.79428   0.00000  Uiso   1.00
O712   O     0.71054   0.83569   0.73695   0.00000  Uiso   1.00
O713   O     0.84294   0.79660   0.75353   0.00000  Uiso   1.00
O714   O     0.84799   0.75103   0.70995   0.00000  Uiso   1.00
O715   O     0.66206   0.74575   0.70121   0.00000  Uiso   1.00
O716   O     0.64709   0.77208   0.74337   0.00000  Uiso   1.00
O717   O     0.70766   0.65365   0.74732   0.00000  Uiso   1.00
O718   O     0.74631   0.64615   0.78263   0.00000  Uiso   1.00
O719   O     0.75385   0.70068   0.65937   0.00000  Uiso   1.00
O720   O     0.79417   0.74855   0.65809   0.00000  Uiso   1.00
Zr721  Zr    0.74942   0.74614   0.69080   0.00000  Uiso   1.00
O722   O     0.78624   0.77870   0.71392   0.00000  Uiso   1.00
Zr723  Zr    0.75151   0.68639   0.74539   0.00000  Uiso   1.00
O724   O     0.78421   0.71287   0.78064   0.00000  Uiso   1.00
Zr725  Zr    0.69244   0.74116   0.74669   0.00000  Uiso   1.00
O726   O     0.71798   0.77780   0.77956   0.00000  Uiso   1.00
Zr727  Zr    0.81328   0.75055   0.75294   0.00000  Uiso   1.00
O728   O     0.78796   0.71628   0.71722   0.00000  Uiso   1.00
Zr729  Zr    0.75478   0.80492   0.74903   0.00000  Uiso   1.00
O730   O     0.71729   0.78116   0.71750   0.00000  Uiso   1.00
Zr731  Zr    0.75542   0.75024   0.80855   0.00000  Uiso   1.00
O732   O     0.72262   0.71323   0.78380   0.00000  Uiso   1.00
O733   O     0.71689   0.70893   0.71165   0.00000  Uiso   1.00
O734   O     0.78870   0.78566   0.78594   0.00000  Uiso   1.00
C735   C     0.67220   0.74825   0.66921   0.00000  Uiso   1.00
C736   C     0.75685   0.66819   0.66787   0.00000  Uiso   1.00
C737   C     0.67519   0.66241   0.74757   0.00000  Uiso   1.00
C738   C     0.83321   0.75033   0.83007   0.00000  Uiso   1.00
C739   C     0.83209   0.82818   0.74961   0.00000  Uiso   1.00
C740   C     0.74994   0.82792   0.82686   0.00000  Uiso   1.00
H741   H     0.79960   0.79445   0.69847   0.00000  Uiso   1.00
H742   H     0.70188   0.79246   0.79332   0.00000  Uiso   1.00
H743   H     0.70250   0.69436   0.69590   0.00000  Uiso   1.00
H744   H     0.79826   0.69781   0.79609   0.00000  Uiso   1.00
H745   H     0.84781   0.69414   0.74128   0.00000  Uiso   1.00
H746   H     0.80653   0.65079   0.76292   0.00000  Uiso   1.00
H747   H     0.69836   0.84157   0.75887   0.00000  Uiso   1.00
H748   H     0.65457   0.79627   0.74813   0.00000  Uiso   1.00
H749   H     0.87206   0.75313   0.71902   0.00000  Uiso   1.00
H750   H     0.78783   0.74397   0.63348   0.00000  Uiso   1.00
H751   H     0.70129   0.76343   0.84720   0.00000  Uiso   1.00
H752   H     0.66008   0.71963   0.80242   0.00000  Uiso   1.00
H753   H     0.74871   0.80194   0.65423   0.00000  Uiso   1.00
H754   H     0.75989   0.84620   0.69641   0.00000  Uiso   1.00
H755   H     0.75402   0.65589   0.80515   0.00000  Uiso   1.00
H756   H     0.75886   0.69686   0.84883   0.00000  Uiso   1.00
O757   O     0.25031   0.66418   0.30113   0.00000  Uiso   1.00
O758   O     0.22108   0.65133   0.26530   0.00000  Uiso   1.00
O759   O     0.34102   0.70869   0.25269   0.00000  Uiso   1.00
O760   O     0.35254   0.74809   0.22320   0.00000  Uiso   1.00
O761   O     0.29700   0.75396   0.34453   0.00000  Uiso   1.00
O762   O     0.24661   0.79589   0.34586   0.00000  Uiso   1.00
O763   O     0.24763   0.80148   0.16015   0.00000  Uiso   1.00
O764   O     0.28764   0.76583   0.15388   0.00000  Uiso   1.00
O765   O     0.16149   0.74954   0.20158   0.00000  Uiso   1.00
O766   O     0.14660   0.72151   0.23830   0.00000  Uiso   1.00
O767   O     0.19747   0.84132   0.25178   0.00000  Uiso   1.00
O768   O     0.23415   0.85740   0.27990   0.00000  Uiso   1.00
O769   O     0.24392   0.84301   0.20272   0.00000  Uiso   1.00
O770   O     0.28728   0.84592   0.25772   0.00000  Uiso   1.00
O771   O     0.15884   0.79630   0.25031   0.00000  Uiso   1.00
O772   O     0.15790   0.74015   0.28970   0.00000  Uiso   1.00
O773   O     0.20359   0.75382   0.15976   0.00000  Uiso   1.00
O774   O     0.25287   0.71215   0.15902   0.00000  Uiso   1.00
O775   O     0.24916   0.70568   0.34390   0.00000  Uiso   1.00
O776   O     0.21794   0.74619   0.35646   0.00000  Uiso   1.00
O777   O     0.33934   0.75625   0.30285   0.00000  Uiso   1.00
O778   O     0.34258   0.79740   0.25485   0.00000  Uiso   1.00
O779   O     0.29902   0.66664   0.25295   0.00000  Uiso   1.00
O780   O     0.25255   0.66226   0.21195   0.00000  Uiso   1.00
Zr781  Zr    0.25220   0.69583   0.25613   0.00000  Uiso   1.00
O782   O     0.22026   0.71719   0.21767   0.00000  Uiso   1.00
Zr783  Zr    0.30941   0.75321   0.25695   0.00000  Uiso   1.00
O784   O     0.28326   0.78612   0.22143   0.00000  Uiso   1.00
Zr785  Zr    0.25190   0.75142   0.31355   0.00000  Uiso   1.00
O786   O     0.21620   0.78297   0.28570   0.00000  Uiso   1.00
Zr787  Zr    0.24824   0.75672   0.19135   0.00000  Uiso   1.00
O788   O     0.28297   0.72347   0.21901   0.00000  Uiso   1.00
Zr789  Zr    0.19165   0.75175   0.24757   0.00000  Uiso   1.00
O790   O     0.21444   0.72095   0.28640   0.00000  Uiso   1.00
Zr791  Zr    0.24396   0.81291   0.24906   0.00000  Uiso   1.00
O792   O     0.27914   0.78982   0.28517   0.00000  Uiso   1.00
O793   O     0.28696   0.71833   0.29044   0.00000  Uiso   1.00
O794   O     0.21131   0.78890   0.21389   0.00000  Uiso   1.00
C795   C     0.24916   0.67363   0.33352   0.00000  Uiso   1.00
C796   C     0.33113   0.67660   0.25140   0.00000  Uiso   1.00
C797   C     0.32909   0.75637   0.33485   0.00000  Uiso   1.00
C798   C     0.24586   0.83346   0.17043   0.00000  Uiso   1.00
C799   C     0.17155   0.75100   0.16946   0.00000  Uiso   1.00
C800   C     0.16623   0.82912   0.25184   0.00000  Uiso   1.00
H801   H     0.20556   0.70111   0.20387   0.00000  Uiso   1.00
H802   H     0.20035   0.79653   0.30081   0.00000  Uiso   1.00
H803   H     0.30184   0.70324   0.30522   0.00000  Uiso   1.00
H804   H     0.29856   0.80136   0.20740   0.00000  Uiso   1.00
H805   H     0.30615   0.74851   0.15841   0.00000  Uiso   1.00
H806   H     0.34582   0.75928   0.20102   0.00000  Uiso   1.00
H807   H     0.15163   0.76213   0.30156   0.00000  Uiso   1.00
H808   H     0.19425   0.75068   0.34741   0.00000  Uiso   1.00
H809   H     0.24931   0.71947   0.13454   0.00000  Uiso   1.00
H810   H     0.25775   0.63793   0.21885   0.00000  Uiso   1.00
H811   H     0.23891   0.85042   0.30425   0.00000  Uiso   1.00
H812   H     0.26805   0.81006   0.34383   0.00000  Uiso   1.00
H813   H     0.19803   0.65682   0.25518   0.00000  Uiso   1.00
H814   H     0.15380   0.69685   0.24083   0.00000  Uiso   1.00
H815   H     0.33903   0.81158   0.27608   0.00000  Uiso   1.00
H816   H     0.29513   0.85525   0.23504   0.00000  Uiso   1.00
O817   O     0.69810   0.24515   0.33329   0.00000  Uiso   1.00
O818   O     0.73485   0.21932   0.34669   0.00000  Uiso   1.00
O819   O     0.74201   0.34093   0.29321   0.00000  Uiso   1.00
O820   O     0.78251   0.34753   0.25391   0.00000  Uiso   1.00
O821   O     0.65520   0.29755   0.24502   0.00000  Uiso   1.00
O822   O     0.65355   0.24766   0.20221   0.00000  Uiso   1.00
O823   O     0.83899   0.25218   0.19655   0.00000  Uiso   1.00
O824   O     0.84280   0.29293   0.23417   0.00000  Uiso   1.00
O825   O     0.80013   0.16378   0.24819   0.00000  Uiso   1.00
O826   O     0.76294   0.14681   0.27397   0.00000  Uiso   1.00
O827   O     0.74749   0.20023   0.15616   0.00000  Uiso   1.00
O828   O     0.70586   0.25681   0.15479   0.00000  Uiso   1.00
O829   O     0.79675   0.24715   0.15474   0.00000  Uiso   1.00
O830   O     0.75949   0.27443   0.13833   0.00000  Uiso   1.00
O831   O     0.75246   0.16055   0.19988   0.00000  Uiso   1.00
O832   O     0.71128   0.15831   0.25529   0.00000  Uiso   1.00
O833   O     0.84065   0.20666   0.24052   0.00000  Uiso   1.00
O834   O     0.84222   0.25235   0.28463   0.00000  Uiso   1.00
O835   O     0.65589   0.24857   0.29133   0.00000  Uiso   1.00
O836   O     0.64407   0.21779   0.25028   0.00000  Uiso   1.00
O837   O     0.69619   0.34062   0.24401   0.00000  Uiso   1.00
O838   O     0.73613   0.35018   0.20956   0.00000  Uiso   1.00
O839   O     0.74609   0.29737   0.33345   0.00000  Uiso   1.00
O840   O     0.78778   0.25118   0.33596   0.00000  Uiso   1.00
Zr841  Zr    0.74336   0.25127   0.30265   0.00000  Uiso   1.00
O842   O     0.78254   0.22105   0.28022   0.00000  Uiso   1.00
Zr843  Zr    0.74194   0.31074   0.24758   0.00000  Uiso   1.00
O844   O     0.77672   0.28612   0.21290   0.00000  Uiso   1.00
Zr845  Zr    0.68665   0.25232   0.24615   0.00000  Uiso   1.00
O846   O     0.71494   0.21697   0.21397   0.00000  Uiso   1.00
Zr847  Zr    0.80795   0.25080   0.24131   0.00000  Uiso   1.00
O848   O     0.78000   0.28359   0.27642   0.00000  Uiso   1.00
Zr849  Zr    0.75331   0.19260   0.24499   0.00000  Uiso   1.00
O850   O     0.71385   0.21413   0.27581   0.00000  Uiso   1.00
Zr851  Zr    0.75075   0.24665   0.18503   0.00000  Uiso   1.00
O852   O     0.71532   0.28176   0.20908   0.00000  Uiso   1.00
O853   O     0.70867   0.28619   0.28121   0.00000  Uiso   1.00
O854   O     0.78614   0.21387   0.20834   0.00000  Uiso   1.00
C855   C     0.66587   0.24534   0.32332   0.00000  Uiso   1.00
C856   C     0.74479   0.32997   0.32487   0.00000  Uiso   1.00
C857   C     0.66433   0.32991   0.24343   0.00000  Uiso   1.00
C858   C     0.82892   0.24996   0.16455   0.00000  Uiso   1.00
C859   C     0.83191   0.17440   0.24453   0.00000  Uiso   1.00
C860   C     0.74964   0.16870   0.16735   0.00000  Uiso   1.00
H861   H     0.79680   0.20623   0.29579   0.00000  Uiso   1.00
H862   H     0.69991   0.20119   0.20025   0.00000  Uiso   1.00
H863   H     0.69316   0.30004   0.29655   0.00000  Uiso   1.00
H864   H     0.78994   0.30190   0.19743   0.00000  Uiso   1.00
H865   H     0.83890   0.30912   0.25382   0.00000  Uiso   1.00
H866   H     0.79550   0.34906   0.23173   0.00000  Uiso   1.00
H867   H     0.70074   0.15122   0.23289   0.00000  Uiso   1.00
H868   H     0.65351   0.19423   0.24589   0.00000  Uiso   1.00
H869   H     0.86644   0.25171   0.27576   0.00000  Uiso   1.00
H870   H     0.78112   0.25596   0.36045   0.00000  Uiso   1.00
H871   H     0.69622   0.23421   0.14705   0.00000  Uiso   1.00
H872   H     0.65283   0.27036   0.19003   0.00000  Uiso   1.00
H873   H     0.74552   0.19658   0.34087   0.00000  Uiso   1.00
H874   H     0.75975   0.15322   0.29879   0.00000  Uiso   1.00
H875   H     0.74043   0.33915   0.18672   0.00000  Uiso   1.00
H876   H     0.75554   0.29931   0.14385   0.00000  Uiso   1.00
C877   C     0.28459   0.09659   0.11308   0.00000  Uiso   1.00
C878   C     0.25872   0.09428   0.08730   0.00000  Uiso   1.00
C879   C     0.23244   0.11972   0.08633   0.00000  Uiso   1.00
C880   C     0.23173   0.14660   0.11092   0.00000  Uiso   1.00
C881   C     0.25667   0.14788   0.13755   0.00000  Uiso   1.00
C882   C     0.28311   0.12270   0.13846   0.00000  Uiso   1.00
H883   H     0.30539   0.07759   0.11405   0.00000  Uiso   1.00
H884   H     0.21228   0.11855   0.06666   0.00000  Uiso   1.00
H885   H     0.21098   0.16563   0.10996   0.00000  Uiso   1.00
H886   H     0.30261   0.12329   0.15881   0.00000  Uiso   1.00
C887   C     0.73464   0.61446   0.58834   0.00000  Uiso   1.00
C888   C     0.76137   0.58945   0.58826   0.00000  Uiso   1.00
C889   C     0.78756   0.59164   0.61377   0.00000  Uiso   1.00
C890   C     0.78609   0.61724   0.63973   0.00000  Uiso   1.00
C891   C     0.75931   0.64209   0.63974   0.00000  Uiso   1.00
C892   C     0.73394   0.64086   0.61350   0.00000  Uiso   1.00
H893   H     0.71421   0.61341   0.56895   0.00000  Uiso   1.00
H894   H     0.80871   0.57302   0.61399   0.00000  Uiso   1.00
H895   H     0.80597   0.61780   0.65971   0.00000  Uiso   1.00
H896   H     0.71294   0.65965   0.61318   0.00000  Uiso   1.00
C897   C     0.76902   0.88125   0.08754   0.00000  Uiso   1.00
C898   C     0.74209   0.90605   0.08724   0.00000  Uiso   1.00
C899   C     0.71564   0.90358   0.11244   0.00000  Uiso   1.00
C900   C     0.71705   0.87797   0.13836   0.00000  Uiso   1.00
C901   C     0.74405   0.85337   0.13868   0.00000  Uiso   1.00
C902   C     0.76969   0.85481   0.11270   0.00000  Uiso   1.00
H903   H     0.78966   0.88253   0.06839   0.00000  Uiso   1.00
H904   H     0.69436   0.92206   0.11249   0.00000  Uiso   1.00
H905   H     0.69695   0.87724   0.15811   0.00000  Uiso   1.00
H906   H     0.79087   0.83620   0.11260   0.00000  Uiso   1.00
C907   C     0.26850   0.37971   0.58565   0.00000  Uiso   1.00
C908   C     0.24141   0.40434   0.58623   0.00000  Uiso   1.00
C909   C     0.21507   0.40103   0.61138   0.00000  Uiso   1.00
C910   C     0.21678   0.37477   0.63657   0.00000  Uiso   1.00
C911   C     0.24403   0.35045   0.63615   0.00000  Uiso   1.00
C912   C     0.26953   0.35268   0.61011   0.00000  Uiso   1.00
H913   H     0.28903   0.38169   0.56644   0.00000  Uiso   1.00
H914   H     0.19370   0.41940   0.61206   0.00000  Uiso   1.00
H915   H     0.19688   0.37347   0.65649   0.00000  Uiso   1.00
H916   H     0.29094   0.33435   0.60958   0.00000  Uiso   1.00
C917   C     0.72683   0.11556   0.90562   0.00000  Uiso   1.00
C918   C     0.75320   0.09017   0.90680   0.00000  Uiso   1.00
C919   C     0.78025   0.09178   0.88220   0.00000  Uiso   1.00
C920   C     0.77999   0.11709   0.85601   0.00000  Uiso   1.00
C921   C     0.75357   0.14228   0.85474   0.00000  Uiso   1.00
C922   C     0.72733   0.14174   0.88015   0.00000  Uiso   1.00
H923   H     0.70576   0.11495   0.92433   0.00000  Uiso   1.00
H924   H     0.80114   0.07287   0.88283   0.00000  Uiso   1.00
H925   H     0.80061   0.11721   0.83684   0.00000  Uiso   1.00
H926   H     0.70669   0.16094   0.87965   0.00000  Uiso   1.00
C927   C     0.27662   0.59503   0.38580   0.00000  Uiso   1.00
C928   C     0.25012   0.59289   0.41095   0.00000  Uiso   1.00
C929   C     0.22369   0.61821   0.41095   0.00000  Uiso   1.00
C930   C     0.22364   0.64496   0.38614   0.00000  Uiso   1.00
C931   C     0.24935   0.64610   0.36024   0.00000  Uiso   1.00
C932   C     0.27581   0.62095   0.36024   0.00000  Uiso   1.00
H933   H     0.29751   0.57611   0.38555   0.00000  Uiso   1.00
H934   H     0.20305   0.61714   0.43012   0.00000  Uiso   1.00
H935   H     0.20311   0.66427   0.38664   0.00000  Uiso   1.00
H936   H     0.29611   0.62169   0.34073   0.00000  Uiso   1.00
C937   C     0.26955   0.88332   0.91006   0.00000  Uiso   1.00
C938   C     0.24327   0.90875   0.90964   0.00000  Uiso   1.00
C939   C     0.21711   0.90678   0.88411   0.00000  Uiso   1.00
C940   C     0.21817   0.88085   0.85854   0.00000  Uiso   1.00
C941   C     0.24454   0.85559   0.85900   0.00000  Uiso   1.00
C942   C     0.26985   0.85662   0.88529   0.00000  Uiso   1.00
H943   H     0.28992   0.88428   0.92952   0.00000  Uiso   1.00
H944   H     0.19633   0.92582   0.88357   0.00000  Uiso   1.00
H945   H     0.19822   0.88024   0.83863   0.00000  Uiso   1.00
H946   H     0.29039   0.83733   0.88604   0.00000  Uiso   1.00
C947   C     0.77235   0.38225   0.40395   0.00000  Uiso   1.00
C948   C     0.74632   0.40798   0.40544   0.00000  Uiso   1.00
C949   C     0.71920   0.40695   0.38086   0.00000  Uiso   1.00
C950   C     0.71902   0.38181   0.35445   0.00000  Uiso   1.00
C951   C     0.74509   0.35625   0.35297   0.00000  Uiso   1.00
C952   C     0.77141   0.35628   0.37830   0.00000  Uiso   1.00
H953   H     0.79346   0.38240   0.42262   0.00000  Uiso   1.00
H954   H     0.69857   0.42613   0.38172   0.00000  Uiso   1.00
H955   H     0.69826   0.38203   0.33536   0.00000  Uiso   1.00
H956   H     0.79174   0.33677   0.37765   0.00000  Uiso   1.00
C957   C     0.11701   0.22754   0.08716   0.00000  Uiso   1.00
C958   C     0.09109   0.25332   0.08636   0.00000  Uiso   1.00
C959   C     0.09062   0.27890   0.11253   0.00000  Uiso   1.00
C960   C     0.11536   0.27836   0.13928   0.00000  Uiso   1.00
C961   C     0.14157   0.25297   0.13948   0.00000  Uiso   1.00
C962   C     0.14242   0.22777   0.11314   0.00000  Uiso   1.00
H963   H     0.11763   0.20733   0.06752   0.00000  Uiso   1.00
H964   H     0.07087   0.29900   0.11239   0.00000  Uiso   1.00
H965   H     0.11443   0.29803   0.15945   0.00000  Uiso   1.00
H966   H     0.16235   0.20786   0.11311   0.00000  Uiso   1.00
C967   C     0.61884   0.72666   0.58991   0.00000  Uiso   1.00
C968   C     0.59328   0.75283   0.59070   0.00000  Uiso   1.00
C969   C     0.59395   0.77756   0.61762   0.00000  Uiso   1.00
C970   C     0.61944   0.77583   0.64355   0.00000  Uiso   1.00
C971   C     0.64532   0.75013   0.64217   0.00000  Uiso   1.00
C972   C     0.64505   0.72574   0.61508   0.00000  Uiso   1.00
H973   H     0.61859   0.70711   0.56961   0.00000  Uiso   1.00
H974   H     0.57454   0.79797   0.61868   0.00000  Uiso   1.00
H975   H     0.61934   0.79484   0.66437   0.00000  Uiso   1.00
H976   H     0.66467   0.70555   0.61387   0.00000  Uiso   1.00
C977   C     0.08992   0.76481   0.88104   0.00000  Uiso   1.00
C978   C     0.09041   0.73968   0.90764   0.00000  Uiso   1.00
C979   C     0.11738   0.71496   0.90814   0.00000  Uiso   1.00
C980   C     0.14382   0.71598   0.88306   0.00000  Uiso   1.00
C981   C     0.14291   0.74084   0.85631   0.00000  Uiso   1.00
C982   C     0.11554   0.76491   0.85524   0.00000  Uiso   1.00
H983   H     0.06964   0.78437   0.88030   0.00000  Uiso   1.00
H984   H     0.11825   0.69530   0.92831   0.00000  Uiso   1.00
H985   H     0.16479   0.69718   0.88429   0.00000  Uiso   1.00
H986   H     0.11459   0.78447   0.83501   0.00000  Uiso   1.00
C987   C     0.61291   0.21502   0.40039   0.00000  Uiso   1.00
C988   C     0.58657   0.24039   0.40144   0.00000  Uiso   1.00
C989   C     0.58654   0.26708   0.37645   0.00000  Uiso   1.00
C990   C     0.61202   0.26809   0.35060   0.00000  Uiso   1.00
C991   C     0.63870   0.24323   0.35007   0.00000  Uiso   1.00
C992   C     0.63920   0.21681   0.37524   0.00000  Uiso   1.00
H993   H     0.61340   0.19424   0.41942   0.00000  Uiso   1.00
H994   H     0.56676   0.28715   0.37704   0.00000  Uiso   1.00
H995   H     0.61143   0.28880   0.33150   0.00000  Uiso   1.00
H996   H     0.65960   0.19736   0.37509   0.00000  Uiso   1.00
C997   C     0.88453   0.72280   0.09246   0.00000  Uiso   1.00
C998   C     0.91213   0.74682   0.09310   0.00000  Uiso   1.00
C999   C     0.91275   0.77232   0.11933   0.00000  Uiso   1.00
C1000  C     0.88683   0.77324   0.14484   0.00000  Uiso   1.00
C1001  C     0.85897   0.74968   0.14380   0.00000  Uiso   1.00
C1002  C     0.85784   0.72462   0.11723   0.00000  Uiso   1.00
H1003  H     0.88350   0.70290   0.07253   0.00000  Uiso   1.00
H1004  H     0.93347   0.79141   0.12013   0.00000  Uiso   1.00
H1005  H     0.88819   0.79277   0.16504   0.00000  Uiso   1.00
H1006  H     0.83669   0.70602   0.11608   0.00000  Uiso   1.00
C1007  C     0.41400   0.26752   0.61694   0.00000  Uiso   1.00
C1008  C     0.41268   0.24235   0.59042   0.00000  Uiso   1.00
C1009  C     0.38523   0.21820   0.59021   0.00000  Uiso   1.00
C1010  C     0.35923   0.21964   0.61566   0.00000  Uiso   1.00
C1011  C     0.36091   0.24449   0.64238   0.00000  Uiso   1.00
C1012  C     0.38868   0.26819   0.64304   0.00000  Uiso   1.00
H1013  H     0.43470   0.28665   0.61738   0.00000  Uiso   1.00
H1014  H     0.38374   0.19857   0.57004   0.00000  Uiso   1.00
H1015  H     0.33803   0.20108   0.61475   0.00000  Uiso   1.00
H1016  H     0.39026   0.28779   0.66325   0.00000  Uiso   1.00
C1017  C     0.88193   0.22475   0.90581   0.00000  Uiso   1.00
C1018  C     0.90832   0.25008   0.90602   0.00000  Uiso   1.00
C1019  C     0.90946   0.27487   0.87915   0.00000  Uiso   1.00
C1020  C     0.88493   0.27400   0.85227   0.00000  Uiso   1.00
C1021  C     0.85824   0.24913   0.85262   0.00000  Uiso   1.00
C1022  C     0.85669   0.22471   0.87967   0.00000  Uiso   1.00
H1023  H     0.88082   0.20514   0.92603   0.00000  Uiso   1.00
H1024  H     0.92959   0.29460   0.87885   0.00000  Uiso   1.00
H1025  H     0.88638   0.29308   0.83157   0.00000  Uiso   1.00
H1026  H     0.83634   0.20519   0.88014   0.00000  Uiso   1.00
C1027  C     0.40753   0.78342   0.38736   0.00000  Uiso   1.00
C1028  C     0.40750   0.75819   0.41383   0.00000  Uiso   1.00
C1029  C     0.38138   0.73260   0.41411   0.00000  Uiso   1.00
C1030  C     0.35535   0.73264   0.38881   0.00000  Uiso   1.00
C1031  C     0.35577   0.75746   0.36209   0.00000  Uiso   1.00
C1032  C     0.38216   0.78266   0.36127   0.00000  Uiso   1.00
H1033  H     0.42743   0.80337   0.38673   0.00000  Uiso   1.00
H1034  H     0.38113   0.71270   0.43407   0.00000  Uiso   1.00
H1035  H     0.33533   0.71280   0.38957   0.00000  Uiso   1.00
H1036  H     0.38280   0.80199   0.34076   0.00000  Uiso   1.00
C1037  C     0.09702   0.10999   0.27333   0.00000  Uiso   1.00
C1038  C     0.09368   0.08751   0.24471   0.00000  Uiso   1.00
C1039  C     0.11674   0.09086   0.21653   0.00000  Uiso   1.00
C1040  C     0.14295   0.11611   0.21717   0.00000  Uiso   1.00
C1041  C     0.14563   0.13902   0.24544   0.00000  Uiso   1.00
C1042  C     0.12242   0.13600   0.27340   0.00000  Uiso   1.00
H1043  H     0.07953   0.10771   0.29532   0.00000  Uiso   1.00
H1044  H     0.11445   0.07386   0.19417   0.00000  Uiso   1.00
H1045  H     0.16054   0.11839   0.19525   0.00000  Uiso   1.00
H1046  H     0.12418   0.15360   0.29536   0.00000  Uiso   1.00
C1047  C     0.62528   0.58199   0.77365   0.00000  Uiso   1.00
C1048  C     0.59809   0.58198   0.74918   0.00000  Uiso   1.00
C1049  C     0.59687   0.60832   0.72387   0.00000  Uiso   1.00
C1050  C     0.62185   0.63473   0.72360   0.00000  Uiso   1.00
C1051  C     0.64911   0.63450   0.74787   0.00000  Uiso   1.00
C1052  C     0.65100   0.60771   0.77257   0.00000  Uiso   1.00
H1053  H     0.62649   0.56212   0.79360   0.00000  Uiso   1.00
H1054  H     0.57615   0.60874   0.70475   0.00000  Uiso   1.00
H1055  H     0.62015   0.65515   0.70423   0.00000  Uiso   1.00
H1056  H     0.67182   0.60727   0.79158   0.00000  Uiso   1.00
C1057  C     0.89332   0.09473   0.77599   0.00000  Uiso   1.00
C1058  C     0.91490   0.09071   0.74676   0.00000  Uiso   1.00
C1059  C     0.91055   0.11303   0.71812   0.00000  Uiso   1.00
C1060  C     0.88523   0.13918   0.71887   0.00000  Uiso   1.00
C1061  C     0.86331   0.14263   0.74783   0.00000  Uiso   1.00
C1062  C     0.86736   0.12020   0.77629   0.00000  Uiso   1.00
H1063  H     0.89640   0.07787   0.79836   0.00000  Uiso   1.00
H1064  H     0.92690   0.11025   0.69533   0.00000  Uiso   1.00
H1065  H     0.88224   0.15624   0.69663   0.00000  Uiso   1.00
H1066  H     0.85071   0.12270   0.79886   0.00000  Uiso   1.00
C1067  C     0.38816   0.60020   0.27510   0.00000  Uiso   1.00
C1068  C     0.40960   0.59729   0.24561   0.00000  Uiso   1.00
C1069  C     0.40504   0.62086   0.21798   0.00000  Uiso   1.00
C1070  C     0.37986   0.64715   0.22008   0.00000  Uiso   1.00
C1071  C     0.35813   0.64952   0.24931   0.00000  Uiso   1.00
C1072  C     0.36228   0.62576   0.27668   0.00000  Uiso   1.00
H1073  H     0.39132   0.58242   0.29674   0.00000  Uiso   1.00
H1074  H     0.42121   0.61901   0.19496   0.00000  Uiso   1.00
H1075  H     0.37693   0.66528   0.19869   0.00000  Uiso   1.00
H1076  H     0.34584   0.62738   0.29951   0.00000  Uiso   1.00
C1077  C     0.11722   0.90319   0.72349   0.00000  Uiso   1.00
C1078  C     0.09049   0.90303   0.74845   0.00000  Uiso   1.00
C1079  C     0.09007   0.87667   0.77383   0.00000  Uiso   1.00
C1080  C     0.11556   0.85070   0.77390   0.00000  Uiso   1.00
C1081  C     0.14261   0.85140   0.74946   0.00000  Uiso   1.00
C1082  C     0.14345   0.87794   0.72440   0.00000  Uiso   1.00
H1083  H     0.11801   0.92319   0.70364   0.00000  Uiso   1.00
H1084  H     0.06991   0.87621   0.79353   0.00000  Uiso   1.00
H1085  H     0.11473   0.83063   0.79361   0.00000  Uiso   1.00
H1086  H     0.16420   0.87886   0.70533   0.00000  Uiso   1.00
C1087  C     0.58424   0.38180   0.26704   0.00000  Uiso   1.00
C1088  C     0.58470   0.40839   0.24189   0.00000  Uiso   1.00
C1089  C     0.61139   0.40859   0.21687   0.00000  Uiso   1.00
C1090  C     0.63752   0.38319   0.21750   0.00000  Uiso   1.00
C1091  C     0.63664   0.35642   0.24233   0.00000  Uiso   1.00
C1092  C     0.60960   0.35569   0.26683   0.00000  Uiso   1.00
H1093  H     0.56414   0.38128   0.28681   0.00000  Uiso   1.00
H1094  H     0.61223   0.42874   0.19718   0.00000  Uiso   1.00
H1095  H     0.65821   0.38417   0.19838   0.00000  Uiso   1.00
H1096  H     0.60867   0.33543   0.28639   0.00000  Uiso   1.00
C1097  C     0.90537   0.88812   0.22127   0.00000  Uiso   1.00
C1098  C     0.90432   0.91445   0.24658   0.00000  Uiso   1.00
C1099  C     0.87752   0.91419   0.27149   0.00000  Uiso   1.00
C1100  C     0.85207   0.88819   0.27087   0.00000  Uiso   1.00
C1101  C     0.85379   0.86141   0.24614   0.00000  Uiso   1.00
C1102  C     0.88063   0.86148   0.22143   0.00000  Uiso   1.00
H1103  H     0.92574   0.88790   0.20179   0.00000  Uiso   1.00
H1104  H     0.87642   0.93410   0.29142   0.00000  Uiso   1.00
H1105  H     0.83157   0.88845   0.29022   0.00000  Uiso   1.00
H1106  H     0.88215   0.84117   0.20203   0.00000  Uiso   1.00
C1107  C     0.38373   0.40869   0.71852   0.00000  Uiso   1.00
C1108  C     0.40634   0.41163   0.74711   0.00000  Uiso   1.00
C1109  C     0.40206   0.38932   0.77571   0.00000  Uiso   1.00
C1110  C     0.37624   0.36376   0.77533   0.00000  Uiso   1.00
C1111  C     0.35356   0.36106   0.74691   0.00000  Uiso   1.00
C1112  C     0.35711   0.38389   0.71867   0.00000  Uiso   1.00
H1113  H     0.38674   0.42564   0.69620   0.00000  Uiso   1.00
H1114  H     0.41917   0.39133   0.79803   0.00000  Uiso   1.00
H1115  H     0.37383   0.34619   0.79724   0.00000  Uiso   1.00
H1116  H     0.33995   0.38180   0.69640   0.00000  Uiso   1.00
C1117  C     0.11599   0.22133   0.90581   0.00000  Uiso   1.00
C1118  C     0.08955   0.24655   0.90478   0.00000  Uiso   1.00
C1119  C     0.08966   0.27140   0.87793   0.00000  Uiso   1.00
C1120  C     0.11523   0.27050   0.85211   0.00000  Uiso   1.00
C1121  C     0.14186   0.24563   0.85351   0.00000  Uiso   1.00
C1122  C     0.14231   0.22127   0.88069   0.00000  Uiso   1.00
H1123  H     0.11633   0.20189   0.92622   0.00000  Uiso   1.00
H1124  H     0.06971   0.29128   0.87684   0.00000  Uiso   1.00
H1125  H     0.11463   0.28963   0.83141   0.00000  Uiso   1.00
H1126  H     0.16262   0.20183   0.88204   0.00000  Uiso   1.00
C1127  C     0.59004   0.77732   0.38288   0.00000  Uiso   1.00
C1128  C     0.58919   0.75201   0.40930   0.00000  Uiso   1.00
C1129  C     0.61498   0.72608   0.40986   0.00000  Uiso   1.00
C1130  C     0.64139   0.72580   0.38480   0.00000  Uiso   1.00
C1131  C     0.64171   0.75070   0.35810   0.00000  Uiso   1.00
C1132  C     0.61568   0.77624   0.35709   0.00000  Uiso   1.00
H1133  H     0.57065   0.79777   0.38214   0.00000  Uiso   1.00
H1134  H     0.61479   0.70627   0.42991   0.00000  Uiso   1.00
H1135  H     0.66116   0.70576   0.38581   0.00000  Uiso   1.00
H1136  H     0.61561   0.79572   0.33671   0.00000  Uiso   1.00
C1137  C     0.88202   0.72444   0.91112   0.00000  Uiso   1.00
C1138  C     0.90955   0.74851   0.91131   0.00000  Uiso   1.00
C1139  C     0.91178   0.77323   0.88446   0.00000  Uiso   1.00
C1140  C     0.88729   0.77342   0.85756   0.00000  Uiso   1.00
C1141  C     0.85950   0.74976   0.85782   0.00000  Uiso   1.00
C1142  C     0.85683   0.72551   0.88496   0.00000  Uiso   1.00
H1143  H     0.88005   0.70488   0.93133   0.00000  Uiso   1.00
H1144  H     0.93280   0.79202   0.88413   0.00000  Uiso   1.00
H1145  H     0.88969   0.79237   0.83687   0.00000  Uiso   1.00
H1146  H     0.83566   0.70690   0.88546   0.00000  Uiso   1.00
C1147  C     0.37839   0.22685   0.40799   0.00000  Uiso   1.00
C1148  C     0.40584   0.25099   0.40881   0.00000  Uiso   1.00
C1149  C     0.40760   0.27683   0.38298   0.00000  Uiso   1.00
C1150  C     0.38282   0.27795   0.35634   0.00000  Uiso   1.00
C1151  C     0.35524   0.25405   0.35588   0.00000  Uiso   1.00
C1152  C     0.35294   0.22879   0.38212   0.00000  Uiso   1.00
H1153  H     0.37676   0.20646   0.42739   0.00000  Uiso   1.00
H1154  H     0.42854   0.29570   0.38315   0.00000  Uiso   1.00
H1155  H     0.38491   0.29769   0.33636   0.00000  Uiso   1.00
H1156  H     0.33192   0.21000   0.38205   0.00000  Uiso   1.00
C1157  C     0.12007   0.72190   0.09118   0.00000  Uiso   1.00
C1158  C     0.09389   0.74744   0.08961   0.00000  Uiso   1.00
C1159  C     0.09341   0.77399   0.11474   0.00000  Uiso   1.00
C1160  C     0.11839   0.77473   0.14118   0.00000  Uiso   1.00
C1161  C     0.14480   0.74960   0.14224   0.00000  Uiso   1.00
C1162  C     0.14572   0.72337   0.11693   0.00000  Uiso   1.00
H1163  H     0.12071   0.70100   0.07228   0.00000  Uiso   1.00
H1164  H     0.07353   0.79396   0.11397   0.00000  Uiso   1.00
H1165  H     0.11753   0.79526   0.16041   0.00000  Uiso   1.00
H1166  H     0.16594   0.70373   0.11748   0.00000  Uiso   1.00
C1167  C     0.62030   0.21635   0.58334   0.00000  Uiso   1.00
C1168  C     0.59387   0.24168   0.58298   0.00000  Uiso   1.00
C1169  C     0.59363   0.26757   0.60874   0.00000  Uiso   1.00
C1170  C     0.61900   0.26779   0.63474   0.00000  Uiso   1.00
C1171  C     0.64564   0.24286   0.63469   0.00000  Uiso   1.00
C1172  C     0.64642   0.21736   0.60865   0.00000  Uiso   1.00
H1173  H     0.62075   0.19597   0.56387   0.00000  Uiso   1.00
H1174  H     0.57358   0.28738   0.60887   0.00000  Uiso   1.00
H1175  H     0.61819   0.28773   0.65460   0.00000  Uiso   1.00
H1176  H     0.66677   0.19784   0.60839   0.00000  Uiso   1.00
C1177  C     0.88326   0.22381   0.08707   0.00000  Uiso   1.00
C1178  C     0.90937   0.24941   0.08749   0.00000  Uiso   1.00
C1179  C     0.90839   0.27547   0.11313   0.00000  Uiso   1.00
C1180  C     0.88230   0.27542   0.13840   0.00000  Uiso   1.00
C1181  C     0.85601   0.25014   0.13763   0.00000  Uiso   1.00
C1182  C     0.85642   0.22451   0.11165   0.00000  Uiso   1.00
H1183  H     0.88357   0.20349   0.06754   0.00000  Uiso   1.00
H1184  H     0.92804   0.29568   0.11366   0.00000  Uiso   1.00
H1185  H     0.88230   0.29542   0.15827   0.00000  Uiso   1.00
H1186  H     0.83646   0.20461   0.11091   0.00000  Uiso   1.00
C1187  C     0.41043   0.77680   0.62168   0.00000  Uiso   1.00
C1188  C     0.41106   0.75217   0.59465   0.00000  Uiso   1.00
C1189  C     0.38453   0.72702   0.59293   0.00000  Uiso   1.00
C1190  C     0.35774   0.72670   0.61762   0.00000  Uiso   1.00
C1191  C     0.35771   0.75081   0.64503   0.00000  Uiso   1.00
C1192  C     0.38437   0.77569   0.64703   0.00000  Uiso   1.00
H1193  H     0.43034   0.79669   0.62327   0.00000  Uiso   1.00
H1194  H     0.38450   0.70780   0.57232   0.00000  Uiso   1.00
H1195  H     0.33762   0.70703   0.61591   0.00000  Uiso   1.00
H1196  H     0.38480   0.79446   0.66805   0.00000  Uiso   1.00
C1197  C     0.28320   0.09163   0.88040   0.00000  Uiso   1.00
C1198  C     0.25737   0.09058   0.90630   0.00000  Uiso   1.00
C1199  C     0.23040   0.11522   0.90549   0.00000  Uiso   1.00
C1200  C     0.22952   0.14072   0.87963   0.00000  Uiso   1.00
C1201  C     0.25489   0.14138   0.85341   0.00000  Uiso   1.00
C1202  C     0.28158   0.11646   0.85371   0.00000  Uiso   1.00
H1203  H     0.30438   0.07304   0.88073   0.00000  Uiso   1.00
H1204  H     0.21020   0.11485   0.92515   0.00000  Uiso   1.00
H1205  H     0.20871   0.15968   0.87976   0.00000  Uiso   1.00
H1206  H     0.30155   0.11676   0.83381   0.00000  Uiso   1.00
C1207  C     0.73053   0.61532   0.40716   0.00000  Uiso   1.00
C1208  C     0.75744   0.59054   0.40683   0.00000  Uiso   1.00
C1209  C     0.78281   0.59241   0.38049   0.00000  Uiso   1.00
C1210  C     0.78078   0.61806   0.35457   0.00000  Uiso   1.00
C1211  C     0.75420   0.64311   0.35543   0.00000  Uiso   1.00
C1212  C     0.72928   0.64168   0.38208   0.00000  Uiso   1.00
H1213  H     0.71065   0.61441   0.42713   0.00000  Uiso   1.00
H1214  H     0.80399   0.57383   0.37989   0.00000  Uiso   1.00
H1215  H     0.80036   0.61884   0.33430   0.00000  Uiso   1.00
H1216  H     0.70848   0.66066   0.38312   0.00000  Uiso   1.00
C1217  C     0.72317   0.11362   0.09011   0.00000  Uiso   1.00
C1218  C     0.75002   0.08878   0.08883   0.00000  Uiso   1.00
C1219  C     0.77644   0.09009   0.11415   0.00000  Uiso   1.00
C1220  C     0.77565   0.11534   0.14051   0.00000  Uiso   1.00
C1221  C     0.74918   0.14052   0.14121   0.00000  Uiso   1.00
C1222  C     0.72311   0.13961   0.11565   0.00000  Uiso   1.00
H1223  H     0.70253   0.11316   0.07092   0.00000  Uiso   1.00
H1224  H     0.79760   0.07149   0.11351   0.00000  Uiso   1.00
H1225  H     0.79627   0.11588   0.15974   0.00000  Uiso   1.00
H1226  H     0.70253   0.15887   0.11567   0.00000  Uiso   1.00
C1227  C     0.27803   0.58688   0.61780   0.00000  Uiso   1.00
C1228  C     0.25117   0.58674   0.59292   0.00000  Uiso   1.00
C1229  C     0.22464   0.61181   0.59552   0.00000  Uiso   1.00
C1230  C     0.22528   0.63685   0.62199   0.00000  Uiso   1.00
C1231  C     0.25176   0.63655   0.64715   0.00000  Uiso   1.00
C1232  C     0.27796   0.61116   0.64507   0.00000  Uiso   1.00
H1233  H     0.29895   0.56807   0.61616   0.00000  Uiso   1.00
H1234  H     0.20365   0.61223   0.57671   0.00000  Uiso   1.00
H1235  H     0.20487   0.65627   0.62306   0.00000  Uiso   1.00
H1236  H     0.29887   0.61075   0.66397   0.00000  Uiso   1.00
C1237  C     0.77269   0.88332   0.90489   0.00000  Uiso   1.00
C1238  C     0.74527   0.90753   0.90552   0.00000  Uiso   1.00
C1239  C     0.71942   0.90557   0.87965   0.00000  Uiso   1.00
C1240  C     0.72138   0.88032   0.85332   0.00000  Uiso   1.00
C1241  C     0.74845   0.85579   0.85326   0.00000  Uiso   1.00
C1242  C     0.77393   0.85736   0.87939   0.00000  Uiso   1.00
H1243  H     0.79293   0.88432   0.92448   0.00000  Uiso   1.00
H1244  H     0.69786   0.92371   0.87978   0.00000  Uiso   1.00
H1245  H     0.70132   0.87936   0.83354   0.00000  Uiso   1.00
H1246  H     0.79505   0.83868   0.87978   0.00000  Uiso   1.00
C1247  C     0.26956   0.38690   0.40341   0.00000  Uiso   1.00
C1248  C     0.24184   0.41069   0.40504   0.00000  Uiso   1.00
C1249  C     0.21546   0.40892   0.37973   0.00000  Uiso   1.00
C1250  C     0.21710   0.38413   0.35297   0.00000  Uiso   1.00
C1251  C     0.24445   0.35995   0.35198   0.00000  Uiso   1.00
C1252  C     0.27053   0.36141   0.37748   0.00000  Uiso   1.00
H1253  H     0.29019   0.38779   0.42260   0.00000  Uiso   1.00
H1254  H     0.19368   0.42679   0.38067   0.00000  Uiso   1.00
H1255  H     0.19660   0.38319   0.33365   0.00000  Uiso   1.00
H1256  H     0.29185   0.34296   0.37712   0.00000  Uiso   1.00
C1257  C     0.27164   0.88660   0.09189   0.00000  Uiso   1.00
C1258  C     0.24531   0.91199   0.09089   0.00000  Uiso   1.00
C1259  C     0.21914   0.91138   0.11644   0.00000  Uiso   1.00
C1260  C     0.21978   0.88635   0.14296   0.00000  Uiso   1.00
C1261  C     0.24581   0.86072   0.14348   0.00000  Uiso   1.00
C1262  C     0.27153   0.86084   0.11759   0.00000  Uiso   1.00
H1263  H     0.29204   0.88655   0.07244   0.00000  Uiso   1.00
H1264  H     0.19837   0.93043   0.11594   0.00000  Uiso   1.00
H1265  H     0.19952   0.88645   0.16256   0.00000  Uiso   1.00
H1266  H     0.29182   0.84127   0.11759   0.00000  Uiso   1.00
C1267  C     0.77709   0.38131   0.58851   0.00000  Uiso   1.00
C1268  C     0.75086   0.40682   0.58756   0.00000  Uiso   1.00
C1269  C     0.72461   0.40604   0.61306   0.00000  Uiso   1.00
C1270  C     0.72503   0.38075   0.63938   0.00000  Uiso   1.00
C1271  C     0.75094   0.35498   0.63984   0.00000  Uiso   1.00
C1272  C     0.77676   0.35528   0.61402   0.00000  Uiso   1.00
H1273  H     0.79760   0.38136   0.56917   0.00000  Uiso   1.00
H1274  H     0.70391   0.42516   0.61267   0.00000  Uiso   1.00
H1275  H     0.70460   0.38070   0.65880   0.00000  Uiso   1.00
H1276  H     0.79689   0.33554   0.61384   0.00000  Uiso   1.00
C1277  C     0.12114   0.08574   0.72621   0.00000  Uiso   1.00
C1278  C     0.09645   0.08450   0.75317   0.00000  Uiso   1.00
C1279  C     0.09765   0.10975   0.77959   0.00000  Uiso   1.00
C1280  C     0.12215   0.13663   0.77823   0.00000  Uiso   1.00
C1281  C     0.14668   0.13782   0.75122   0.00000  Uiso   1.00
C1282  C     0.14645   0.11187   0.72558   0.00000  Uiso   1.00
H1283  H     0.12062   0.06656   0.70556   0.00000  Uiso   1.00
H1284  H     0.07904   0.10908   0.80075   0.00000  Uiso   1.00
H1285  H     0.12223   0.15629   0.79845   0.00000  Uiso   1.00
H1286  H     0.16526   0.11241   0.70458   0.00000  Uiso   1.00
C1287  C     0.59337   0.61416   0.27558   0.00000  Uiso   1.00
C1288  C     0.59160   0.58982   0.24839   0.00000  Uiso   1.00
C1289  C     0.61640   0.59129   0.22150   0.00000  Uiso   1.00
C1290  C     0.64253   0.61664   0.22185   0.00000  Uiso   1.00
C1291  C     0.64346   0.64159   0.24844   0.00000  Uiso   1.00
C1292  C     0.61869   0.64026   0.27524   0.00000  Uiso   1.00
H1293  H     0.57474   0.61326   0.29671   0.00000  Uiso   1.00
H1294  H     0.61547   0.57276   0.20028   0.00000  Uiso   1.00
H1295  H     0.66146   0.61735   0.20098   0.00000  Uiso   1.00
H1296  H     0.61926   0.65920   0.29613   0.00000  Uiso   1.00
C1297  C     0.11053   0.90494   0.28064   0.00000  Uiso   1.00
C1298  C     0.08508   0.90588   0.25440   0.00000  Uiso   1.00
C1299  C     0.08558   0.88018   0.22833   0.00000  Uiso   1.00
C1300  C     0.11119   0.85428   0.22834   0.00000  Uiso   1.00
C1301  C     0.13743   0.85435   0.25368   0.00000  Uiso   1.00
C1302  C     0.13693   0.87984   0.27985   0.00000  Uiso   1.00
H1303  H     0.11048   0.92426   0.30116   0.00000  Uiso   1.00
H1304  H     0.06626   0.88040   0.20780   0.00000  Uiso   1.00
H1305  H     0.11125   0.83495   0.20789   0.00000  Uiso   1.00
H1306  H     0.15694   0.88023   0.29969   0.00000  Uiso   1.00
C1307  C     0.61231   0.39864   0.77497   0.00000  Uiso   1.00
C1308  C     0.58796   0.40057   0.74775   0.00000  Uiso   1.00
C1309  C     0.58976   0.37623   0.72051   0.00000  Uiso   1.00
C1310  C     0.61485   0.34993   0.72096   0.00000  Uiso   1.00
C1311  C     0.63942   0.34840   0.74788   0.00000  Uiso   1.00
C1312  C     0.63823   0.37308   0.77472   0.00000  Uiso   1.00
H1313  H     0.61150   0.41726   0.79611   0.00000  Uiso   1.00
H1314  H     0.57164   0.37761   0.69895   0.00000  Uiso   1.00
H1315  H     0.61578   0.33140   0.69978   0.00000  Uiso   1.00
H1316  H     0.65717   0.37237   0.79560   0.00000  Uiso   1.00
C1317  C     0.90952   0.12082   0.21644   0.00000  Uiso   1.00
C1318  C     0.91172   0.09607   0.24334   0.00000  Uiso   1.00
C1319  C     0.88739   0.09743   0.27062   0.00000  Uiso   1.00
C1320  C     0.86123   0.12277   0.27086   0.00000  Uiso   1.00
C1321  C     0.85966   0.14793   0.24445   0.00000  Uiso   1.00
C1322  C     0.88415   0.14697   0.21738   0.00000  Uiso   1.00
H1323  H     0.92759   0.11996   0.19483   0.00000  Uiso   1.00
H1324  H     0.88848   0.07859   0.29156   0.00000  Uiso   1.00
H1325  H     0.84247   0.12305   0.29190   0.00000  Uiso   1.00
H1326  H     0.88305   0.16590   0.19652   0.00000  Uiso   1.00
C1327  C     0.39241   0.59392   0.78470   0.00000  Uiso   1.00
C1328  C     0.41777   0.59254   0.75840   0.00000  Uiso   1.00
C1329  C     0.41732   0.61766   0.73182   0.00000  Uiso   1.00
C1330  C     0.39179   0.64353   0.73138   0.00000  Uiso   1.00
C1331  C     0.36567   0.64393   0.75684   0.00000  Uiso   1.00
C1332  C     0.36610   0.61902   0.78351   0.00000  Uiso   1.00
H1333  H     0.39246   0.57491   0.80551   0.00000  Uiso   1.00
H1334  H     0.43657   0.61695   0.71124   0.00000  Uiso   1.00
H1335  H     0.39170   0.66251   0.71053   0.00000  Uiso   1.00
H1336  H     0.34617   0.61913   0.80345   0.00000  Uiso   1.00
C1337  C     0.88419   0.90598   0.71985   0.00000  Uiso   1.00
C1338  C     0.90916   0.90878   0.74645   0.00000  Uiso   1.00
C1339  C     0.90850   0.88482   0.77405   0.00000  Uiso   1.00
C1340  C     0.88358   0.85833   0.77485   0.00000  Uiso   1.00
C1341  C     0.85828   0.85604   0.74867   0.00000  Uiso   1.00
C1342  C     0.85850   0.88022   0.72133   0.00000  Uiso   1.00
H1343  H     0.88452   0.92388   0.69809   0.00000  Uiso   1.00
H1344  H     0.92753   0.88647   0.79478   0.00000  Uiso   1.00
H1345  H     0.88369   0.83995   0.79618   0.00000  Uiso   1.00
H1346  H     0.83931   0.87864   0.70075   0.00000  Uiso   1.00
C1347  C     0.40374   0.39092   0.27104   0.00000  Uiso   1.00
C1348  C     0.40352   0.41510   0.24361   0.00000  Uiso   1.00
C1349  C     0.37793   0.41229   0.21762   0.00000  Uiso   1.00
C1350  C     0.35254   0.38629   0.21953   0.00000  Uiso   1.00
C1351  C     0.35322   0.36186   0.24664   0.00000  Uiso   1.00
C1352  C     0.37912   0.36417   0.27223   0.00000  Uiso   1.00
H1353  H     0.42330   0.39256   0.29128   0.00000  Uiso   1.00
H1354  H     0.37761   0.43032   0.19596   0.00000  Uiso   1.00
H1355  H     0.33288   0.38469   0.19939   0.00000  Uiso   1.00
H1356  H     0.37995   0.34557   0.29337   0.00000  Uiso   1.00
loop_
_geom_bond_atom_site_label_1
_geom_bond_atom_site_label_2
_geom_bond_distance
_geom_bond_site_symmetry_2
_ccdc_geom_bond_type
C1     C2      1.469   .     S
C1     N30     1.303   .     D
C1     C26     1.480   .     S
C2     C14     1.311   .     D
C2     H3      1.082   .     S
C4     C5      1.468   .     S
C4     N31     1.303   .     D
C4     C27     1.480   .     S
C5     C17     1.312   .     D
C5     H6      1.082   .     S
C7     C8      1.459   .     S
C7     N32     1.430   .     S
C7     C27     1.342   .     D
C8     C20     1.310   .     D
C8     H9      1.081   .     S
C10    C11     1.459   .     S
C10    N33     1.431   .     S
C10    C26     1.344   .     D
C11    C23     1.311   .     D
C11    H12     1.081   .     S
C13    C14     1.459   .     S
C13    N30     1.428   .     S
C13    C28     1.341   .     D
C14    H15     1.082   .     S
C16    C17     1.460   .     S
C16    N31     1.428   .     S
C16    C29     1.342   .     D
C17    H18     1.082   .     S
C19    C20     1.468   .     S
C19    N32     1.304   .     D
C19    C28     1.480   .     S
C20    H21     1.081   .     S
C22    C23     1.468   .     S
C22    N33     1.304   .     D
C22    C29     1.482   .     S
C23    H24     1.081   .     S
Fe25   N30     2.010   .     S
Fe25   N31     2.010   .     S
Fe25   N32     2.013   .     S
Fe25   N33     2.013   .     S
C26    C878    1.495   1_565 S
C27    C938    1.494   1_554 S
C28    C1198   1.491   1_564 S
C29    C1258   1.493   .     S
C34    C35     1.468   .     S
C34    N63     1.304   .     D
C34    C59     1.482   .     S
C35    H36     1.082   .     S
C35    C47     1.311   .     D
C37    C38     1.468   .     S
C37    N64     1.305   .     D
C37    C60     1.483   .     S
C38    C50     1.312   .     D
C38    H39     1.082   .     S
C40    C41     1.460   .     S
C40    C60     1.345   .     D
C40    N65     1.432   .     S
C41    H42     1.081   .     S
C41    C53     1.311   .     D
C43    C44     1.459   .     S
C43    N66     1.432   .     S
C43    C59     1.345   .     D
C44    C56     1.311   .     D
C44    H45     1.081   .     S
C46    C47     1.459   .     S
C46    C61     1.343   .     D
C46    N63     1.430   .     S
C47    H48     1.082   .     S
C49    C50     1.459   .     S
C49    N64     1.431   .     S
C49    C62     1.344   .     D
C50    H51     1.082   .     S
C52    C53     1.468   .     S
C52    N65     1.305   .     D
C52    C61     1.483   .     S
C53    H54     1.081   .     S
C55    C56     1.469   .     S
C55    N66     1.305   .     D
C55    C62     1.484   .     S
C56    H57     1.081   .     S
Fe58   N63     2.012   .     S
Fe58   N64     2.013   .     S
Fe58   N65     2.015   .     S
Fe58   N66     2.015   .     S
C59    C888    1.499   .     S
C60    C948    1.500   .     S
C61    C1208   1.497   .     S
C62    C1268   1.498   .     S
C67    C68     1.459   .     S
C67    N96     1.432   .     S
C67    C92     1.345   .     D
C68    H69     1.081   .     S
C68    C80     1.311   .     D
C70    C71     1.460   .     S
C70    C93     1.345   .     D
C70    N97     1.431   .     S
C71    H72     1.081   .     S
C71    C83     1.311   .     D
C73    C74     1.468   .     S
C73    C93     1.483   .     S
C73    N98     1.305   .     D
C74    H75     1.082   .     S
C74    C86     1.312   .     D
C76    C77     1.468   .     S
C76    N99     1.304   .     D
C76    C92     1.482   .     S
C77    C89     1.312   .     D
C77    H78     1.082   .     S
C79    C80     1.468   .     S
C79    C94     1.484   .     S
C79    N96     1.305   .     D
C80    H81     1.081   .     S
C82    C83     1.468   .     S
C82    C95     1.483   .     S
C82    N97     1.305   .     D
C83    H84     1.081   .     S
C85    C86     1.459   .     S
C85    N98     1.430   .     S
C85    C94     1.344   .     D
C86    H87     1.082   .     S
C88    C89     1.459   .     S
C88    N99     1.430   .     S
C88    C95     1.343   .     D
C89    H90     1.082   .     S
Fe91   N96     2.015   .     S
Fe91   N97     2.015   .     S
Fe91   N98     2.013   .     S
Fe91   N99     2.013   .     S
C92    C898    1.499   1_556 S
C93    C918    1.499   1_565 S
C94    C1218   1.498   1_566 S
C95    C1238   1.497   .     S
C100   C101    1.459   .     S
C100   N129    1.431   .     S
C100   C125    1.344   .     D
C101   H102    1.081   .     S
C101   C113    1.311   .     D
C103   C104    1.460   .     S
C103   C126    1.343   .     D
C103   N130    1.430   .     S
C104   H105    1.081   .     S
C104   C116    1.310   .     D
C106   C107    1.468   .     S
C106   C126    1.482   .     S
C106   N131    1.304   .     D
C107   H108    1.082   .     S
C107   C119    1.312   .     D
C109   C110    1.469   .     S
C109   N132    1.303   .     D
C109   C125    1.480   .     S
C110   C122    1.311   .     D
C110   H111    1.082   .     S
C112   C113    1.469   .     S
C112   C127    1.484   .     S
C112   N129    1.305   .     D
C113   H114    1.081   .     S
C115   C116    1.468   .     S
C115   C128    1.481   .     S
C115   N130    1.304   .     D
C116   H117    1.081   .     S
C118   C119    1.460   .     S
C118   N131    1.430   .     S
C118   C127    1.344   .     D
C119   H120    1.082   .     S
C121   C122    1.459   .     S
C121   N132    1.429   .     S
C121   C128    1.342   .     D
C122   H123    1.082   .     S
Fe124  N129    2.014   .     S
Fe124  N130    2.014   .     S
Fe124  N131    2.012   .     S
Fe124  N132    2.012   .     S
C125   C908    1.495   .     S
C126   C928    1.496   .     S
C127   C1228   1.497   .     S
C128   C1248   1.494   .     S
C133   C134    1.459   .     S
C133   N162    1.427   .     S
C133   C158    1.342   .     D
C134   H135    1.082   .     S
C134   C146    1.312   .     D
C136   C137    1.459   .     S
C136   C159    1.341   .     D
C136   N163    1.427   .     S
C137   H138    1.082   .     S
C137   C149    1.312   .     D
C139   C140    1.469   .     S
C139   C159    1.479   .     S
C139   N164    1.301   .     D
C140   H141    1.082   .     S
C140   C152    1.312   .     D
C142   C143    1.469   .     S
C142   N165    1.302   .     D
C142   C158    1.480   .     S
C143   C155    1.312   .     D
C143   H144    1.081   .     S
C145   C146    1.469   .     S
C145   C160    1.480   .     S
C145   N162    1.302   .     D
C146   H147    1.082   .     S
C148   C149    1.469   .     S
C148   C161    1.479   .     S
C148   N163    1.301   .     D
C149   H150    1.082   .     S
C151   C152    1.460   .     S
C151   N164    1.426   .     S
C151   C160    1.341   .     D
C152   H153    1.082   .     S
C154   C155    1.459   .     S
C154   N165    1.427   .     S
C154   C161    1.341   .     D
C155   H156    1.082   .     S
Fe157  N162    2.007   .     S
Fe157  N163    2.007   .     S
Fe157  N164    2.006   .     S
Fe157  N165    2.007   .     S
C158   C958    1.490   1_655 S
C159   C1018   1.489   1_554 S
C160   C1118   1.489   1_654 S
C161   C1178   1.488   .     S
C166   C167    1.460   .     S
C166   N195    1.426   .     S
C166   C191    1.342   .     D
C167   H168    1.082   .     S
C167   C179    1.312   .     D
C169   C170    1.459   .     S
C169   C192    1.340   .     D
C169   N196    1.426   .     S
C170   H171    1.082   .     S
C170   C182    1.311   .     D
C172   C173    1.469   .     S
C172   C192    1.479   .     S
C172   N197    1.302   .     D
C173   H174    1.082   .     S
C173   C185    1.312   .     D
C175   C176    1.469   .     S
C175   N198    1.302   .     D
C175   C191    1.481   .     S
C176   C188    1.313   .     D
C176   H177    1.082   .     S
C178   C179    1.469   .     S
C178   C193    1.480   .     S
C178   N195    1.302   .     D
C179   H180    1.082   .     S
C181   C182    1.469   .     S
C181   C194    1.479   .     S
C181   N196    1.302   .     D
C182   H183    1.082   .     S
C184   C185    1.459   .     S
C184   N197    1.428   .     S
C184   C193    1.341   .     D
C185   H186    1.082   .     S
C187   C188    1.459   .     S
C187   N198    1.429   .     S
C187   C194    1.342   .     D
C188   H189    1.082   .     S
Fe190  N195    2.007   .     S
Fe190  N196    2.006   .     S
Fe190  N197    2.008   .     S
Fe190  N198    2.008   .     S
C191   C968    1.490   .     S
C192   C1028   1.487   .     S
C193   C1128   1.492   .     S
C194   C1188   1.492   .     S
C199   C200    1.459   .     S
C199   N228    1.427   .     S
C199   C224    1.342   .     D
C200   H201    1.082   .     S
C200   C212    1.312   .     D
C202   C203    1.459   .     S
C202   C225    1.343   .     D
C202   N229    1.429   .     S
C203   H204    1.082   .     S
C203   C215    1.313   .     D
C205   C206    1.469   .     S
C205   C225    1.481   .     S
C205   N230    1.303   .     D
C206   H207    1.082   .     S
C206   C218    1.312   .     D
C208   C209    1.469   .     S
C208   N231    1.303   .     D
C208   C224    1.482   .     S
C209   C221    1.312   .     D
C209   H210    1.081   .     S
C211   C212    1.469   .     S
C211   C226    1.479   .     S
C211   N228    1.301   .     D
C212   H213    1.082   .     S
C214   C215    1.469   .     S
C214   C227    1.481   .     S
C214   N229    1.302   .     D
C215   H216    1.082   .     S
C217   C218    1.459   .     S
C217   N230    1.427   .     S
C217   C226    1.341   .     D
C218   H219    1.082   .     S
C220   C221    1.459   .     S
C220   N231    1.427   .     S
C220   C227    1.342   .     D
C221   H222    1.082   .     S
Fe223  N228    2.006   .     S
Fe223  N229    2.007   .     S
Fe223  N230    2.008   .     S
Fe223  N231    2.008   .     S
C224   C978    1.494   1_554 S
C225   C998    1.494   1_455 S
C226   C1138   1.489   1_454 S
C227   C1158   1.490   .     S
C232   C233    1.459   .     S
C232   N261    1.427   .     S
C232   C257    1.341   .     D
C233   H234    1.082   .     S
C233   C245    1.312   .     D
C235   C236    1.459   .     S
C235   C258    1.341   .     D
C235   N262    1.427   .     S
C236   H237    1.082   .     S
C236   C248    1.312   .     D
C238   C239    1.469   .     S
C238   C258    1.481   .     S
C238   N263    1.302   .     D
C239   H240    1.082   .     S
C239   C251    1.312   .     D
C241   C242    1.469   .     S
C241   N264    1.302   .     D
C241   C257    1.479   .     S
C242   C254    1.311   .     D
C242   H243    1.081   .     S
C244   C245    1.469   .     S
C244   C259    1.480   .     S
C244   N261    1.301   .     D
C245   H246    1.082   .     S
C247   C248    1.469   .     S
C247   C260    1.480   .     S
C247   N262    1.301   .     D
C248   H249    1.082   .     S
C250   C251    1.459   .     S
C250   N263    1.427   .     S
C250   C259    1.342   .     D
C251   H252    1.082   .     S
C253   C254    1.459   .     S
C253   N264    1.426   .     S
C253   C260    1.340   .     D
C254   H255    1.082   .     S
Fe256  N261    2.006   .     S
Fe256  N262    2.006   .     S
Fe256  N263    2.008   .     S
Fe256  N264    2.008   .     S
C257   C988    1.489   .     S
C258   C1008   1.491   .     S
C259   C1148   1.489   .     S
C260   C1168   1.488   .     S
C265   C266    1.459   .     S
C265   N294    1.427   .     S
C265   C290    1.340   .     D
C266   H267    1.082   .     S
C266   C278    1.311   .     D
C268   C269    1.459   .     S
C268   C291    1.341   .     D
C268   N295    1.428   .     S
C269   C281    1.312   .     D
C269   H270    1.082   .     S
C271   C272    1.469   .     S
C271   C291    1.480   .     S
C271   N296    1.301   .     D
C272   C284    1.311   .     D
C272   H273    1.082   .     S
C274   C275    1.469   .     S
C274   N297    1.302   .     D
C274   C290    1.480   .     S
C275   C287    1.311   .     D
C275   H276    1.081   .     S
C277   C278    1.469   .     S
C277   C292    1.482   .     S
C277   N294    1.304   .     D
C278   H279    1.081   .     S
C280   C281    1.469   .     S
C280   C293    1.480   .     S
C280   N295    1.303   .     D
C281   H282    1.082   .     S
C283   C284    1.459   .     S
C283   N296    1.429   .     S
C283   C292    1.341   .     D
C284   H285    1.082   .     S
C286   C287    1.459   .     S
C286   N297    1.431   .     S
C286   C293    1.342   .     D
C287   H288    1.081   .     S
Fe289  N294    2.011   .     S
Fe289  N295    2.010   .     S
Fe289  N296    2.009   .     S
Fe289  N297    2.011   .     S
C290   C1038   1.487   1_655 S
C291   C1098   1.489   1_545 S
C292   C1298   1.494   1_645 S
C293   C1318   1.495   .     S
C298   C299    1.459   .     S
C298   N327    1.427   .     S
C298   C323    1.341   .     D
C299   C311    1.312   .     D
C299   H300    1.082   .     S
C301   C302    1.459   .     S
C301   C324    1.339   .     D
C301   N328    1.427   .     S
C302   H303    1.082   .     S
C302   C314    1.310   .     D
C304   C305    1.469   .     S
C304   C324    1.479   .     S
C304   N329    1.302   .     D
C305   H306    1.081   .     S
C305   C317    1.311   .     D
C307   C308    1.470   .     S
C307   N330    1.301   .     D
C307   C323    1.479   .     S
C308   C320    1.312   .     D
C308   H309    1.082   .     S
C310   C311    1.469   .     S
C310   C325    1.479   .     S
C310   N327    1.302   .     D
C311   H312    1.082   .     S
C313   C314    1.470   .     S
C313   C326    1.479   .     S
C313   N328    1.302   .     D
C314   H315    1.081   .     S
C316   C317    1.459   .     S
C316   N329    1.428   .     S
C316   C325    1.341   .     D
C317   H318    1.082   .     S
C319   C320    1.459   .     S
C319   N330    1.427   .     S
C319   C326    1.339   .     D
C320   H321    1.082   .     S
Fe322  N327    2.009   .     S
Fe322  N328    2.009   .     S
Fe322  N329    2.009   .     S
Fe322  N330    2.007   .     S
C323   C1048   1.488   .     S
C324   C1108   1.486   .     S
C325   C1308   1.490   .     S
C326   C1328   1.488   .     S
C331   C332    1.458   .     S
C331   N360    1.428   .     S
C331   C356    1.340   .     D
C332   C344    1.310   .     D
C332   H333    1.082   .     S
C334   C335    1.460   .     S
C334   C357    1.342   .     D
C334   N361    1.428   .     S
C335   C347    1.311   .     D
C335   H336    1.082   .     S
C337   C338    1.469   .     S
C337   C357    1.481   .     S
C337   N362    1.303   .     D
C338   C350    1.312   .     D
C338   H339    1.081   .     S
C340   C341    1.468   .     S
C340   N363    1.302   .     D
C340   C356    1.479   .     S
C341   C353    1.311   .     D
C341   H342    1.081   .     S
C343   C344    1.470   .     S
C343   C358    1.480   .     S
C343   N360    1.303   .     D
C344   H345    1.081   .     S
C346   C347    1.468   .     S
C346   C359    1.479   .     S
C346   N361    1.302   .     D
C347   H348    1.082   .     S
C349   C350    1.459   .     S
C349   N362    1.428   .     S
C349   C358    1.341   .     D
C350   H351    1.082   .     S
C352   C353    1.460   .     S
C352   N363    1.429   .     S
C352   C359    1.341   .     D
C353   H354    1.082   .     S
Fe355  N360    2.010   .     S
Fe355  N361    2.009   .     S
Fe355  N362    2.010   .     S
Fe355  N363    2.011   .     S
C356   C1058   1.488   1_565 S
C357   C1078   1.492   1_655 S
C358   C1278   1.490   1_665 S
C359   C1338   1.490   .     S
C364   C365    1.459   .     S
C364   C389    1.342   .     D
C364   N393    1.430   .     S
C365   H366    1.082   .     S
C365   C377    1.311   .     D
C367   C368    1.459   .     S
C367   C390    1.342   .     D
C367   N394    1.429   .     S
C368   C380    1.311   .     D
C368   H369    1.082   .     S
C370   C371    1.469   .     S
C370   C390    1.481   .     S
C370   N395    1.304   .     D
C371   C383    1.311   .     D
C371   H372    1.081   .     S
C373   C374    1.469   .     S
C373   N396    1.304   .     D
C373   C389    1.481   .     S
C374   C386    1.311   .     D
C374   H375    1.081   .     S
C376   C377    1.469   .     S
C376   C391    1.482   .     S
C376   N393    1.303   .     D
C377   H378    1.081   .     S
C379   C380    1.469   .     S
C379   C392    1.479   .     S
C379   N394    1.301   .     D
C380   H381    1.082   .     S
C382   C383    1.459   .     S
C382   N395    1.427   .     S
C382   C391    1.341   .     D
C383   H384    1.082   .     S
C385   C386    1.459   .     S
C385   N396    1.429   .     S
C385   C392    1.342   .     D
C386   H387    1.082   .     S
Fe388  N393    2.011   .     S
Fe388  N394    2.009   .     S
Fe388  N395    2.010   .     S
Fe388  N396    2.012   .     S
C389   C1068   1.493   .     S
C390   C1088   1.495   .     S
C391   C1288   1.490   .     S
C392   C1348   1.490   .     S
O397   Zr421   2.106   .     S
O397   C435    1.295   .     A
O398   Zr421   2.116   .     S
O398   H453    0.990   .     S
O399   Zr423   2.096   .     S
O399   C436    1.290   .     A
O400   Zr423   2.120   .     S
O400   H446    0.989   .     S
O401   Zr425   2.112   .     S
O401   C437    1.292   .     A
O402   Zr425   2.122   .     S
O402   H452    0.990   .     S
O403   Zr427   2.100   .     S
O403   C438    1.293   .     A
O404   Zr427   2.119   .     S
O404   H445    0.990   .     S
O405   Zr429   2.116   .     S
O405   C439    1.295   .     A
O406   Zr429   2.116   .     S
O406   H454    0.993   .     S
O407   Zr431   2.101   .     S
O407   C440    1.288   .     A
O408   Zr431   2.118   .     S
O408   H451    0.990   .     S
O409   Zr431   2.110   .     S
O409   C438    1.295   .     A
O410   Zr431   2.114   .     S
O410   H456    0.991   .     S
O411   Zr429   2.127   .     S
O411   C440    1.293   .     A
O412   Zr429   2.122   .     S
O412   H447    0.990   .     S
O413   Zr427   2.106   .     S
O413   C439    1.292   .     A
O414   Zr427   2.123   .     S
O414   H449    0.992   .     S
O415   Zr425   2.115   .     S
O415   C435    1.295   .     A
O416   Zr425   2.113   .     S
O416   H448    0.990   .     S
O417   Zr423   2.104   .     S
O417   C437    1.292   .     A
O418   Zr423   2.117   .     S
O418   H455    0.988   .     S
O419   Zr421   2.130   .     S
O419   C436    1.296   .     A
O420   Zr421   2.132   .     S
O420   H450    0.992   .     S
Zr421  O422    2.087   .     S
Zr421  O433    2.061   .     S
Zr421  O428    2.130   .     S
Zr421  O430    2.094   .     S
Zr421  Zr423   3.110   .     S
Zr421  Zr425   3.075   .     S
Zr421  Zr429   3.184   .     S
O422   Zr427   2.121   .     S
O422   Zr429   2.073   .     S
O422   H441    0.991   .     S
Zr423  O424    2.109   .     S
Zr423  O433    2.048   .     S
Zr423  O432    2.115   .     S
Zr423  O428    2.110   .     S
Zr423  Zr425   3.097   .     S
O424   Zr431   2.105   .     S
O424   Zr427   2.116   .     S
O424   H444    0.989   .     S
Zr425  O426    2.131   .     S
Zr425  O433    2.057   .     S
Zr425  O430    2.129   .     S
Zr425  O432    2.129   .     S
O426   Zr429   2.111   .     S
O426   Zr431   2.106   .     S
O426   H442    0.990   .     S
Zr427  O428    2.137   .     S
Zr427  O434    2.078   .     S
Zr427  Zr429   3.073   .     S
Zr427  Zr431   3.083   .     S
Zr429  O430    2.092   .     S
Zr429  O434    2.064   .     S
Zr429  Zr431   3.106   .     S
Zr431  O432    2.126   .     S
Zr431  O434    2.060   .     S
O433   H443    0.993   .     S
C435   C961    1.468   .     S
C436   C881    1.474   .     S
C437   C1041   1.465   .     S
C438   C1151   1.470   .     S
C439   C1351   1.470   .     S
C440   C1251   1.473   .     S
O457   Zr481   2.116   .     S
O457   C495    1.297   .     A
O458   Zr481   2.116   .     S
O458   H513    0.991   .     S
O459   Zr483   2.098   .     S
O459   C496    1.291   .     A
O460   Zr483   2.119   .     S
O460   H506    0.989   .     S
O461   Zr485   2.115   .     S
O461   C497    1.293   .     A
O462   Zr485   2.123   .     S
O462   H512    0.990   .     S
O463   Zr487   2.097   .     S
O463   C498    1.293   .     A
O464   Zr487   2.118   .     S
O464   H505    0.990   .     S
O465   Zr489   2.120   .     S
O465   C499    1.296   .     A
O466   Zr489   2.115   .     S
O466   H514    0.993   .     S
O467   Zr491   2.106   .     S
O467   C500    1.289   .     A
O468   Zr491   2.114   .     S
O468   H511    0.990   .     S
O469   Zr491   2.116   .     S
O469   C498    1.296   .     A
O470   Zr491   2.116   .     S
O470   H516    0.993   .     S
O471   Zr489   2.127   .     S
O471   C500    1.293   .     A
O472   Zr489   2.122   .     S
O472   H507    0.990   .     S
O473   Zr487   2.106   .     S
O473   C499    1.292   .     A
O474   Zr487   2.123   .     S
O474   H509    0.992   .     S
O475   Zr485   2.108   .     S
O475   C495    1.294   .     A
O476   Zr485   2.113   .     S
O476   H508    0.990   .     S
O477   Zr483   2.102   .     S
O477   C497    1.292   .     A
O478   Zr483   2.118   .     S
O478   H515    0.989   .     S
O479   Zr481   2.133   .     S
O479   C496    1.296   .     A
O480   Zr481   2.134   .     S
O480   H510    0.993   .     S
Zr481  O482    2.088   .     S
Zr481  O493    2.062   .     S
Zr481  O488    2.132   .     S
Zr481  O490    2.093   .     S
Zr481  Zr483   3.114   .     S
Zr481  Zr485   3.077   .     S
Zr481  Zr489   3.185   .     S
O482   Zr487   2.121   .     S
O482   Zr489   2.071   .     S
O482   H501    0.991   .     S
Zr483  O484    2.110   .     S
Zr483  O493    2.046   .     S
Zr483  O492    2.116   .     S
Zr483  O488    2.110   .     S
Zr483  Zr485   3.093   .     S
O484   Zr491   2.107   .     S
O484   Zr487   2.116   .     S
O484   H504    0.989   .     S
Zr485  O486    2.134   .     S
Zr485  O493    2.056   .     S
Zr485  O490    2.132   .     S
Zr485  O492    2.126   .     S
O486   Zr489   2.114   .     S
O486   Zr491   2.105   .     S
O486   H502    0.990   .     S
Zr487  O488    2.136   .     S
Zr487  O494    2.080   .     S
Zr487  Zr489   3.069   .     S
Zr487  Zr491   3.086   .     S
Zr489  O490    2.095   .     S
Zr489  O494    2.060   .     S
Zr489  Zr491   3.108   .     S
Zr491  O492    2.127   .     S
Zr491  O494    2.063   .     S
O493   H503    0.993   .     S
C495   C1291   1.469   .     S
C496   C1211   1.477   .     S
C497   C1131   1.471   .     S
C498   C1101   1.469   .     S
C499   C1001   1.476   .     S
C500   C901    1.478   .     S
O517   Zr541   2.108   .     S
O517   C555    1.295   .     A
O518   Zr541   2.116   .     S
O518   H573    0.991   .     S
O519   Zr543   2.101   .     S
O519   C556    1.291   .     A
O520   Zr543   2.120   .     S
O520   H566    0.989   .     S
O521   Zr545   2.108   .     S
O521   C557    1.292   .     A
O522   Zr545   2.121   .     S
O522   H572    0.990   .     S
O523   Zr547   2.102   .     S
O523   C558    1.294   .     A
O524   Zr547   2.119   .     S
O524   H565    0.990   .     S
O525   Zr549   2.112   .     S
O525   C559    1.294   .     A
O526   Zr549   2.116   .     S
O526   H574    0.992   .     S
O527   Zr551   2.106   .     S
O527   C560    1.289   .     A
O528   Zr551   2.120   .     S
O528   H571    0.990   .     S
O529   Zr551   2.111   .     S
O529   C558    1.295   .     A
O530   Zr551   2.114   .     S
O530   H576    0.990   .     S
O531   Zr549   2.127   .     S
O531   C560    1.293   .     A
O532   Zr549   2.122   .     S
O532   H567    0.990   .     S
O533   Zr547   2.107   .     S
O533   C559    1.293   .     A
O534   Zr547   2.124   .     S
O534   H569    0.992   .     S
O535   Zr545   2.112   .     S
O535   C555    1.295   .     A
O536   Zr545   2.113   .     S
O536   H568    0.989   .     S
O537   Zr543   2.106   .     S
O537   C557    1.293   .     A
O538   Zr543   2.117   .     S
O538   H575    0.988   .     S
O539   Zr541   2.133   .     S
O539   C556    1.296   .     A
O540   Zr541   2.132   .     S
O540   H570    0.992   .     S
Zr541  O542    2.087   .     S
Zr541  O553    2.061   .     S
Zr541  O548    2.131   .     S
Zr541  O550    2.095   .     S
Zr541  Zr543   3.115   .     S
Zr541  Zr545   3.072   .     S
Zr541  Zr549   3.184   .     S
O542   Zr547   2.120   .     S
O542   Zr549   2.072   .     S
O542   H561    0.991   .     S
Zr543  O544    2.109   .     S
Zr543  O553    2.048   .     S
Zr543  O552    2.115   .     S
Zr543  O548    2.109   .     S
Zr543  Zr545   3.093   .     S
O544   Zr551   2.108   .     S
O544   Zr547   2.115   .     S
O544   H564    0.989   .     S
Zr545  O546    2.133   .     S
Zr545  O553    2.056   .     S
Zr545  O550    2.129   .     S
Zr545  O552    2.129   .     S
O546   Zr549   2.111   .     S
O546   Zr551   2.107   .     S
O546   H562    0.989   .     S
Zr547  O548    2.134   .     S
Zr547  O554    2.079   .     S
Zr547  Zr549   3.077   .     S
Zr547  Zr551   3.088   .     S
Zr549  O550    2.093   .     S
Zr549  O554    2.063   .     S
Zr549  Zr551   3.098   .     S
Zr551  O552    2.128   .     S
Zr551  O554    2.058   .     S
O553   H563    0.993   .     S
C555   C1311   1.469   .     S
C556   C1271   1.477   .     S
C557   C1171   1.466   .     S
C558   C1061   1.467   .     S
C559   C1021   1.467   .     S
C560   C921    1.478   .     S
O577   Zr601   2.111   .     S
O577   C615    1.295   .     A
O578   Zr601   2.116   .     S
O578   H633    0.991   .     S
O579   Zr603   2.092   .     S
O579   C616    1.289   .     A
O580   Zr603   2.119   .     S
O580   H626    0.989   .     S
O581   Zr605   2.115   .     S
O581   C617    1.293   .     A
O582   Zr605   2.124   .     S
O582   H632    0.990   .     S
O583   Zr607   2.101   .     S
O583   C618    1.294   .     A
O584   Zr607   2.118   .     S
O584   H625    0.990   .     S
O585   Zr609   2.119   .     S
O585   C619    1.296   .     A
O586   Zr609   2.115   .     S
O586   H634    0.992   .     S
O587   Zr611   2.104   .     S
O587   C620    1.288   .     A
O588   Zr611   2.114   .     S
O588   H631    0.990   .     S
O589   Zr611   2.119   .     S
O589   C618    1.297   .     A
O590   Zr611   2.116   .     S
O590   H636    0.993   .     S
O591   Zr609   2.120   .     S
O591   C620    1.292   .     A
O592   Zr609   2.122   .     S
O592   H627    0.989   .     S
O593   Zr607   2.103   .     S
O593   C619    1.291   .     A
O594   Zr607   2.123   .     S
O594   H629    0.992   .     S
O595   Zr605   2.120   .     S
O595   C615    1.297   .     A
O596   Zr605   2.113   .     S
O596   H628    0.990   .     S
O597   Zr603   2.099   .     S
O597   C617    1.291   .     A
O598   Zr603   2.118   .     S
O598   H635    0.989   .     S
O599   Zr601   2.132   .     S
O599   C616    1.296   .     A
O600   Zr601   2.133   .     S
O600   H630    0.992   .     S
Zr601  O602    2.089   .     S
Zr601  O613    2.063   .     S
Zr601  O608    2.133   .     S
Zr601  O610    2.094   .     S
Zr601  Zr603   3.114   .     S
Zr601  Zr605   3.073   .     S
Zr601  Zr609   3.184   .     S
O602   Zr607   2.120   .     S
O602   Zr609   2.070   .     S
O602   H621    0.991   .     S
Zr603  O604    2.106   .     S
Zr603  O613    2.051   .     S
Zr603  O612    2.113   .     S
Zr603  O608    2.108   .     S
Zr603  Zr605   3.097   .     S
O604   Zr611   2.105   .     S
O604   Zr607   2.115   .     S
O604   H624    0.989   .     S
Zr605  O606    2.136   .     S
Zr605  O613    2.054   .     S
Zr605  O610    2.131   .     S
Zr605  O612    2.130   .     S
O606   Zr609   2.114   .     S
O606   Zr611   2.107   .     S
O606   H622    0.990   .     S
Zr607  O608    2.134   .     S
Zr607  O614    2.080   .     S
Zr607  Zr609   3.070   .     S
Zr607  Zr611   3.089   .     S
Zr609  O610    2.096   .     S
Zr609  O614    2.058   .     S
Zr609  Zr611   3.105   .     S
Zr611  O612    2.125   .     S
Zr611  O614    2.062   .     S
O613   H623    0.993   .     S
C615   C1231   1.478   .     S
C616   C1191   1.472   .     S
C617   C1331   1.467   .     S
C618   C941    1.473   .     S
C619   C1081   1.471   .     S
C620   C981    1.472   .     S
O637   Zr661   2.110   .     S
O637   C675    1.296   .     A
O638   Zr661   2.116   .     S
O638   H693    0.991   .     S
O639   Zr663   2.094   .     S
O639   C676    1.289   .     A
O640   Zr663   2.120   .     S
O640   H686    0.989   .     S
O641   Zr665   2.108   .     S
O641   C677    1.291   .     A
O642   Zr665   2.122   .     S
O642   H692    0.990   .     S
O643   Zr667   2.098   .     S
O643   C678    1.293   .     A
O644   Zr667   2.119   .     S
O644   H685    0.990   .     S
O645   Zr669   2.117   .     S
O645   C679    1.295   .     A
O646   Zr669   2.116   .     S
O646   H694    0.993   .     S
O647   Zr671   2.099   .     S
O647   C680    1.288   .     A
O648   Zr671   2.120   .     S
O648   H691    0.990   .     S
O649   Zr671   2.112   .     S
O649   C678    1.296   .     A
O650   Zr671   2.114   .     S
O650   H696    0.990   .     S
O651   Zr669   2.125   .     S
O651   C680    1.293   .     A
O652   Zr669   2.122   .     S
O652   H687    0.990   .     S
O653   Zr667   2.106   .     S
O653   C679    1.293   .     A
O654   Zr667   2.124   .     S
O654   H689    0.992   .     S
O655   Zr665   2.111   .     S
O655   C675    1.296   .     A
O656   Zr665   2.113   .     S
O656   H688    0.990   .     S
O657   Zr663   2.104   .     S
O657   C677    1.292   .     A
O658   Zr663   2.117   .     S
O658   H695    0.988   .     S
O659   Zr661   2.133   .     S
O659   C676    1.296   .     A
O660   Zr661   2.133   .     S
O660   H690    0.992   .     S
Zr661  O662    2.088   .     S
Zr661  O673    2.061   .     S
Zr661  O668    2.130   .     S
Zr661  O670    2.094   .     S
Zr661  Zr663   3.113   .     S
Zr661  Zr665   3.075   .     S
Zr661  Zr669   3.181   .     S
O662   Zr667   2.121   .     S
O662   Zr669   2.071   .     S
O662   H681    0.991   .     S
Zr663  O664    2.110   .     S
Zr663  O673    2.049   .     S
Zr663  O672    2.116   .     S
Zr663  O668    2.110   .     S
Zr663  Zr665   3.092   .     S
O664   Zr671   2.106   .     S
O664   Zr667   2.114   .     S
O664   H684    0.989   .     S
Zr665  O666    2.130   .     S
Zr665  O673    2.057   .     S
Zr665  O670    2.130   .     S
Zr665  O672    2.127   .     S
O666   Zr669   2.112   .     S
O666   Zr671   2.106   .     S
O666   H682    0.989   .     S
Zr667  O668    2.135   .     S
Zr667  O674    2.078   .     S
Zr667  Zr669   3.074   .     S
Zr667  Zr671   3.085   .     S
Zr669  O670    2.092   .     S
Zr669  O674    2.064   .     S
Zr669  Zr671   3.104   .     S
Zr671  O672    2.127   .     S
Zr671  O674    2.056   .     S
O673   H683    0.993   .     S
C675   C1011   1.473   .     S
C676   C911    1.474   .     S
C677   C1111   1.464   .     S
C678   C1121   1.468   .     S
C679   C1281   1.469   .     S
C680   C1201   1.472   .     S
O697   Zr721   2.109   .     S
O697   C735    1.295   .     A
O698   Zr721   2.116   .     S
O698   H753    0.990   .     S
O699   Zr723   2.102   .     S
O699   C736    1.291   .     A
O700   Zr723   2.119   .     S
O700   H746    0.989   .     S
O701   Zr725   2.111   .     S
O701   C737    1.293   .     A
O702   Zr725   2.122   .     S
O702   H752    0.990   .     S
O703   Zr727   2.100   .     S
O703   C738    1.293   .     A
O704   Zr727   2.119   .     S
O704   H745    0.990   .     S
O705   Zr729   2.118   .     S
O705   C739    1.295   .     A
O706   Zr729   2.116   .     S
O706   H754    0.993   .     S
O707   Zr731   2.103   .     S
O707   C740    1.288   .     A
O708   Zr731   2.118   .     S
O708   H751    0.990   .     S
O709   Zr731   2.110   .     S
O709   C738    1.295   .     A
O710   Zr731   2.114   .     S
O710   H756    0.991   .     S
O711   Zr729   2.129   .     S
O711   C740    1.294   .     A
O712   Zr729   2.122   .     S
O712   H747    0.990   .     S
O713   Zr727   2.105   .     S
O713   C739    1.292   .     A
O714   Zr727   2.123   .     S
O714   H749    0.992   .     S
O715   Zr725   2.109   .     S
O715   C735    1.294   .     A
O716   Zr725   2.113   .     S
O716   H748    0.990   .     S
O717   Zr723   2.104   .     S
O717   C737    1.292   .     A
O718   Zr723   2.117   .     S
O718   H755    0.988   .     S
O719   Zr721   2.131   .     S
O719   C736    1.296   .     A
O720   Zr721   2.132   .     S
O720   H750    0.992   .     S
Zr721  O722    2.087   .     S
Zr721  O733    2.061   .     S
Zr721  O728    2.131   .     S
Zr721  O730    2.094   .     S
Zr721  Zr723   3.111   .     S
Zr721  Zr725   3.073   .     S
Zr721  Zr729   3.186   .     S
O722   Zr727   2.121   .     S
O722   Zr729   2.073   .     S
O722   H741    0.991   .     S
Zr723  O724    2.109   .     S
Zr723  O733    2.050   .     S
Zr723  O732    2.115   .     S
Zr723  O728    2.110   .     S
Zr723  Zr725   3.096   .     S
O724   Zr731   2.106   .     S
O724   Zr727   2.116   .     S
O724   H744    0.989   .     S
Zr725  O726    2.131   .     S
Zr725  O733    2.057   .     S
Zr725  O730    2.129   .     S
Zr725  O732    2.129   .     S
O726   Zr729   2.112   .     S
O726   Zr731   2.105   .     S
O726   H742    0.990   .     S
Zr727  O728    2.137   .     S
Zr727  O734    2.078   .     S
Zr727  Zr729   3.073   .     S
Zr727  Zr731   3.083   .     S
Zr729  O730    2.092   .     S
Zr729  O734    2.064   .     S
Zr729  Zr731   3.106   .     S
Zr731  O732    2.125   .     S
Zr731  O734    2.060   .     S
O733   H743    0.993   .     S
C735   C971    1.467   .     S
C736   C891    1.478   .     S
C737   C1051   1.468   .     S
C738   C1141   1.469   .     S
C739   C1341   1.470   .     S
C740   C1241   1.477   .     S
O757   Zr781   2.115   .     S
O757   C795    1.297   .     A
O758   Zr781   2.116   .     S
O758   H813    0.990   .     S
O759   Zr783   2.104   .     S
O759   C796    1.291   .     A
O760   Zr783   2.114   .     S
O760   H806    0.989   .     S
O761   Zr785   2.105   .     S
O761   C797    1.291   .     A
O762   Zr785   2.122   .     S
O762   H812    0.990   .     S
O763   Zr787   2.097   .     S
O763   C798    1.292   .     A
O764   Zr787   2.118   .     S
O764   H805    0.990   .     S
O765   Zr789   2.115   .     S
O765   C799    1.295   .     A
O766   Zr789   2.115   .     S
O766   H814    0.992   .     S
O767   Zr791   2.096   .     S
O767   C800    1.289   .     A
O768   Zr791   2.114   .     S
O768   H811    0.991   .     S
O769   Zr791   2.123   .     S
O769   C798    1.296   .     A
O770   Zr791   2.119   .     S
O770   H816    0.990   .     S
O771   Zr789   2.129   .     S
O771   C800    1.294   .     A
O772   Zr789   2.122   .     S
O772   H807    0.990   .     S
O773   Zr787   2.105   .     S
O773   C799    1.291   .     A
O774   Zr787   2.123   .     S
O774   H809    0.992   .     S
O775   Zr785   2.112   .     S
O775   C795    1.295   .     A
O776   Zr785   2.112   .     S
O776   H808    0.990   .     S
O777   Zr783   2.109   .     S
O777   C797    1.291   .     A
O778   Zr783   2.125   .     S
O778   H815    0.990   .     S
O779   Zr781   2.124   .     S
O779   C796    1.293   .     A
O780   Zr781   2.132   .     S
O780   H810    0.992   .     S
Zr781  O782    2.089   .     S
Zr781  O793    2.066   .     S
Zr781  O788    2.136   .     S
Zr781  O790    2.095   .     S
Zr781  Zr783   3.114   .     S
Zr781  Zr785   3.071   .     S
Zr781  Zr789   3.184   .     S
O782   Zr787   2.118   .     S
O782   Zr789   2.072   .     S
O782   H801    0.991   .     S
Zr783  O784    2.115   .     S
Zr783  O793    2.049   .     S
Zr783  O792    2.123   .     S
Zr783  O788    2.113   .     S
Zr783  Zr785   3.101   .     S
O784   Zr791   2.114   .     S
O784   Zr787   2.103   .     S
O784   H804    0.990   .     S
Zr785  O786    2.121   .     S
Zr785  O793    2.055   .     S
Zr785  O790    2.129   .     S
Zr785  O792    2.112   .     S
O786   Zr789   2.115   .     S
O786   Zr791   2.108   .     S
O786   H802    0.990   .     S
Zr787  O788    2.131   .     S
Zr787  O794    2.072   .     S
Zr787  Zr789   3.071   .     S
Zr787  Zr791   3.100   .     S
Zr789  O790    2.096   .     S
Zr789  O794    2.069   .     S
Zr789  Zr791   3.093   .     S
Zr791  O792    2.131   .     S
Zr791  O794    2.062   .     S
O793   H803    0.993   .     S
C795   C931    1.474   .     S
C796   C1071   1.472   .     S
C797   C1031   1.466   .     S
C798   C1261   1.473   .     S
C799   C1161   1.467   .     S
C800   C1301   1.473   .     S
O817   Zr841   2.114   .     S
O817   C855    1.296   .     A
O818   Zr841   2.116   .     S
O818   H873    0.991   .     S
O819   Zr843   2.103   .     S
O819   C856    1.292   .     A
O820   Zr843   2.119   .     S
O820   H866    0.989   .     S
O821   Zr845   2.117   .     S
O821   C857    1.294   .     A
O822   Zr845   2.122   .     S
O822   H872    0.990   .     S
O823   Zr847   2.094   .     S
O823   C858    1.292   .     A
O824   Zr847   2.119   .     S
O824   H865    0.990   .     S
O825   Zr849   2.116   .     S
O825   C859    1.295   .     A
O826   Zr849   2.115   .     S
O826   H874    0.993   .     S
O827   Zr851   2.104   .     S
O827   C860    1.288   .     A
O828   Zr851   2.116   .     S
O828   H871    0.990   .     S
O829   Zr851   2.116   .     S
O829   C858    1.297   .     A
O830   Zr851   2.115   .     S
O830   H876    0.991   .     S
O831   Zr849   2.127   .     S
O831   C860    1.293   .     A
O832   Zr849   2.122   .     S
O832   H867    0.990   .     S
O833   Zr847   2.111   .     S
O833   C859    1.294   .     A
O834   Zr847   2.123   .     S
O834   H869    0.992   .     S
O835   Zr845   2.105   .     S
O835   C855    1.294   .     A
O836   Zr845   2.113   .     S
O836   H868    0.990   .     S
O837   Zr843   2.104   .     S
O837   C857    1.292   .     A
O838   Zr843   2.117   .     S
O838   H875    0.988   .     S
O839   Zr841   2.133   .     S
O839   C856    1.296   .     A
O840   Zr841   2.134   .     S
O840   H870    0.992   .     S
Zr841  O842    2.087   .     S
Zr841  O853    2.063   .     S
Zr841  O848    2.131   .     S
Zr841  O850    2.094   .     S
Zr841  Zr843   3.115   .     S
Zr841  Zr845   3.076   .     S
Zr841  Zr849   3.184   .     S
O842   Zr847   2.120   .     S
O842   Zr849   2.071   .     S
O842   H861    0.991   .     S
Zr843  O844    2.111   .     S
Zr843  O853    2.048   .     S
Zr843  O852    2.115   .     S
Zr843  O848    2.111   .     S
Zr843  Zr845   3.091   .     S
O844   Zr851   2.108   .     S
O844   Zr847   2.115   .     S
O844   H864    0.989   .     S
Zr845  O846    2.134   .     S
Zr845  O853    2.055   .     S
Zr845  O850    2.132   .     S
Zr845  O852    2.127   .     S
O846   Zr849   2.115   .     S
O846   Zr851   2.105   .     S
O846   H862    0.990   .     S
Zr847  O848    2.135   .     S
Zr847  O854    2.079   .     S
Zr847  Zr849   3.071   .     S
Zr847  Zr851   3.088   .     S
Zr849  O850    2.094   .     S
Zr849  O854    2.060   .     S
Zr849  Zr851   3.103   .     S
Zr851  O852    2.128   .     S
Zr851  O854    2.058   .     S
O853   H863    0.993   .     S
C855   C991    1.468   .     S
C856   C951    1.479   .     S
C857   C1091   1.474   .     S
C858   C1181   1.468   .     S
C859   C1321   1.474   .     S
C860   C1221   1.477   .     S
C877   C878    1.406   .     A
C877   C882    1.400   .     A
C877   H883    1.083   .     S
C878   C879    1.406   .     A
C878   C26     1.495   1_545 S
C879   C880    1.400   .     A
C879   H884    1.083   .     S
C880   C881    1.403   .     A
C880   H885    1.082   .     S
C881   C882    1.404   .     A
C882   H886    1.083   .     S
C887   C888    1.407   .     A
C887   C892    1.402   .     A
C887   H893    1.083   .     S
C888   C889    1.407   .     A
C889   C890    1.402   .     A
C889   H894    1.083   .     S
C890   C891    1.404   .     A
C890   H895    1.083   .     S
C891   C892    1.403   .     A
C892   H896    1.083   .     S
C897   C898    1.407   .     A
C897   C902    1.402   .     A
C897   H903    1.083   .     S
C898   C899    1.407   .     A
C898   C92     1.499   1_554 S
C899   C900    1.401   .     A
C899   H904    1.083   .     S
C900   C901    1.404   .     A
C900   H905    1.083   .     S
C901   C902    1.404   .     A
C902   H906    1.083   .     S
C907   C908    1.407   .     A
C907   C912    1.402   .     A
C907   H913    1.083   .     S
C908   C909    1.405   .     A
C909   C910    1.399   .     A
C909   H914    1.083   .     S
C910   C911    1.404   .     A
C910   H915    1.083   .     S
C911   C912    1.403   .     A
C912   H916    1.083   .     S
C917   C918    1.408   .     A
C917   C922    1.404   .     A
C917   H923    1.083   .     S
C918   C919    1.406   .     A
C918   C93     1.499   1_545 S
C919   C920    1.400   .     A
C919   H924    1.083   .     S
C920   C921    1.404   .     A
C920   H925    1.082   .     S
C921   C922    1.404   .     A
C922   H926    1.083   .     S
C927   C928    1.406   .     A
C927   C932    1.399   .     A
C927   H933    1.083   .     S
C928   C929    1.407   .     A
C929   C930    1.402   .     A
C929   H934    1.083   .     S
C930   C931    1.403   .     A
C930   H935    1.083   .     S
C931   C932    1.403   .     A
C932   H936    1.083   .     S
C937   C938    1.405   .     A
C937   C942    1.399   .     A
C937   H943    1.083   .     S
C938   C939    1.407   .     A
C938   C27     1.494   1_556 S
C939   C940    1.400   .     A
C939   H944    1.083   .     S
C940   C941    1.403   .     A
C940   H945    1.083   .     S
C941   C942    1.403   .     A
C942   H946    1.083   .     S
C947   C952    1.403   .     A
C947   H953    1.083   .     S
C947   C948    1.407   .     A
C948   C949    1.407   .     A
C949   C950    1.401   .     A
C949   H954    1.083   .     S
C950   C951    1.404   .     A
C950   H955    1.083   .     S
C951   C952    1.404   .     A
C952   H956    1.083   .     S
C957   C962    1.396   .     A
C957   H963    1.083   .     S
C957   C958    1.405   .     A
C958   C959    1.406   .     A
C958   C158    1.490   1_455 S
C959   C960    1.400   .     A
C959   H964    1.083   .     S
C960   C961    1.402   .     A
C960   H965    1.083   .     S
C961   C962    1.401   .     A
C962   H966    1.083   .     S
C967   C968    1.406   .     A
C967   C972    1.397   .     A
C967   H973    1.083   .     S
C968   C969    1.405   .     A
C969   C970    1.399   .     A
C969   H974    1.083   .     S
C970   C971    1.402   .     A
C970   H975    1.083   .     S
C971   C972    1.401   .     A
C972   H976    1.083   .     S
C977   C978    1.406   .     A
C977   C982    1.397   .     A
C977   H983    1.083   .     S
C978   C979    1.406   .     A
C978   C224    1.494   1_556 S
C979   C980    1.401   .     A
C979   H984    1.083   .     S
C980   H985    1.083   .     S
C980   C981    1.404   .     A
C981   C982    1.401   .     A
C982   H986    1.082   .     S
C987   C988    1.406   .     A
C987   C992    1.400   .     A
C987   H993    1.083   .     S
C988   C989    1.405   .     A
C989   C990    1.395   .     A
C989   H994    1.083   .     S
C990   H995    1.083   .     S
C990   C991    1.401   .     A
C991   C992    1.402   .     A
C992   H996    1.083   .     S
C997   C998    1.406   .     A
C997   C1002   1.401   .     A
C997   H1003   1.083   .     S
C998   C999    1.406   .     A
C998   C225    1.494   1_655 S
C999   C1000   1.398   .     A
C999   H1004   1.083   .     S
C1000  C1001   1.403   .     A
C1000  H1005   1.081   .     S
C1001  C1002   1.404   .     A
C1002  H1006   1.083   .     S
C1007  C1008   1.406   .     A
C1007  C1012   1.398   .     A
C1007  H1013   1.083   .     S
C1008  C1009   1.405   .     A
C1009  C1010   1.399   .     A
C1009  H1014   1.083   .     S
C1010  C1011   1.404   .     A
C1010  H1015   1.083   .     S
C1011  C1012   1.403   .     A
C1012  H1016   1.083   .     S
C1017  C1018   1.405   .     A
C1017  C1022   1.396   .     A
C1017  H1023   1.083   .     S
C1018  C1019   1.405   .     A
C1018  C159    1.489   1_556 S
C1019  C1020   1.399   .     A
C1019  H1024   1.083   .     S
C1020  C1021   1.402   .     A
C1020  H1025   1.083   .     S
C1021  C1022   1.402   .     A
C1022  H1026   1.084   .     S
C1027  C1032   1.399   .     A
C1027  H1033   1.083   .     S
C1027  C1028   1.405   .     A
C1028  C1029   1.405   .     A
C1029  C1030   1.395   .     A
C1029  H1034   1.083   .     S
C1030  C1031   1.401   .     A
C1030  H1035   1.084   .     S
C1031  C1032   1.402   .     A
C1032  H1036   1.083   .     S
C1037  C1038   1.404   .     A
C1037  C1042   1.397   .     A
C1037  H1043   1.083   .     S
C1038  C1039   1.405   .     A
C1038  C290    1.487   1_455 S
C1039  C1040   1.398   .     A
C1039  H1044   1.083   .     S
C1040  C1041   1.402   .     A
C1040  H1045   1.084   .     S
C1041  C1042   1.401   .     A
C1042  H1046   1.083   .     S
C1047  C1048   1.406   .     A
C1047  C1052   1.398   .     A
C1047  H1053   1.083   .     S
C1048  C1049   1.405   .     A
C1049  C1050   1.397   .     A
C1049  H1054   1.083   .     S
C1050  C1051   1.402   .     A
C1050  H1055   1.084   .     S
C1051  C1052   1.402   .     A
C1052  H1056   1.083   .     S
C1057  C1058   1.404   .     A
C1057  C1062   1.397   .     A
C1057  H1063   1.083   .     S
C1058  C1059   1.405   .     A
C1058  C356    1.488   1_545 S
C1059  C1060   1.399   .     A
C1059  H1064   1.083   .     S
C1060  C1061   1.402   .     A
C1060  H1065   1.083   .     S
C1061  C1062   1.401   .     A
C1062  H1066   1.082   .     S
C1067  C1072   1.399   .     A
C1067  H1073   1.083   .     S
C1067  C1068   1.405   .     A
C1068  C1069   1.407   .     A
C1069  C1070   1.401   .     A
C1069  H1074   1.083   .     S
C1070  C1071   1.403   .     A
C1070  H1075   1.083   .     S
C1071  C1072   1.402   .     A
C1072  H1076   1.083   .     S
C1077  C1078   1.405   .     A
C1077  C1082   1.399   .     A
C1077  H1083   1.083   .     S
C1078  C1079   1.406   .     A
C1078  C357    1.492   1_455 S
C1079  C1080   1.398   .     A
C1079  H1084   1.083   .     S
C1080  C1081   1.401   .     A
C1080  H1085   1.081   .     S
C1081  C1082   1.403   .     A
C1082  H1086   1.083   .     S
C1087  C1088   1.407   .     A
C1087  C1092   1.399   .     A
C1087  H1093   1.083   .     S
C1088  C1089   1.406   .     A
C1089  C1090   1.401   .     A
C1089  H1094   1.083   .     S
C1090  C1091   1.403   .     A
C1090  H1095   1.083   .     S
C1091  C1092   1.402   .     A
C1092  H1096   1.083   .     S
C1097  C1098   1.404   .     A
C1097  C1102   1.397   .     A
C1097  H1103   1.083   .     S
C1098  C1099   1.406   .     A
C1098  C291    1.489   1_565 S
C1099  C1100   1.398   .     A
C1099  H1104   1.083   .     S
C1100  C1101   1.402   .     A
C1100  H1105   1.083   .     S
C1101  C1102   1.402   .     A
C1102  H1106   1.081   .     S
C1107  C1108   1.405   .     A
C1107  C1112   1.398   .     A
C1107  H1113   1.083   .     S
C1108  C1109   1.404   .     A
C1109  C1110   1.396   .     A
C1109  H1114   1.083   .     S
C1110  C1111   1.401   .     A
C1110  H1115   1.083   .     S
C1111  C1112   1.402   .     A
C1112  H1116   1.083   .     S
C1117  C1118   1.405   .     A
C1117  C1122   1.398   .     A
C1117  H1123   1.083   .     S
C1118  C1119   1.406   .     A
C1118  C160    1.489   1_456 S
C1119  C1120   1.397   .     A
C1119  H1124   1.083   .     S
C1120  C1121   1.401   .     A
C1120  H1125   1.083   .     S
C1121  C1122   1.402   .     A
C1122  H1126   1.082   .     S
C1127  C1128   1.406   .     A
C1127  C1132   1.398   .     A
C1127  H1133   1.083   .     S
C1128  C1129   1.405   .     A
C1129  C1130   1.399   .     A
C1129  H1134   1.083   .     S
C1130  C1131   1.403   .     A
C1130  H1135   1.083   .     S
C1131  C1132   1.402   .     A
C1132  H1136   1.083   .     S
C1137  C1138   1.405   .     A
C1137  C1142   1.396   .     A
C1137  H1143   1.083   .     S
C1138  C1139   1.405   .     A
C1138  C226    1.489   1_656 S
C1139  C1140   1.398   .     A
C1139  H1144   1.083   .     S
C1140  C1141   1.402   .     A
C1140  H1145   1.082   .     S
C1141  C1142   1.402   .     A
C1142  H1146   1.083   .     S
C1147  C1148   1.405   .     A
C1147  C1152   1.397   .     A
C1147  H1153   1.083   .     S
C1148  C1149   1.406   .     A
C1149  C1150   1.399   .     A
C1149  H1154   1.083   .     S
C1150  C1151   1.402   .     A
C1150  H1155   1.082   .     S
C1151  C1152   1.402   .     A
C1152  H1156   1.083   .     S
C1157  C1158   1.406   .     A
C1157  C1162   1.398   .     A
C1157  H1163   1.083   .     S
C1158  C1159   1.405   .     A
C1159  C1160   1.398   .     A
C1159  H1164   1.083   .     S
C1160  C1161   1.402   .     A
C1160  H1165   1.082   .     S
C1161  C1162   1.401   .     A
C1162  H1166   1.083   .     S
C1167  C1168   1.407   .     A
C1167  C1172   1.398   .     A
C1167  H1173   1.083   .     S
C1168  C1169   1.403   .     A
C1169  C1170   1.396   .     A
C1169  H1174   1.083   .     S
C1170  C1171   1.402   .     A
C1170  H1175   1.082   .     S
C1171  C1172   1.401   .     A
C1172  H1176   1.083   .     S
C1177  C1178   1.405   .     A
C1177  C1182   1.399   .     A
C1177  H1183   1.083   .     S
C1178  C1179   1.405   .     A
C1179  C1180   1.396   .     A
C1179  H1184   1.083   .     S
C1180  C1181   1.402   .     A
C1180  H1185   1.083   .     S
C1181  C1182   1.403   .     A
C1182  H1186   1.083   .     S
C1187  C1188   1.405   .     A
C1187  C1192   1.398   .     A
C1187  H1193   1.083   .     S
C1188  C1189   1.406   .     A
C1189  C1190   1.400   .     A
C1189  H1194   1.083   .     S
C1190  C1191   1.403   .     A
C1190  H1195   1.083   .     S
C1191  C1192   1.403   .     A
C1192  H1196   1.083   .     S
C1197  C1198   1.406   .     A
C1197  C1202   1.402   .     A
C1197  H1203   1.083   .     S
C1198  C1199   1.404   .     A
C1198  C28     1.491   1_546 S
C1199  C1200   1.396   .     A
C1199  H1204   1.083   .     S
C1200  C1201   1.402   .     A
C1200  H1205   1.082   .     S
C1201  C1202   1.403   .     A
C1202  H1206   1.083   .     S
C1207  C1208   1.406   .     A
C1207  C1212   1.399   .     A
C1207  H1213   1.083   .     S
C1208  C1209   1.407   .     A
C1209  C1210   1.404   .     A
C1209  H1214   1.083   .     S
C1210  C1211   1.404   .     A
C1210  H1215   1.083   .     S
C1211  C1212   1.403   .     A
C1212  H1216   1.083   .     S
C1217  C1218   1.406   .     A
C1217  C1222   1.400   .     A
C1217  H1223   1.083   .     S
C1218  C1219   1.407   .     A
C1218  C94     1.498   1_544 S
C1219  C1220   1.403   .     A
C1219  H1224   1.083   .     S
C1220  C1221   1.404   .     A
C1220  H1225   1.083   .     S
C1221  C1222   1.403   .     A
C1222  H1226   1.083   .     S
C1227  C1228   1.407   .     A
C1227  C1232   1.403   .     A
C1227  H1233   1.083   .     S
C1228  C1229   1.406   .     A
C1229  C1230   1.400   .     A
C1229  H1234   1.083   .     S
C1230  C1231   1.404   .     A
C1230  H1235   1.083   .     S
C1231  C1232   1.404   .     A
C1232  H1236   1.083   .     S
C1237  C1238   1.406   .     A
C1237  C1242   1.399   .     A
C1237  H1243   1.083   .     S
C1238  C1239   1.407   .     A
C1239  C1240   1.404   .     A
C1239  H1244   1.083   .     S
C1240  C1241   1.404   .     A
C1240  H1245   1.083   .     S
C1241  C1242   1.403   .     A
C1242  H1246   1.084   .     S
C1247  C1248   1.405   .     A
C1247  C1252   1.398   .     A
C1247  H1253   1.083   .     S
C1248  C1249   1.407   .     A
C1249  C1250   1.403   .     A
C1249  H1254   1.083   .     S
C1250  C1251   1.403   .     A
C1250  H1255   1.083   .     S
C1251  C1252   1.403   .     A
C1252  H1256   1.084   .     S
C1257  C1258   1.406   .     A
C1257  C1262   1.398   .     A
C1257  H1263   1.083   .     S
C1258  C1259   1.406   .     A
C1259  C1260   1.401   .     A
C1259  H1264   1.083   .     S
C1260  C1261   1.404   .     A
C1260  H1265   1.083   .     S
C1261  C1262   1.402   .     A
C1262  H1266   1.083   .     S
C1267  C1268   1.407   .     A
C1267  C1272   1.401   .     A
C1267  H1273   1.083   .     S
C1268  C1269   1.407   .     A
C1269  C1270   1.402   .     A
C1269  H1274   1.083   .     S
C1270  C1271   1.404   .     A
C1270  H1275   1.083   .     S
C1271  C1272   1.403   .     A
C1272  H1276   1.083   .     S
C1277  C1278   1.406   .     A
C1277  C1282   1.398   .     A
C1277  H1283   1.083   .     S
C1278  C1279   1.405   .     A
C1278  C358    1.490   1_445 S
C1279  C1280   1.399   .     A
C1279  H1284   1.083   .     S
C1280  C1281   1.403   .     A
C1280  H1285   1.084   .     S
C1281  C1282   1.402   .     A
C1282  H1286   1.083   .     S
C1287  C1288   1.404   .     A
C1287  C1292   1.398   .     A
C1287  H1293   1.083   .     S
C1288  C1289   1.407   .     A
C1289  C1290   1.399   .     A
C1289  H1294   1.083   .     S
C1290  C1291   1.401   .     A
C1290  H1295   1.083   .     S
C1291  C1292   1.403   .     A
C1292  H1296   1.084   .     S
C1297  C1298   1.405   .     A
C1297  C1302   1.400   .     A
C1297  H1303   1.083   .     S
C1298  C1299   1.407   .     A
C1298  C292    1.494   1_465 S
C1299  C1300   1.400   .     A
C1299  H1304   1.083   .     S
C1300  C1301   1.402   .     A
C1300  H1305   1.081   .     S
C1301  C1302   1.404   .     A
C1302  H1306   1.083   .     S
C1307  C1308   1.405   .     A
C1307  C1312   1.399   .     A
C1307  H1313   1.083   .     S
C1308  C1309   1.405   .     A
C1309  C1310   1.397   .     A
C1309  H1314   1.083   .     S
C1310  C1311   1.402   .     A
C1310  H1315   1.082   .     S
C1311  C1312   1.402   .     A
C1312  H1316   1.083   .     S
C1317  C1318   1.407   .     A
C1317  C1322   1.400   .     A
C1317  H1323   1.083   .     S
C1318  C1319   1.406   .     A
C1319  C1320   1.400   .     A
C1319  H1324   1.083   .     S
C1320  C1321   1.403   .     A
C1320  H1325   1.083   .     S
C1321  C1322   1.403   .     A
C1322  H1326   1.084   .     S
C1327  C1328   1.405   .     A
C1327  C1332   1.398   .     A
C1327  H1333   1.083   .     S
C1328  C1329   1.405   .     A
C1329  C1330   1.397   .     A
C1329  H1334   1.083   .     S
C1330  C1331   1.402   .     A
C1330  H1335   1.084   .     S
C1331  C1332   1.402   .     A
C1332  H1336   1.083   .     S
C1337  C1338   1.406   .     A
C1337  C1342   1.399   .     A
C1337  H1343   1.083   .     S
C1338  C1339   1.405   .     A
C1339  C1340   1.398   .     A
C1339  H1344   1.083   .     S
C1340  C1341   1.402   .     A
C1340  H1345   1.082   .     S
C1341  C1342   1.402   .     A
C1342  H1346   1.083   .     S
C1347  C1348   1.405   .     A
C1347  C1352   1.398   .     A
C1347  H1353   1.083   .     S
C1348  C1349   1.406   .     A
C1349  C1350   1.399   .     A
C1349  H1354   1.083   .     S
C1350  C1351   1.403   .     A
C1350  H1355   1.083   .     S
C1351  C1352   1.402   .     A
C1352  H1356   1.082   .     S
