data_ja5111317_si_002
_audit_creation_date              2015-10-12
_audit_creation_method            'Materials Studio'
_symmetry_space_group_name_H-M    'P1'
_symmetry_Int_Tables_number       1
_symmetry_cell_setting            triclinic
loop_
_symmetry_equiv_pos_as_xyz
  x,y,z
_cell_length_a                    25.3468
_cell_length_b                    25.3468
_cell_length_c                    25.3468
_cell_angle_alpha                 90.0000
_cell_angle_beta                  90.0000
_cell_angle_gamma                 90.0000
loop_
_atom_site_label
_atom_site_type_symbol
_atom_site_fract_x
_atom_site_fract_y
_atom_site_fract_z
_atom_site_U_iso_or_equiv
_atom_site_adp_type
_atom_site_occupancy
C1     C     0.45685   0.99155  -0.61106   0.00000  Uiso   1.00
C2     C     0.47455   0.99203  -0.66567   0.00000  Uiso   1.00
H3     H     0.45125   0.99286  -0.70143   0.00000  Uiso   1.00
C4     C     0.39191   0.98855  -0.54140   0.00000  Uiso   1.00
C5     C     0.33649   0.98304  -0.52572   0.00000  Uiso   1.00
H6     H     0.30237   0.97972  -0.55115   0.00000  Uiso   1.00
C7     C     0.40645   0.99090  -0.59707   0.00000  Uiso   1.00
C8     C     0.61115   0.99534  -0.54312   0.00000  Uiso   1.00
C9     C     0.66562   0.99978  -0.52555   0.00000  Uiso   1.00
H10    H     0.70121   1.00222  -0.54903   0.00000  Uiso   1.00
C11    C     0.54160   0.99096  -0.60813   0.00000  Uiso   1.00
C12    C     0.52583   0.99068  -0.66379   0.00000  Uiso   1.00
H13    H     0.55111   0.98990  -0.69816   0.00000  Uiso   1.00
C14    C     0.59729   0.99243  -0.59345   0.00000  Uiso   1.00
N15    N     0.50124   0.99121  -0.57574   0.00000  Uiso   1.00
C16    C     0.38911   0.98637  -0.45672   0.00000  Uiso   1.00
C17    C     0.33472   0.98152  -0.47442   0.00000  Uiso   1.00
H18    H     0.29927   0.97699  -0.45105   0.00000  Uiso   1.00
C19    C     0.45850   0.99268  -0.39169   0.00000  Uiso   1.00
C20    C     0.47416   0.99499  -0.33604   0.00000  Uiso   1.00
H21    H     0.44882   0.99495  -0.30170   0.00000  Uiso   1.00
C22    C     0.40292   0.98870  -0.40634   0.00000  Uiso   1.00
N23    N     0.42430   0.98956  -0.50107   0.00000  Uiso   1.00
C24    C     0.54314   0.99698  -0.38876   0.00000  Uiso   1.00
C25    C     0.52542   0.99691  -0.33415   0.00000  Uiso   1.00
H26    H     0.54868   0.99821  -0.29838   0.00000  Uiso   1.00
C27    C     0.60815   0.99805  -0.45846   0.00000  Uiso   1.00
C28    C     0.66369   1.00156  -0.47428   0.00000  Uiso   1.00
H29    H     0.69784   1.00572  -0.44901   0.00000  Uiso   1.00
Ni30   Ni    0.50005   0.99256  -0.49991   0.00000  Uiso   1.00
C31    C     0.59353   0.99818  -0.40274   0.00000  Uiso   1.00
N32    N     0.49883   0.99415  -0.42407   0.00000  Uiso   1.00
N33    N     0.57582   0.99534  -0.49875   0.00000  Uiso   1.00
C34    C    -0.61081   1.44928   0.00543   0.00000  Uiso   1.00
C35    C    -0.66514   1.46702   0.01084   0.00000  Uiso   1.00
H36    H    -0.70053   1.44369   0.01598   0.00000  Uiso   1.00
C37    C    -0.54155   1.38440  -0.00302   0.00000  Uiso   1.00
C38    C    -0.52607   1.32909  -0.01002   0.00000  Uiso   1.00
H39    H    -0.55160   1.29505  -0.01329   0.00000  Uiso   1.00
C40    C    -0.59705   1.39891   0.00233   0.00000  Uiso   1.00
C41    C    -0.54304   1.60357  -0.00025   0.00000  Uiso   1.00
C42    C    -0.52528   1.65815  -0.00130   0.00000  Uiso   1.00
H43    H    -0.54854   1.69389  -0.00333   0.00000  Uiso   1.00
C44    C    -0.60804   1.53396   0.00263   0.00000  Uiso   1.00
C45    C    -0.66340   1.51830   0.00873   0.00000  Uiso   1.00
H46    H    -0.69749   1.54375   0.01222   0.00000  Uiso   1.00
C47    C    -0.59346   1.58962   0.00012   0.00000  Uiso   1.00
N48    N    -0.57568   1.49363   0.00161   0.00000  Uiso   1.00
C49    C    -0.45693   1.38160  -0.00744   0.00000  Uiso   1.00
C50    C    -0.47481   1.32732  -0.01285   0.00000  Uiso   1.00
H51    H    -0.45157   1.29195  -0.01858   0.00000  Uiso   1.00
C52    C    -0.39174   1.45085  -0.00119   0.00000  Uiso   1.00
C53    C    -0.33610   1.46642   0.00184   0.00000  Uiso   1.00
H54    H    -0.30180   1.44103   0.00199   0.00000  Uiso   1.00
C55    C    -0.40650   1.39531  -0.00542   0.00000  Uiso   1.00
N56    N    -0.50116   1.41672  -0.00251   0.00000  Uiso   1.00
C57    C    -0.38875   1.53546   0.00390   0.00000  Uiso   1.00
C58    C    -0.33417   1.51766   0.00448   0.00000  Uiso   1.00
H59    H    -0.29841   1.54089   0.00653   0.00000  Uiso   1.00
C60    C    -0.45833   1.60061   0.00260   0.00000  Uiso   1.00
C61    C    -0.47405   1.65628   0.00140   0.00000  Uiso   1.00
H62    H    -0.44876   1.69064   0.00225   0.00000  Uiso   1.00
Ni63   Ni   -0.49989   1.49246   0.00030   0.00000  Uiso   1.00
C64    C    -0.40264   1.58588   0.00427   0.00000  Uiso   1.00
N65    N    -0.42407   1.49122   0.00029   0.00000  Uiso   1.00
N66    N    -0.49869   1.56826   0.00182   0.00000  Uiso   1.00
C67    C    -0.00313   0.38129   0.45691   0.00000  Uiso   1.00
C68    C    -0.00853   0.32695   0.47461   0.00000  Uiso   1.00
H69    H    -0.01268   0.29147   0.45121   0.00000  Uiso   1.00
C70    C     0.00310   0.45072   0.39196   0.00000  Uiso   1.00
C71    C     0.00861   0.46643   0.33654   0.00000  Uiso   1.00
H72    H     0.01289   0.44105   0.30250   0.00000  Uiso   1.00
C73    C     0.00017   0.39507   0.40657   0.00000  Uiso   1.00
C74    C     0.00341   0.44923   0.61103   0.00000  Uiso   1.00
C75    C     0.00895   0.46693   0.66536   0.00000  Uiso   1.00
H76    H     0.01323   0.44354   0.70082   0.00000  Uiso   1.00
C77    C    -0.00294   0.38428   0.54162   0.00000  Uiso   1.00
C78    C    -0.00837   0.32885   0.52593   0.00000  Uiso   1.00
H79    H    -0.01250   0.29480   0.55132   0.00000  Uiso   1.00
C80    C     0.00011   0.39890   0.59726   0.00000  Uiso   1.00
N81    N    -0.00081   0.41654   0.50125   0.00000  Uiso   1.00
C82    C     0.00310   0.53544   0.38897   0.00000  Uiso   1.00
C83    C     0.00866   0.51775   0.33464   0.00000  Uiso   1.00
H84    H     0.01284   0.54116   0.29917   0.00000  Uiso   1.00
C85    C    -0.00350   0.60036   0.45839   0.00000  Uiso   1.00
C86    C    -0.00921   0.65576   0.47410   0.00000  Uiso   1.00
H87    H    -0.01356   0.68979   0.44871   0.00000  Uiso   1.00
C88    C    -0.00039   0.58577   0.40275   0.00000  Uiso   1.00
N89    N     0.00082   0.49109   0.42422   0.00000  Uiso   1.00
C90    C    -0.00362   0.60335   0.54311   0.00000  Uiso   1.00
C91    C    -0.00933   0.65766   0.52542   0.00000  Uiso   1.00
H92    H    -0.01365   0.69312   0.54882   0.00000  Uiso   1.00
C93    C     0.00310   0.53395   0.60805   0.00000  Uiso   1.00
C94    C     0.00874   0.51826   0.66346   0.00000  Uiso   1.00
H95    H     0.01296   0.54365   0.69750   0.00000  Uiso   1.00
Ni96   Ni   -0.00006   0.49233   0.50001   0.00000  Uiso   1.00
C97    C    -0.00012   0.58959   0.59344   0.00000  Uiso   1.00
N98    N    -0.00118   0.56811   0.49876   0.00000  Uiso   1.00
N99    N     0.00094   0.49358   0.57579   0.00000  Uiso   1.00
O100   O    -0.13603   0.99504  -0.07189   0.00000  Uiso   1.00
O101   O     0.13617   0.98978  -0.07172   0.00000  Uiso   1.00
O102   O    -0.00088   1.06384  -0.13631   0.00000  Uiso   1.00
O103   O     0.00205   0.92028  -0.13589   0.00000  Uiso   1.00
O104   O     0.00049   0.85600  -0.07149   0.00000  Uiso   1.00
O105   O    -0.00178   1.12830  -0.07208   0.00000  Uiso   1.00
O106   O     0.07181   0.99070  -0.13606   0.00000  Uiso   1.00
O107   O    -0.07164   0.99357  -0.13621   0.00000  Uiso   1.00
Zr108  Zr    0.00008   0.99217  -0.09312   0.00000  Uiso   1.00
O109   O     0.04785   0.94422  -0.04777   0.00000  Uiso   1.00
O110   O    -0.04787   1.04024  -0.04808   0.00000  Uiso   1.00
C111   C    -0.12061   0.99518  -0.12086   0.00000  Uiso   1.00
C112   C     0.12076   0.98943  -0.12071   0.00000  Uiso   1.00
C113   C    -0.00192   1.11284  -0.12102   0.00000  Uiso   1.00
C114   C     0.00188   0.87131  -0.12047   0.00000  Uiso   1.00
H115   H     0.07038   1.06224  -0.07013   0.00000  Uiso   1.00
O116   O     0.04773   1.03982  -0.04764   0.00000  Uiso   1.00
H117   H    -0.07040   0.92226  -0.07003   0.00000  Uiso   1.00
O118   O    -0.04777   0.94473  -0.04757   0.00000  Uiso   1.00
O119   O     0.13617   0.99318   0.07181   0.00000  Uiso   1.00
O120   O    -0.13617   0.99157   0.07179   0.00000  Uiso   1.00
O121   O     0.07181   1.12840   0.00112   0.00000  Uiso   1.00
O122   O     0.07152   0.85607  -0.00192   0.00000  Uiso   1.00
O123   O    -0.07211   0.85641   0.00275   0.00000  Uiso   1.00
O124   O    -0.07179   1.12858  -0.00276   0.00000  Uiso   1.00
O125   O     0.00199   1.06442   0.13594   0.00000  Uiso   1.00
O126   O    -0.00104   0.92083   0.13634   0.00000  Uiso   1.00
O127   O     0.00101   1.12869   0.07148   0.00000  Uiso   1.00
O128   O    -0.00215   0.85639   0.07206   0.00000  Uiso   1.00
O129   O     0.13615   1.06402   0.00224   0.00000  Uiso   1.00
O130   O    -0.13614   1.06426  -0.00149   0.00000  Uiso   1.00
O131   O    -0.13638   0.92086   0.00127   0.00000  Uiso   1.00
O132   O     0.13597   0.92035  -0.00093   0.00000  Uiso   1.00
O133   O     0.07184   0.99459   0.13617   0.00000  Uiso   1.00
O134   O    -0.07176   0.99055   0.13612   0.00000  Uiso   1.00
Zr135  Zr    0.09314   0.99218   0.00009   0.00000  Uiso   1.00
Zr136  Zr   -0.09319   0.99255  -0.00002   0.00000  Uiso   1.00
Zr137  Zr   -0.00001   1.08551  -0.00022   0.00000  Uiso   1.00
Zr138  Zr   -0.00026   0.89919   0.00019   0.00000  Uiso   1.00
Zr139  Zr    0.00004   0.99254   0.09317   0.00000  Uiso   1.00
O140   O    -0.04804   0.94466   0.04802   0.00000  Uiso   1.00
O141   O     0.04794   1.04034   0.04782   0.00000  Uiso   1.00
C142   C     0.12082   0.99449   0.12077   0.00000  Uiso   1.00
C143   C    -0.12075   0.99042   0.12075   0.00000  Uiso   1.00
C144   C     0.12078   1.11302   0.00246   0.00000  Uiso   1.00
C145   C     0.12053   0.87141  -0.00209   0.00000  Uiso   1.00
C146   C    -0.12105   0.87188   0.00289   0.00000  Uiso   1.00
C147   C    -0.12078   1.11320  -0.00302   0.00000  Uiso   1.00
C148   C     0.00217   1.11338   0.12048   0.00000  Uiso   1.00
C149   C    -0.00228   0.87184   0.12103   0.00000  Uiso   1.00
H150   H    -0.07012   1.06276   0.07000   0.00000  Uiso   1.00
O151   O    -0.04761   1.04016   0.04756   0.00000  Uiso   1.00
H152   H     0.06996   0.92214   0.07027   0.00000  Uiso   1.00
O153   O     0.04750   0.94469   0.04773   0.00000  Uiso   1.00
C154   C     0.28362   0.99293   0.28352   0.00000  Uiso   1.00
C155   C     0.31730   0.94909   0.28891   0.00000  Uiso   1.00
C156   C     0.35658   0.94816   0.32789   0.00000  Uiso   1.00
C157   C     0.36382   0.99144   0.36181   0.00000  Uiso   1.00
C158   C     0.33018   1.03520   0.35665   0.00000  Uiso   1.00
C159   C     0.29032   1.03582   0.31818   0.00000  Uiso   1.00
C160   C     0.24192   0.99392   0.24177   0.00000  Uiso   1.00
C161   C     0.19050   1.01149   0.25318   0.00000  Uiso   1.00
C162   C     0.15122   1.01156   0.21411   0.00000  Uiso   1.00
C163   C     0.16255   0.99488   0.16234   0.00000  Uiso   1.00
C164   C     0.21419   0.97793   0.15083   0.00000  Uiso   1.00
C165   C     0.25319   0.97709   0.19010   0.00000  Uiso   1.00
H166   H     0.38168   0.91376   0.33143   0.00000  Uiso   1.00
H167   H     0.33490   1.06896   0.38241   0.00000  Uiso   1.00
H168   H     0.11200   1.02501   0.22440   0.00000  Uiso   1.00
H169   H     0.22437   0.96461   0.11153   0.00000  Uiso   1.00
H170   H     0.26530   1.07029   0.31490   0.00000  Uiso   1.00
H171   H     0.18041   1.02437   0.29264   0.00000  Uiso   1.00
H172   H     0.31280   0.91518   0.26333   0.00000  Uiso   1.00
H173   H     0.29248   0.96378   0.17986   0.00000  Uiso   1.00
C174   C    -0.28273   0.99077   0.28431   0.00000  Uiso   1.00
C175   C    -0.28897   0.94755   0.31864   0.00000  Uiso   1.00
C176   C    -0.32805   0.94793   0.35785   0.00000  Uiso   1.00
C177   C    -0.36133   0.99183   0.36420   0.00000  Uiso   1.00
C178   C    -0.35485   1.03526   0.33035   0.00000  Uiso   1.00
C179   C    -0.31633   1.03456   0.29058   0.00000  Uiso   1.00
C180   C    -0.24132   0.99024   0.24227   0.00000  Uiso   1.00
C181   C    -0.25286   1.00751   0.19079   0.00000  Uiso   1.00
C182   C    -0.21404   1.00693   0.15131   0.00000  Uiso   1.00
C183   C    -0.16236   0.98986   0.16244   0.00000  Uiso   1.00
C184   C    -0.15078   0.97282   0.21403   0.00000  Uiso   1.00
C185   C    -0.18984   0.97262   0.25328   0.00000  Uiso   1.00
H186   H    -0.33231   0.91398   0.38345   0.00000  Uiso   1.00
H187   H    -0.37981   1.06966   0.33469   0.00000  Uiso   1.00
H188   H    -0.22438   1.02054   0.11214   0.00000  Uiso   1.00
H189   H    -0.11151   0.95927   0.22404   0.00000  Uiso   1.00
H190   H    -0.31222   1.06868   0.26520   0.00000  Uiso   1.00
H191   H    -0.29219   1.02092   0.18088   0.00000  Uiso   1.00
H192   H    -0.26406   0.91307   0.31462   0.00000  Uiso   1.00
H193   H    -0.17954   0.95945   0.29259   0.00000  Uiso   1.00
C194   C    -0.28371   0.99849  -0.28326   0.00000  Uiso   1.00
C195   C    -0.29063   0.95487  -0.31692   0.00000  Uiso   1.00
C196   C    -0.33049   0.95477  -0.35533   0.00000  Uiso   1.00
C197   C    -0.36389   0.99858  -0.36157   0.00000  Uiso   1.00
C198   C    -0.35661   1.04251  -0.32850   0.00000  Uiso   1.00
C199   C    -0.31731   1.04228  -0.28948   0.00000  Uiso   1.00
C200   C    -0.24177   0.99818  -0.24175   0.00000  Uiso   1.00
C201   C    -0.25270   1.01543  -0.19014   0.00000  Uiso   1.00
C202   C    -0.21359   1.01423  -0.15094   0.00000  Uiso   1.00
C203   C    -0.16222   0.99655  -0.16253   0.00000  Uiso   1.00
C204   C    -0.15115   0.97989  -0.21435   0.00000  Uiso   1.00
C205   C    -0.19051   0.98028  -0.25330   0.00000  Uiso   1.00
H206   H    -0.33536   0.92044  -0.38030   0.00000  Uiso   1.00
H207   H    -0.38165   1.07687  -0.33275   0.00000  Uiso   1.00
H208   H    -0.22353   1.02754  -0.11158   0.00000  Uiso   1.00
H209   H    -0.11215   0.96587  -0.22472   0.00000  Uiso   1.00
H210   H    -0.31270   1.07668  -0.26457   0.00000  Uiso   1.00
H211   H    -0.29186   1.02907  -0.17984   0.00000  Uiso   1.00
H212   H    -0.26574   0.92038  -0.31290   0.00000  Uiso   1.00
H213   H    -0.18067   0.96712  -0.29274   0.00000  Uiso   1.00
C214   C     0.28296   0.98773  -0.28407   0.00000  Uiso   1.00
C215   C     0.31784   0.94488  -0.28993   0.00000  Uiso   1.00
C216   C     0.35640   0.94496  -0.32970   0.00000  Uiso   1.00
C217   C     0.36154   0.98824  -0.36399   0.00000  Uiso   1.00
C218   C     0.32711   1.03128  -0.35788   0.00000  Uiso   1.00
C219   C     0.28806   1.03087  -0.31868   0.00000  Uiso   1.00
C220   C     0.24135   0.98751  -0.24222   0.00000  Uiso   1.00
C221   C     0.18962   1.00407  -0.25365   0.00000  Uiso   1.00
C222   C     0.15054   1.00413  -0.21448   0.00000  Uiso   1.00
C223   C     0.16226   0.98837  -0.16251   0.00000  Uiso   1.00
C224   C     0.21408   0.97195  -0.15103   0.00000  Uiso   1.00
C225   C     0.25298   0.97114  -0.19046   0.00000  Uiso   1.00
H226   H     0.38239   0.91129  -0.33374   0.00000  Uiso   1.00
H227   H     0.33045   1.06517  -0.38368   0.00000  Uiso   1.00
H228   H     0.11119   1.01718  -0.22482   0.00000  Uiso   1.00
H229   H     0.22453   0.95937  -0.11155   0.00000  Uiso   1.00
H230   H     0.26225   1.06470  -0.31493   0.00000  Uiso   1.00
H231   H     0.17921   1.01648  -0.29319   0.00000  Uiso   1.00
H232   H     0.31470   0.91088  -0.26425   0.00000  Uiso   1.00
H233   H     0.29250   0.95852  -0.18024   0.00000  Uiso   1.00
C234   C     0.28328   1.27627   0.00358   0.00000  Uiso   1.00
C235   C     0.28679   1.31229  -0.03856   0.00000  Uiso   1.00
C236   C     0.32573   1.35159  -0.03910   0.00000  Uiso   1.00
C237   C     0.36166   1.35644   0.00287   0.00000  Uiso   1.00
C238   C     0.35831   1.32058   0.04502   0.00000  Uiso   1.00
C239   C     0.31979   1.28075   0.04523   0.00000  Uiso   1.00
C240   C     0.24161   1.23444   0.00399   0.00000  Uiso   1.00
C241   C     0.25357   1.18230   0.01888   0.00000  Uiso   1.00
C242   C     0.21458   1.14293   0.01825   0.00000  Uiso   1.00
C243   C     0.16236   1.15480   0.00344   0.00000  Uiso   1.00
C244   C     0.15033   1.20713  -0.01084   0.00000  Uiso   1.00
C245   C     0.18946   1.24627  -0.01089   0.00000  Uiso   1.00
H246   H     0.32778   1.37848  -0.07224   0.00000  Uiso   1.00
H247   H     0.38558   1.32349   0.07778   0.00000  Uiso   1.00
H248   H     0.22534   1.10319   0.02965   0.00000  Uiso   1.00
H249   H     0.11067   1.21783  -0.02259   0.00000  Uiso   1.00
H250   H     0.31797   1.25395   0.07845   0.00000  Uiso   1.00
H251   H     0.29340   1.17173   0.03017   0.00000  Uiso   1.00
H252   H     0.25979   1.30959  -0.07156   0.00000  Uiso   1.00
H253   H     0.17874   1.28609  -0.02207   0.00000  Uiso   1.00
C254   C     0.28358   0.70889  -0.00157   0.00000  Uiso   1.00
C255   C     0.28990   0.67399  -0.04433   0.00000  Uiso   1.00
C256   C     0.32984   0.63560  -0.04389   0.00000  Uiso   1.00
C257   C     0.36394   0.63077  -0.00044   0.00000  Uiso   1.00
C258   C     0.35707   0.66495   0.04270   0.00000  Uiso   1.00
C259   C     0.31772   0.70384   0.04194   0.00000  Uiso   1.00
C260   C     0.24179   0.75056  -0.00232   0.00000  Uiso   1.00
C261   C     0.25316   0.80232   0.01417   0.00000  Uiso   1.00
C262   C     0.21408   0.84150   0.01364   0.00000  Uiso   1.00
C263   C     0.16227   0.82984  -0.00265   0.00000  Uiso   1.00
C264   C     0.15084   0.77799  -0.01899   0.00000  Uiso   1.00
C265   C     0.19019   0.73898  -0.01923   0.00000  Uiso   1.00
H266   H     0.33424   0.60961  -0.07752   0.00000  Uiso   1.00
H267   H     0.38249   0.66164   0.07688   0.00000  Uiso   1.00
H268   H     0.22436   0.88087   0.02667   0.00000  Uiso   1.00
H269   H     0.11147   0.76758  -0.03195   0.00000  Uiso   1.00
H270   H     0.31351   0.72960   0.07576   0.00000  Uiso   1.00
H271   H     0.29258   0.81269   0.02697   0.00000  Uiso   1.00
H272   H     0.26451   0.67702  -0.07855   0.00000  Uiso   1.00
H273   H     0.18002   0.69945  -0.03182   0.00000  Uiso   1.00
C274   C    -0.28299   0.70843   0.00532   0.00000  Uiso   1.00
C275   C    -0.31493   0.70017  -0.03934   0.00000  Uiso   1.00
C276   C    -0.35330   0.66028  -0.03972   0.00000  Uiso   1.00
C277   C    -0.36134   0.62832   0.00486   0.00000  Uiso   1.00
C278   C    -0.32983   0.63677   0.04972   0.00000  Uiso   1.00
C279   C    -0.29078   0.67606   0.04978   0.00000  Uiso   1.00
C280   C    -0.24166   0.75051   0.00538   0.00000  Uiso   1.00
C281   C    -0.19050   0.74009   0.02422   0.00000  Uiso   1.00
C282   C    -0.15139   0.77929   0.02321   0.00000  Uiso   1.00
C283   C    -0.16268   0.83026   0.00422   0.00000  Uiso   1.00
C284   C    -0.21409   0.84086  -0.01392   0.00000  Uiso   1.00
C285   C    -0.25291   0.80137  -0.01379   0.00000  Uiso   1.00
H286   H    -0.37693   0.65436  -0.07483   0.00000  Uiso   1.00
H287   H    -0.33537   0.61271   0.08459   0.00000  Uiso   1.00
H288   H    -0.11234   0.76976   0.03769   0.00000  Uiso   1.00
H289   H    -0.22418   0.87955  -0.02898   0.00000  Uiso   1.00
H290   H    -0.26713   0.68167   0.08491   0.00000  Uiso   1.00
H291   H    -0.18046   0.70124   0.03891   0.00000  Uiso   1.00
H292   H    -0.30960   0.72406  -0.07436   0.00000  Uiso   1.00
H293   H    -0.29201   0.81077  -0.02820   0.00000  Uiso   1.00
C294   C    -0.28424   1.27531  -0.00607   0.00000  Uiso   1.00
C295   C    -0.28968   1.31044  -0.04877   0.00000  Uiso   1.00
C296   C    -0.32949   1.34900  -0.04886   0.00000  Uiso   1.00
C297   C    -0.36423   1.35383  -0.00592   0.00000  Uiso   1.00
C298   C    -0.35854   1.31912   0.03696   0.00000  Uiso   1.00
C299   C    -0.31931   1.28012   0.03673   0.00000  Uiso   1.00
C300   C    -0.24235   1.23372  -0.00602   0.00000  Uiso   1.00
C301   C    -0.25388   1.18198   0.01043   0.00000  Uiso   1.00
C302   C    -0.21467   1.14294   0.01088   0.00000  Uiso   1.00
C303   C    -0.16257   1.15470  -0.00440   0.00000  Uiso   1.00
C304   C    -0.15099   1.20652  -0.02075   0.00000  Uiso   1.00
C305   C    -0.19045   1.24540  -0.02193   0.00000  Uiso   1.00
H306   H    -0.33316   1.37523  -0.08238   0.00000  Uiso   1.00
H307   H    -0.38466   1.32225   0.07063   0.00000  Uiso   1.00
H308   H    -0.22511   1.10358   0.02383   0.00000  Uiso   1.00
H309   H    -0.11141   1.21700  -0.03299   0.00000  Uiso   1.00
H310   H    -0.31588   1.25414   0.07046   0.00000  Uiso   1.00
H311   H    -0.29352   1.17152   0.02246   0.00000  Uiso   1.00
H312   H    -0.26364   1.30754  -0.08250   0.00000  Uiso   1.00
H313   H    -0.18014   1.28492  -0.03445   0.00000  Uiso   1.00
C314   C     0.00179   1.27544   0.28400   0.00000  Uiso   1.00
C315   C     0.04381   1.27982   0.32006   0.00000  Uiso   1.00
C316   C     0.04340   1.31874   0.35941   0.00000  Uiso   1.00
C317   C     0.00065   1.35374   0.36418   0.00000  Uiso   1.00
C318   C    -0.04148   1.34932   0.32842   0.00000  Uiso   1.00
C319   C    -0.04077   1.31086   0.28858   0.00000  Uiso   1.00
C320   C     0.00232   1.23402   0.24195   0.00000  Uiso   1.00
C321   C    -0.01303   1.24603   0.18998   0.00000  Uiso   1.00
C322   C    -0.01245   1.20718   0.15053   0.00000  Uiso   1.00
C323   C     0.00279   1.15504   0.16213   0.00000  Uiso   1.00
C324   C     0.01801   1.14302   0.21419   0.00000  Uiso   1.00
C325   C     0.01812   1.18206   0.25345   0.00000  Uiso   1.00
H326   H     0.07646   1.32155   0.38633   0.00000  Uiso   1.00
H327   H    -0.07492   1.37575   0.33138   0.00000  Uiso   1.00
H328   H    -0.02458   1.21792   0.11099   0.00000  Uiso   1.00
H329   H     0.03014   1.10340   0.22462   0.00000  Uiso   1.00
H330   H    -0.07396   1.30826   0.26181   0.00000  Uiso   1.00
H331   H    -0.02495   1.28574   0.17966   0.00000  Uiso   1.00
H332   H     0.07741   1.25359   0.31733   0.00000  Uiso   1.00
H333   H     0.02978   1.17135   0.29313   0.00000  Uiso   1.00
C334   C    -0.00132   1.27634  -0.28309   0.00000  Uiso   1.00
C335   C     0.04123   1.28097  -0.31852   0.00000  Uiso   1.00
C336   C     0.04188   1.32081  -0.35698   0.00000  Uiso   1.00
C337   C    -0.00029   1.35651  -0.36140   0.00000  Uiso   1.00
C338   C    -0.04304   1.35168  -0.32640   0.00000  Uiso   1.00
C339   C    -0.04339   1.31233  -0.28749   0.00000  Uiso   1.00
C340   C    -0.00181   1.23430  -0.24166   0.00000  Uiso   1.00
C341   C    -0.01775   1.24578  -0.18974   0.00000  Uiso   1.00
C342   C    -0.01770   1.20653  -0.15071   0.00000  Uiso   1.00
C343   C    -0.00240   1.15449  -0.16268   0.00000  Uiso   1.00
C344   C     0.01306   1.14290  -0.21476   0.00000  Uiso   1.00
C345   C     0.01370   1.18235  -0.25361   0.00000  Uiso   1.00
H346   H     0.07531   1.32381  -0.38342   0.00000  Uiso   1.00
H347   H    -0.07613   1.37857  -0.32921   0.00000  Uiso   1.00
H348   H    -0.02997   1.21694  -0.11112   0.00000  Uiso   1.00
H349   H     0.02531   1.10338  -0.22544   0.00000  Uiso   1.00
H350   H    -0.07699   1.30956  -0.26126   0.00000  Uiso   1.00
H351   H    -0.02951   1.28544  -0.17907   0.00000  Uiso   1.00
H352   H     0.07446   1.25425  -0.31592   0.00000  Uiso   1.00
H353   H     0.02575   1.17204  -0.29328   0.00000  Uiso   1.00
C354   C     0.00137   0.70924  -0.28400   0.00000  Uiso   1.00
C355   C    -0.04100   0.67357  -0.28836   0.00000  Uiso   1.00
C356   C    -0.04168   0.63512  -0.32821   0.00000  Uiso   1.00
C357   C     0.00030   0.63093  -0.36417   0.00000  Uiso   1.00
C358   C     0.04288   0.66618  -0.35959   0.00000  Uiso   1.00
C359   C     0.04324   0.70510  -0.32025   0.00000  Uiso   1.00
C360   C     0.00187   0.75066  -0.24196   0.00000  Uiso   1.00
C361   C     0.01713   0.80275  -0.25360   0.00000  Uiso   1.00
C362   C     0.01705   0.84178  -0.21434   0.00000  Uiso   1.00
C363   C     0.00240   0.82966  -0.16215   0.00000  Uiso   1.00
C364   C    -0.01234   0.77739  -0.15041   0.00000  Uiso   1.00
C365   C    -0.01296   0.73854  -0.18986   0.00000  Uiso   1.00
H366   H    -0.07498   0.60849  -0.33102   0.00000  Uiso   1.00
H367   H     0.07583   0.66356  -0.38667   0.00000  Uiso   1.00
H368   H     0.02876   0.88150  -0.22490   0.00000  Uiso   1.00
H369   H    -0.02401   0.76655  -0.11077   0.00000  Uiso   1.00
H370   H     0.07669   0.73154  -0.31769   0.00000  Uiso   1.00
H371   H     0.02837   0.81354  -0.29338   0.00000  Uiso   1.00
H372   H    -0.07407   0.67597  -0.26143   0.00000  Uiso   1.00
H373   H    -0.02447   0.69873  -0.17945   0.00000  Uiso   1.00
C374   C    -0.00206   0.70835   0.28312   0.00000  Uiso   1.00
C375   C    -0.04396   0.67214   0.28736   0.00000  Uiso   1.00
C376   C    -0.04355   0.63279   0.32628   0.00000  Uiso   1.00
C377   C    -0.00089   0.62816   0.36142   0.00000  Uiso   1.00
C378   C     0.04113   0.66408   0.35714   0.00000  Uiso   1.00
C379   C     0.04039   0.70393   0.31869   0.00000  Uiso   1.00
C380   C    -0.00260   0.75040   0.24171   0.00000  Uiso   1.00
C381   C     0.01249   0.80244   0.25378   0.00000  Uiso   1.00
C382   C     0.01194   0.84188   0.21492   0.00000  Uiso   1.00
C383   C    -0.00297   0.83019   0.16270   0.00000  Uiso   1.00
C384   C    -0.01794   0.77808   0.15063   0.00000  Uiso   1.00
C385   C    -0.01810   0.73883   0.18967   0.00000  Uiso   1.00
H386   H    -0.07652   0.60575   0.32897   0.00000  Uiso   1.00
H387   H     0.07449   0.66123   0.38368   0.00000  Uiso   1.00
H388   H     0.02385   0.88146   0.22572   0.00000  Uiso   1.00
H389   H    -0.02981   0.76758   0.11095   0.00000  Uiso   1.00
H390   H     0.07349   0.73082   0.31621   0.00000  Uiso   1.00
H391   H     0.02416   0.81281   0.29355   0.00000  Uiso   1.00
H392   H    -0.07748   0.67475   0.26101   0.00000  Uiso   1.00
H393   H    -0.02955   0.69910   0.17892   0.00000  Uiso   1.00
loop_
_geom_bond_atom_site_label_1
_geom_bond_atom_site_label_2
_geom_bond_distance
_geom_bond_site_symmetry_2
_ccdc_geom_bond_type
C1     C7      1.326   .     S
C1     C2      1.455   .     S
C1     N15     1.438   .     D
C2     H3      1.082   .     S
C2     C12     1.301   .     D
C4     C7      1.460   .     D
C4     C5      1.467   .     S
C4     N23     1.311   .     S
C5     H6      1.082   .     S
C5     C17     1.301   .     D
C7     C157    1.501   1_554 S
C8     C14     1.325   .     S
C8     C9      1.455   .     S
C8     N33     1.438   .     D
C9     H10     1.082   .     S
C9     C28     1.301   .     D
C11    N15     1.311   .     S
C11    C14     1.460   .     D
C11    C12     1.467   .     S
C12    H13     1.082   .     S
C14    C177    1.501   1_654 S
N15    Ni30    1.923   .     S
C16    N23     1.437   .     D
C16    C22     1.325   .     S
C16    C17     1.455   .     S
C17    H18     1.082   .     S
C19    C22     1.460   .     D
C19    C20     1.466   .     S
C19    N32     1.312   .     S
C20    H21     1.082   .     S
C20    C25     1.301   .     D
C22    C217    1.501   .     S
N23    Ni30    1.922   .     S
C24    N32     1.438   .     D
C24    C31     1.326   .     S
C24    C25     1.455   .     S
C25    H26     1.082   .     S
C27    N33     1.311   .     S
C27    C31     1.460   .     D
C27    C28     1.467   .     S
C28    H29     1.082   .     S
Ni30   N32     1.923   .     S
Ni30   N33     1.922   .     S
C31    C197    1.501   1_655 S
C34    C40     1.326   .     D
C34    C35     1.455   .     S
C34    N48     1.437   .     S
C35    H36     1.082   .     S
C35    C45     1.302   .     D
C37    C40     1.460   .     S
C37    C38     1.467   .     S
C37    N56     1.311   .     D
C38    H39     1.082   .     S
C38    C50     1.302   .     D
C40    C237    1.501   1_455 S
C41    C47     1.326   .     D
C41    C42     1.455   .     S
C41    N66     1.438   .     S
C42    H43     1.082   .     S
C42    C61     1.301   .     D
C44    N48     1.311   .     D
C44    C47     1.460   .     S
C44    C45     1.467   .     S
C45    H46     1.082   .     S
C47    C257    1.501   1_465 S
N48    Ni63    1.921   .     S
C49    N56     1.437   .     S
C49    C55     1.326   .     D
C49    C50     1.455   .     S
C50    H51     1.082   .     S
C52    C55     1.461   .     S
C52    C53     1.467   .     S
C52    N65     1.311   .     D
C53    H54     1.082   .     S
C53    C58     1.301   .     D
C55    C297    1.501   .     S
N56    Ni63    1.921   .     S
C57    N65     1.438   .     S
C57    C64     1.326   .     D
C57    C58     1.455   .     S
C58    H59     1.082   .     S
C60    N66     1.311   .     D
C60    C64     1.461   .     S
C60    C61     1.467   .     S
C61    H62     1.082   .     S
Ni63   N65     1.922   .     S
Ni63   N66     1.922   .     S
C64    C277    1.501   1_565 S
C67    C73     1.325   .     D
C67    C68     1.455   .     S
C67    N81     1.437   .     S
C68    H69     1.082   .     S
C68    C78     1.302   .     D
C70    C73     1.460   .     S
C70    C71     1.467   .     S
C70    N89     1.311   .     D
C71    H72     1.082   .     S
C71    C83     1.302   .     D
C73    C317    1.501   1_545 S
C74    C80     1.325   .     D
C74    C75     1.455   .     S
C74    N99     1.437   .     S
C75    H76     1.082   .     S
C75    C94     1.302   .     D
C77    N81     1.311   .     D
C77    C80     1.460   .     S
C77    C78     1.467   .     S
C78    H79     1.082   .     S
C80    C337    1.501   1_546 S
N81    Ni96    1.921   .     S
C82    N89     1.437   .     S
C82    C88     1.325   .     D
C82    C83     1.455   .     S
C83    H84     1.082   .     S
C85    C88     1.460   .     S
C85    C86     1.467   .     S
C85    N98     1.311   .     D
C86    H87     1.082   .     S
C86    C91     1.302   .     D
C88    C377    1.501   .     S
N89    Ni96    1.921   .     S
C90    N98     1.437   .     S
C90    C97     1.326   .     D
C90    C91     1.455   .     S
C91    H92     1.082   .     S
C93    N99     1.311   .     D
C93    C97     1.460   .     S
C93    C94     1.467   .     S
C94    H95     1.082   .     S
Ni96   N98     1.921   .     S
Ni96   N99     1.921   .     S
C97    C357    1.501   1_556 S
O100   Zr136   2.122   .     S
O100   C111    1.301   .     A
O101   Zr135   2.123   .     S
O101   C112    1.302   .     A
O102   Zr108   2.121   .     S
O102   C113    1.301   .     A
O103   Zr108   2.121   .     S
O103   C114    1.301   .     A
O104   Zr138   2.121   .     S
O104   C114    1.301   .     A
O105   Zr137   2.120   .     S
O105   C113    1.301   .     A
O106   Zr108   2.119   .     S
O106   C112    1.301   .     A
O107   Zr108   2.121   .     S
O107   C111    1.301   .     A
Zr108  O109    2.065   .     S
Zr108  O110    2.065   .     S
Zr108  O118    2.062   .     S
Zr108  O116    2.061   .     S
O109   Zr135   2.066   .     S
O109   Zr138   2.066   .     S
O110   Zr136   2.065   .     S
O110   Zr137   2.064   .     S
C111   C203    1.493   .     S
C112   C223    1.493   .     S
C113   C343    1.493   .     S
C114   C363    1.494   .     S
H115   O116    0.989   .     S
O116   Zr135   2.061   .     S
O116   Zr137   2.062   .     S
H117   O118    0.989   .     S
O118   Zr136   2.061   .     S
O118   Zr138   2.061   .     S
O119   Zr135   2.120   .     S
O119   C142    1.301   .     A
O120   Zr136   2.122   .     S
O120   C143    1.301   .     A
O121   Zr137   2.120   .     S
O121   C144    1.301   .     A
O122   Zr138   2.123   .     S
O122   C145    1.302   .     A
O123   Zr138   2.121   .     S
O123   C146    1.301   .     A
O124   Zr137   2.123   .     S
O124   C147    1.301   .     A
O125   Zr139   2.121   .     S
O125   C148    1.301   .     A
O126   Zr139   2.122   .     S
O126   C149    1.301   .     A
O127   Zr137   2.122   .     S
O127   C148    1.302   .     A
O128   Zr138   2.121   .     S
O128   C149    1.301   .     A
O129   Zr135   2.123   .     S
O129   C144    1.302   .     A
O130   Zr136   2.119   .     S
O130   C147    1.301   .     A
O131   Zr136   2.122   .     S
O131   C146    1.301   .     A
O132   Zr135   2.120   .     S
O132   C145    1.301   .     A
O133   Zr139   2.122   .     S
O133   C142    1.301   .     A
O134   Zr139   2.121   .     S
O134   C143    1.301   .     A
Zr135  O141    2.066   .     S
Zr135  O153    2.060   .     S
Zr136  O140    2.066   .     S
Zr136  O151    2.061   .     S
Zr137  O141    2.067   .     S
Zr137  O151    2.060   .     S
Zr138  O140    2.065   .     S
Zr138  O153    2.061   .     S
Zr139  O140    2.066   .     S
Zr139  O141    2.065   .     S
Zr139  O153    2.060   .     S
Zr139  O151    2.062   .     S
C142   C163    1.493   .     S
C143   C183    1.493   .     S
C144   C243    1.494   .     S
C145   C263    1.493   .     S
C146   C283    1.492   .     S
C147   C303    1.493   .     S
C148   C323    1.493   .     S
C149   C383    1.493   .     S
H150   O151    0.989   .     S
H152   O153    0.988   .     S
C154   C159    1.408   .     A
C154   C160    1.496   .     S
C154   C155    1.408   .     A
C155   C156    1.403   .     A
C155   H172    1.083   .     S
C156   C157    1.406   .     A
C156   H166    1.083   .     S
C157   C158    1.405   .     A
C157   C7      1.501   1_556 S
C158   C159    1.404   .     A
C158   H167    1.083   .     S
C159   H170    1.083   .     S
C160   C161    1.407   .     A
C160   C165    1.407   .     A
C161   C162    1.404   .     A
C161   H171    1.083   .     S
C162   C163    1.408   .     A
C162   H168    1.083   .     S
C163   C164    1.408   .     A
C164   C165    1.403   .     A
C164   H169    1.083   .     S
C165   H173    1.083   .     S
C174   C175    1.408   .     A
C174   C179    1.408   .     A
C174   C180    1.496   .     S
C175   C176    1.403   .     A
C175   H192    1.083   .     S
C176   C177    1.406   .     A
C176   H186    1.083   .     S
C177   C178    1.405   .     A
C177   C14     1.501   1_456 S
C178   C179    1.403   .     A
C178   H187    1.083   .     S
C179   H190    1.083   .     S
C180   C185    1.407   .     A
C180   C181    1.407   .     A
C181   C182    1.404   .     A
C181   H191    1.083   .     S
C182   C183    1.408   .     A
C182   H188    1.083   .     S
C183   C184    1.408   .     A
C184   C185    1.404   .     A
C184   H189    1.083   .     S
C185   H193    1.083   .     S
C194   C195    1.408   .     A
C194   C199    1.408   .     A
C194   C200    1.496   .     S
C195   C196    1.403   .     A
C195   H212    1.083   .     S
C196   C197    1.405   .     A
C196   H206    1.083   .     S
C197   C198    1.406   .     A
C197   C31     1.501   1_455 S
C198   C199    1.404   .     A
C198   H207    1.083   .     S
C199   H210    1.083   .     S
C200   C201    1.407   .     A
C200   C205    1.407   .     A
C201   C202    1.404   .     A
C201   H211    1.083   .     S
C202   C203    1.408   .     A
C202   H208    1.083   .     S
C203   C204    1.408   .     A
C204   C205    1.403   .     A
C204   H209    1.083   .     S
C205   H213    1.083   .     S
C214   C215    1.408   .     A
C214   C219    1.408   .     A
C214   C220    1.496   .     S
C215   C216    1.404   .     A
C215   H232    1.083   .     S
C216   C217    1.405   .     A
C216   H226    1.083   .     S
C217   C218    1.405   .     A
C218   C219    1.403   .     A
C218   H227    1.083   .     S
C219   H230    1.083   .     S
C220   C225    1.407   .     A
C220   C221    1.407   .     A
C221   C222    1.403   .     A
C221   H231    1.083   .     S
C222   C223    1.408   .     A
C222   H228    1.083   .     S
C223   C224    1.408   .     A
C224   C225    1.404   .     A
C224   H229    1.083   .     S
C225   H233    1.083   .     S
C234   C235    1.408   .     A
C234   C239    1.409   .     A
C234   C240    1.497   .     S
C235   C236    1.402   .     A
C235   H252    1.083   .     S
C236   C237    1.406   .     A
C236   H246    1.083   .     S
C237   C238    1.405   .     A
C237   C40     1.501   1_655 S
C238   H247    1.083   .     S
C238   C239    1.405   .     A
C239   H250    1.083   .     S
C240   C241    1.407   .     A
C240   C245    1.407   .     A
C241   C242    1.404   .     A
C241   H251    1.083   .     S
C242   C243    1.408   .     A
C242   H248    1.083   .     S
C243   C244    1.408   .     A
C244   C245    1.403   .     A
C244   H249    1.083   .     S
C245   H253    1.083   .     S
C254   C255    1.408   .     A
C254   C259    1.408   .     A
C254   C260    1.496   .     S
C255   C256    1.404   .     A
C255   H272    1.083   .     S
C256   C257    1.405   .     A
C256   H266    1.083   .     S
C257   C258    1.406   .     A
C257   C47     1.501   1_645 S
C258   C259    1.403   .     A
C258   H267    1.083   .     S
C259   H270    1.083   .     S
C260   C261    1.407   .     A
C260   C265    1.407   .     A
C261   C262    1.403   .     A
C261   H271    1.083   .     S
C262   C263    1.408   .     A
C262   H268    1.083   .     S
C263   C264    1.408   .     A
C264   H269    1.083   .     S
C264   C265    1.404   .     A
C265   H273    1.083   .     S
C274   C275    1.407   .     A
C274   C279    1.408   .     A
C274   C280    1.495   .     S
C275   C276    1.403   .     A
C275   H292    1.083   .     S
C276   C277    1.405   .     A
C276   H286    1.083   .     S
C277   C278    1.406   .     A
C277   C64     1.501   1_545 S
C278   C279    1.404   .     A
C278   H287    1.083   .     S
C279   H290    1.083   .     S
C280   C281    1.407   .     A
C280   C285    1.407   .     A
C281   C282    1.404   .     A
C281   H291    1.083   .     S
C282   C283    1.408   .     A
C282   H288    1.083   .     S
C283   C284    1.408   .     A
C284   C285    1.403   .     A
C284   H289    1.083   .     S
C285   H293    1.083   .     S
C294   C295    1.408   .     A
C294   C300    1.496   .     S
C294   C299    1.408   .     A
C295   C296    1.405   .     A
C295   H312    1.083   .     S
C296   C297    1.406   .     A
C296   H306    1.083   .     S
C297   C298    1.406   .     A
C298   C299    1.402   .     A
C298   H307    1.083   .     S
C299   H310    1.083   .     S
C300   C301    1.407   .     A
C300   C305    1.407   .     A
C301   C302    1.403   .     A
C301   H311    1.083   .     S
C302   C303    1.408   .     A
C302   H308    1.083   .     S
C303   C304    1.408   .     A
C304   H309    1.083   .     S
C304   C305    1.404   .     A
C305   H313    1.083   .     S
C314   C315    1.408   .     A
C314   C319    1.408   .     A
C314   C320    1.496   .     S
C315   C316    1.403   .     A
C315   H332    1.083   .     S
C316   C317    1.406   .     A
C316   H326    1.083   .     S
C317   C318    1.405   .     A
C317   C73     1.501   1_565 S
C318   C319    1.404   .     A
C318   H327    1.083   .     S
C319   H330    1.083   .     S
C320   C321    1.407   .     A
C320   C325    1.407   .     A
C321   C322    1.403   .     A
C321   H331    1.083   .     S
C322   C323    1.408   .     A
C322   H328    1.083   .     S
C323   C324    1.408   .     A
C324   C325    1.403   .     A
C324   H329    1.083   .     S
C325   H333    1.083   .     S
C334   C335    1.408   .     A
C334   C339    1.408   .     A
C334   C340    1.496   .     S
C335   C336    1.404   .     A
C335   H352    1.083   .     S
C336   C337    1.405   .     A
C336   H346    1.083   .     S
C337   C338    1.406   .     A
C337   C80     1.501   1_564 S
C338   C339    1.403   .     A
C338   H347    1.083   .     S
C339   H350    1.083   .     S
C340   C341    1.407   .     A
C340   C345    1.407   .     A
C341   H351    1.083   .     S
C341   C342    1.403   .     A
C342   C343    1.408   .     A
C342   H348    1.083   .     S
C343   C344    1.408   .     A
C344   C345    1.404   .     A
C344   H349    1.083   .     S
C345   H353    1.083   .     S
C354   C355    1.408   .     A
C354   C359    1.408   .     A
C354   C360    1.496   .     S
C355   C356    1.404   .     A
C355   H372    1.083   .     S
C356   C357    1.405   .     A
C356   H366    1.083   .     S
C357   C358    1.406   .     A
C357   C97     1.501   1_554 S
C358   C359    1.403   .     A
C358   H367    1.083   .     S
C359   H370    1.083   .     S
C360   C361    1.407   .     A
C360   C365    1.407   .     A
C361   C362    1.403   .     A
C361   H371    1.083   .     S
C362   C363    1.408   .     A
C362   H368    1.083   .     S
C363   C364    1.408   .     A
C364   C365    1.404   .     A
C364   H369    1.083   .     S
C365   H373    1.083   .     S
C374   C379    1.408   .     A
C374   C380    1.496   .     S
C374   C375    1.408   .     A
C375   C376    1.403   .     A
C375   H392    1.083   .     S
C376   C377    1.406   .     A
C376   H386    1.083   .     S
C377   C378    1.405   .     A
C378   C379    1.404   .     A
C378   H387    1.083   .     S
C379   H390    1.083   .     S
C380   C381    1.407   .     A
C380   C385    1.407   .     A
C381   C382    1.403   .     A
C381   H391    1.083   .     S
C382   C383    1.408   .     A
C382   H388    1.083   .     S
C383   C384    1.408   .     A
C384   C385    1.403   .     A
C384   H389    1.083   .     S
C385   H393    1.083   .     S
