data_ja512973b_si_002
_audit_creation_date              2015-10-12
_audit_creation_method            'Materials Studio'
_symmetry_space_group_name_H-M    'P1'
_symmetry_Int_Tables_number       1
_symmetry_cell_setting            triclinic
loop_
_symmetry_equiv_pos_as_xyz
  x,y,z
_cell_length_a                    24.3050
_cell_length_b                    24.3050
_cell_length_c                    24.3050
_cell_angle_alpha                 90.0000
_cell_angle_beta                  90.0000
_cell_angle_gamma                 90.0000
loop_
_atom_site_label
_atom_site_type_symbol
_atom_site_fract_x
_atom_site_fract_y
_atom_site_fract_z
_atom_site_U_iso_or_equiv
_atom_site_adp_type
_atom_site_occupancy
X1     C     0.38476   0.98896  -0.55525   0.00000  Uiso   1.00
C2     C     0.35648   0.98832  -0.50508   0.00000  Uiso   1.00
X3     C     0.38462   0.98914  -0.45487   0.00000  Uiso   1.00
C4     C     0.44282   0.99051  -0.45445   0.00000  Uiso   1.00
C5     C     0.47201   0.99100  -0.50500   0.00000  Uiso   1.00
C6     C     0.44292   0.99022  -0.55558   0.00000  Uiso   1.00
C7     C     0.47272   0.99009  -0.60516   0.00000  Uiso   1.00
C8     C     0.52996   0.99124  -0.60512   0.00000  Uiso   1.00
C9     C     0.55963   0.99200  -0.55549   0.00000  Uiso   1.00
C10    C     0.53044   0.99197  -0.50496   0.00000  Uiso   1.00
C11    C     0.47252   0.99121  -0.40483   0.00000  Uiso   1.00
C12    C     0.52976   0.99292  -0.40479   0.00000  Uiso   1.00
C13    C     0.55954   0.99305  -0.45438   0.00000  Uiso   1.00
X14    C     0.61769   0.99473  -0.45474   0.00000  Uiso   1.00
C15    C     0.64597   0.99459  -0.50491   0.00000  Uiso   1.00
X16    C     0.61782   0.99287  -0.55509   0.00000  Uiso   1.00
H17    H     0.45206   0.98895  -0.64459   0.00000  Uiso   1.00
H18    H     0.55075   0.99145  -0.64450   0.00000  Uiso   1.00
H19    H     0.45176   0.99065  -0.36545   0.00000  Uiso   1.00
H20    H     0.55045   0.99405  -0.36538   0.00000  Uiso   1.00
H21    H     0.31186   0.98722  -0.50513   0.00000  Uiso   1.00
H22    H     0.69059   0.99565  -0.50487   0.00000  Uiso   1.00
X23    C    -0.61462   1.44073  -0.00729   0.00000  Uiso   1.00
C24    C    -0.64305   1.49080  -0.00566   0.00000  Uiso   1.00
X25    C    -0.61507   1.54109  -0.00414   0.00000  Uiso   1.00
C26    C    -0.55688   1.54167  -0.00291   0.00000  Uiso   1.00
C27    C    -0.52751   1.49127  -0.00476   0.00000  Uiso   1.00
C28    C    -0.55642   1.44062  -0.00727   0.00000  Uiso   1.00
C29    C    -0.52642   1.39126  -0.01044   0.00000  Uiso   1.00
C30    C    -0.46915   1.39153  -0.01036   0.00000  Uiso   1.00
C31    C    -0.43965   1.44116  -0.00699   0.00000  Uiso   1.00
C32    C    -0.46906   1.49152  -0.00442   0.00000  Uiso   1.00
C33    C    -0.52738   1.59133   0.00016   0.00000  Uiso   1.00
C34    C    -0.47011   1.59156   0.00075   0.00000  Uiso   1.00
C35    C    -0.44016   1.54215  -0.00184   0.00000  Uiso   1.00
X36    C    -0.38197   1.54204  -0.00192   0.00000  Uiso   1.00
C37    C    -0.35349   1.49207  -0.00407   0.00000  Uiso   1.00
X38    C    -0.38146   1.44182  -0.00682   0.00000  Uiso   1.00
H39    H    -0.54697   1.35187  -0.01337   0.00000  Uiso   1.00
H40    H    -0.44819   1.35234  -0.01315   0.00000  Uiso   1.00
H41    H    -0.54837   1.63056   0.00222   0.00000  Uiso   1.00
H42    H    -0.44949   1.63096   0.00317   0.00000  Uiso   1.00
H43    H    -0.68769   1.49061  -0.00610   0.00000  Uiso   1.00
H44    H    -0.30886   1.49230  -0.00414   0.00000  Uiso   1.00
X45    C    -0.00008   0.44242   0.37749   0.00000  Uiso   1.00
C46    C    -0.00094   0.49295   0.34986   0.00000  Uiso   1.00
X47    C    -0.00130   0.54284   0.37863   0.00000  Uiso   1.00
C48    C    -0.00108   0.54256   0.43685   0.00000  Uiso   1.00
C49    C    -0.00063   0.49167   0.46544   0.00000  Uiso   1.00
C50    C    -0.00061   0.44143   0.43571   0.00000  Uiso   1.00
C51    C    -0.00170   0.39151   0.46491   0.00000  Uiso   1.00
C52    C    -0.00222   0.39088   0.52217   0.00000  Uiso   1.00
C53    C    -0.00136   0.44014   0.55249   0.00000  Uiso   1.00
C54    C    -0.00068   0.49103   0.52391   0.00000  Uiso   1.00
C55    C    -0.00190   0.59182   0.46716   0.00000  Uiso   1.00
C56    C    -0.00153   0.59120   0.52443   0.00000  Uiso   1.00
C57    C    -0.00061   0.54128   0.55363   0.00000  Uiso   1.00
X58    C    -0.00018   0.54029   0.61186   0.00000  Uiso   1.00
C59    C    -0.00125   0.48976   0.63947   0.00000  Uiso   1.00
X60    C    -0.00208   0.43987   0.61068   0.00000  Uiso   1.00
H61    H    -0.00249   0.35237   0.44369   0.00000  Uiso   1.00
H62    H    -0.00345   0.35127   0.54247   0.00000  Uiso   1.00
H63    H    -0.00287   0.63143   0.44685   0.00000  Uiso   1.00
H64    H    -0.00226   0.63035   0.54563   0.00000  Uiso   1.00
H65    H    -0.00099   0.49347   0.30523   0.00000  Uiso   1.00
H66    H    -0.00153   0.48922   0.68410   0.00000  Uiso   1.00
O67    O    -0.14075   0.99286  -0.08023   0.00000  Uiso   1.00
O68    O     0.14345   0.98795  -0.08027   0.00000  Uiso   1.00
O69    O    -0.00010   1.06459  -0.14763   0.00000  Uiso   1.00
O70    O     0.00250   0.91464  -0.14593   0.00000  Uiso   1.00
O71    O     0.00234   0.84939  -0.07727   0.00000  Uiso   1.00
O72    O    -0.00041   1.13137  -0.08043   0.00000  Uiso   1.00
O73    O     0.07548   0.98680  -0.14656   0.00000  Uiso   1.00
O74    O    -0.07281   0.99230  -0.14654   0.00000  Uiso   1.00
Zr75   Zr    0.00134   0.99011  -0.10195   0.00000  Uiso   1.00
O76    O     0.05142   0.94088  -0.05448   0.00000  Uiso   1.00
O77    O    -0.04866   1.04040  -0.05553   0.00000  Uiso   1.00
X78    C    -0.12390   0.99361  -0.13107   0.00000  Uiso   1.00
X79    C     0.12657   0.98591  -0.13107   0.00000  Uiso   1.00
X80    C    -0.00134   1.11558  -0.13135   0.00000  Uiso   1.00
X81    C     0.00300   0.86401  -0.12857   0.00000  Uiso   1.00
H82    H     0.07491   1.06312  -0.07926   0.00000  Uiso   1.00
O83    O     0.05157   1.03984  -0.05543   0.00000  Uiso   1.00
H84    H    -0.07243   0.91767  -0.07737   0.00000  Uiso   1.00
O85    O    -0.04894   0.94152  -0.05425   0.00000  Uiso   1.00
O86    O     0.14348   0.99327   0.07017   0.00000  Uiso   1.00
O87    O    -0.14069   0.99100   0.07037   0.00000  Uiso   1.00
O88    O     0.07568   1.13201  -0.00511   0.00000  Uiso   1.00
O89    O     0.07459   0.84997  -0.00516   0.00000  Uiso   1.00
O90    O    -0.07293   0.85061  -0.00112   0.00000  Uiso   1.00
O91    O    -0.07194   1.13252  -0.00891   0.00000  Uiso   1.00
O92    O     0.00343   1.06793   0.13562   0.00000  Uiso   1.00
O93    O    -0.00103   0.91798   0.13732   0.00000  Uiso   1.00
O94    O     0.00350   1.13318   0.06697   0.00000  Uiso   1.00
O95    O    -0.00171   0.85117   0.07014   0.00000  Uiso   1.00
O96    O     0.14372   1.06599  -0.00421   0.00000  Uiso   1.00
O97    O    -0.14042   1.06693  -0.00763   0.00000  Uiso   1.00
O98    O    -0.14100   0.91660  -0.00205   0.00000  Uiso   1.00
O99    O     0.14315   0.91546  -0.00589   0.00000  Uiso   1.00
O100   O     0.07547   0.99414   0.13637   0.00000  Uiso   1.00
O101   O    -0.07257   0.99167   0.13647   0.00000  Uiso   1.00
Zr102  Zr    0.09913   0.99091  -0.00508   0.00000  Uiso   1.00
Zr103  Zr   -0.09641   0.99161  -0.00500   0.00000  Uiso   1.00
Zr104  Zr    0.00173   1.08706  -0.00622   0.00000  Uiso   1.00
Zr105  Zr    0.00097   0.89550  -0.00405   0.00000  Uiso   1.00
Zr106  Zr    0.00143   0.99244   0.09170   0.00000  Uiso   1.00
O107   O    -0.04900   0.94248   0.04542   0.00000  Uiso   1.00
O108   O     0.05189   1.04136   0.04430   0.00000  Uiso   1.00
X109   C     0.12658   0.99440   0.12100   0.00000  Uiso   1.00
X110   C    -0.12371   0.99098   0.12120   0.00000  Uiso   1.00
X111   C     0.12682   1.11680  -0.00414   0.00000  Uiso   1.00
X112   C     0.12586   0.86478  -0.00600   0.00000  Uiso   1.00
X113   C    -0.12404   0.86586  -0.00014   0.00000  Uiso   1.00
X114   C    -0.12318   1.11758  -0.00944   0.00000  Uiso   1.00
X115   C     0.00414   1.11857   0.11826   0.00000  Uiso   1.00
X116   C    -0.00278   0.86702   0.12104   0.00000  Uiso   1.00
H117   H    -0.07162   1.06550   0.06715   0.00000  Uiso   1.00
O118   O    -0.04843   1.04140   0.04401   0.00000  Uiso   1.00
H119   H     0.07420   0.91868   0.06894   0.00000  Uiso   1.00
O120   O     0.05116   0.94229   0.04514   0.00000  Uiso   1.00
C121   C     0.28537   0.99251   0.29836   0.00000  Uiso   1.00
C122   C     0.29088   0.94342   0.32820   0.00000  Uiso   1.00
C123   C     0.32413   0.94058   0.37523   0.00000  Uiso   1.00
X124   C     0.35194   0.98836   0.39330   0.00000  Uiso   1.00
C125   C     0.34696   1.03735   0.36314   0.00000  Uiso   1.00
C126   C     0.31400   1.03999   0.31574   0.00000  Uiso   1.00
C127   C     0.24570   0.99402   0.25223   0.00000  Uiso   1.00
C128   C     0.18954   0.98831   0.26345   0.00000  Uiso   1.00
C129   C     0.15121   0.98889   0.22082   0.00000  Uiso   1.00
X130   C     0.16821   0.99479   0.16572   0.00000  Uiso   1.00
C131   C     0.22477   1.00031   0.15450   0.00000  Uiso   1.00
C132   C     0.26324   0.99994   0.19751   0.00000  Uiso   1.00
C133   C     0.32858   0.88608   0.40451   0.00000  Uiso   1.00
H134   H     0.36827   1.07385   0.37738   0.00000  Uiso   1.00
H135   H     0.10814   0.98425   0.23124   0.00000  Uiso   1.00
H136   H     0.23929   1.00483   0.11263   0.00000  Uiso   1.00
C137   C     0.30800   1.09391   0.28576   0.00000  Uiso   1.00
H138   H     0.17536   0.98352   0.30545   0.00000  Uiso   1.00
H139   H     0.26864   0.90709   0.31489   0.00000  Uiso   1.00
H140   H     0.30663   1.00376   0.18814   0.00000  Uiso   1.00
H141   H     0.34266   0.85409   0.37508   0.00000  Uiso   1.00
H142   H     0.28759   0.87415   0.42078   0.00000  Uiso   1.00
H143   H     0.35817   0.88675   0.43919   0.00000  Uiso   1.00
H144   H     0.33118   1.12743   0.30645   0.00000  Uiso   1.00
H145   H     0.26397   1.10598   0.28424   0.00000  Uiso   1.00
H146   H     0.32407   1.08991   0.24323   0.00000  Uiso   1.00
C147   C    -0.28204   0.99556   0.29899   0.00000  Uiso   1.00
C148   C    -0.30784   0.94651   0.31495   0.00000  Uiso   1.00
C149   C    -0.34103   0.94427   0.36216   0.00000  Uiso   1.00
X150   C    -0.34919   0.99262   0.39356   0.00000  Uiso   1.00
C151   C    -0.32456   1.04198   0.37671   0.00000  Uiso   1.00
C152   C    -0.29104   1.04406   0.32975   0.00000  Uiso   1.00
C153   C    -0.24247   0.99421   0.25280   0.00000  Uiso   1.00
C154   C    -0.26027   0.98788   0.19823   0.00000  Uiso   1.00
C155   C    -0.22195   0.98677   0.15507   0.00000  Uiso   1.00
X156   C    -0.16525   0.99139   0.16606   0.00000  Uiso   1.00
C157   C    -0.14797   0.99690   0.22112   0.00000  Uiso   1.00
C158   C    -0.18613   0.99821   0.26389   0.00000  Uiso   1.00
C159   C    -0.36554   0.88953   0.37793   0.00000  Uiso   1.00
H160   H    -0.33127   1.07893   0.40080   0.00000  Uiso   1.00
H161   H    -0.23668   0.98225   0.11327   0.00000  Uiso   1.00
H162   H    -0.10478   1.00050   0.23145   0.00000  Uiso   1.00
C163   C    -0.26563   1.09802   0.31284   0.00000  Uiso   1.00
H164   H    -0.30374   0.98428   0.18912   0.00000  Uiso   1.00
H165   H    -0.30059   0.90930   0.29141   0.00000  Uiso   1.00
H166   H    -0.17170   1.00232   0.30586   0.00000  Uiso   1.00
H167   H    -0.33213   0.85883   0.38326   0.00000  Uiso   1.00
H168   H    -0.39353   0.87530   0.34475   0.00000  Uiso   1.00
H169   H    -0.38926   0.89109   0.41683   0.00000  Uiso   1.00
H170   H    -0.27964   1.13239   0.33950   0.00000  Uiso   1.00
H171   H    -0.27741   1.10779   0.26979   0.00000  Uiso   1.00
H172   H    -0.22016   1.09557   0.31585   0.00000  Uiso   1.00
C173   C    -0.28272   0.99569  -0.30843   0.00000  Uiso   1.00
C174   C    -0.29046   1.04447  -0.33829   0.00000  Uiso   1.00
C175   C    -0.32380   1.04577  -0.38535   0.00000  Uiso   1.00
X176   C    -0.34948   0.99679  -0.40336   0.00000  Uiso   1.00
C177   C    -0.34225   0.94809  -0.37323   0.00000  Uiso   1.00
C178   C    -0.30913   0.94693  -0.32589   0.00000  Uiso   1.00
C179   C    -0.24313   0.99596  -0.26217   0.00000  Uiso   1.00
C180   C    -0.26038   0.98757  -0.20768   0.00000  Uiso   1.00
C181   C    -0.22194   0.98732  -0.16468   0.00000  Uiso   1.00
X182   C    -0.16564   0.99541  -0.17562   0.00000  Uiso   1.00
C183   C    -0.14897   1.00464  -0.23035   0.00000  Uiso   1.00
C184   C    -0.18731   1.00506  -0.27302   0.00000  Uiso   1.00
C185   C    -0.33054   1.09994  -0.41480   0.00000  Uiso   1.00
H186   H    -0.36191   0.91067  -0.38747   0.00000  Uiso   1.00
H187   H    -0.23621   0.98026  -0.12306   0.00000  Uiso   1.00
H188   H    -0.10611   1.01151  -0.24044   0.00000  Uiso   1.00
C189   C    -0.30052   0.89322  -0.29615   0.00000  Uiso   1.00
H190   H    -0.30353   0.98128  -0.19851   0.00000  Uiso   1.00
H191   H    -0.26991   1.08178  -0.32500   0.00000  Uiso   1.00
H192   H    -0.17333   1.01191  -0.31480   0.00000  Uiso   1.00
H193   H    -0.29000   1.11379  -0.43067   0.00000  Uiso   1.00
H194   H    -0.34645   1.13126  -0.38559   0.00000  Uiso   1.00
H195   H    -0.35965   1.09777  -0.44983   0.00000  Uiso   1.00
H196   H    -0.31709   0.89610  -0.25372   0.00000  Uiso   1.00
H197   H    -0.25592   0.88345  -0.29437   0.00000  Uiso   1.00
H198   H    -0.32174   0.85865  -0.31718   0.00000  Uiso   1.00
C199   C     0.28549   0.97996  -0.30833   0.00000  Uiso   1.00
C200   C     0.31019   1.03003  -0.32312   0.00000  Uiso   1.00
C201   C     0.34290   1.03444  -0.37051   0.00000  Uiso   1.00
X202   C     0.35165   0.98734  -0.40354   0.00000  Uiso   1.00
C203   C     0.32802   0.93705  -0.38812   0.00000  Uiso   1.00
C204   C     0.29546   0.93258  -0.34071   0.00000  Uiso   1.00
C205   C     0.24586   0.97972  -0.26202   0.00000  Uiso   1.00
C206   C     0.19035   0.96798  -0.27217   0.00000  Uiso   1.00
C207   C     0.15204   0.96947  -0.22948   0.00000  Uiso   1.00
X208   C     0.16832   0.98295  -0.17554   0.00000  Uiso   1.00
C209   C     0.22414   0.99452  -0.16537   0.00000  Uiso   1.00
C210   C     0.26254   0.99331  -0.20841   0.00000  Uiso   1.00
C211   C     0.36628   1.09010  -0.38471   0.00000  Uiso   1.00
H212   H     0.33521   0.90091  -0.41329   0.00000  Uiso   1.00
H213   H     0.10950   0.96012  -0.23891   0.00000  Uiso   1.00
H214   H     0.23799   1.00532  -0.12442   0.00000  Uiso   1.00
C215   C     0.27302   0.87662  -0.32614   0.00000  Uiso   1.00
H216   H     0.17663   0.95805  -0.31340   0.00000  Uiso   1.00
H217   H     0.30234   1.06643  -0.29853   0.00000  Uiso   1.00
H218   H     0.30522   1.00294  -0.19997   0.00000  Uiso   1.00
H219   H     0.39429   1.10377  -0.35131   0.00000  Uiso   1.00
H220   H     0.33227   1.12033  -0.38878   0.00000  Uiso   1.00
H221   H     0.38969   1.09021  -0.42382   0.00000  Uiso   1.00
H222   H     0.24237   0.86383  -0.35750   0.00000  Uiso   1.00
H223   H     0.25332   0.87553  -0.28503   0.00000  Uiso   1.00
H224   H     0.30709   0.84617  -0.32553   0.00000  Uiso   1.00
C225   C     0.28577   1.29431  -0.00572   0.00000  Uiso   1.00
C226   C     0.28979   1.32588  -0.05388   0.00000  Uiso   1.00
C227   C     0.32316   1.37288  -0.05618   0.00000  Uiso   1.00
X228   C     0.35266   1.38918  -0.00877   0.00000  Uiso   1.00
C229   C     0.34920   1.35727   0.03924   0.00000  Uiso   1.00
C230   C     0.31610   1.30993   0.04135   0.00000  Uiso   1.00
C231   C     0.24604   1.24814  -0.00454   0.00000  Uiso   1.00
C232   C     0.26362   1.19328  -0.00015   0.00000  Uiso   1.00
C233   C     0.22513   1.15028   0.00019   0.00000  Uiso   1.00
X234   C     0.16846   1.16157  -0.00393   0.00000  Uiso   1.00
C235   C     0.15139   1.21680  -0.00841   0.00000  Uiso   1.00
C236   C     0.18975   1.25945  -0.00889   0.00000  Uiso   1.00
C237   C     0.32590   1.40407  -0.10973   0.00000  Uiso   1.00
H238   H     0.37175   1.37016   0.07550   0.00000  Uiso   1.00
H239   H     0.23975   1.10833   0.00355   0.00000  Uiso   1.00
H240   H     0.10824   1.22731  -0.01184   0.00000  Uiso   1.00
C241   C     0.31171   1.27821   0.09442   0.00000  Uiso   1.00
H242   H     0.30707   1.18379   0.00253   0.00000  Uiso   1.00
H243   H     0.26631   1.31393  -0.08990   0.00000  Uiso   1.00
H244   H     0.17548   1.30153  -0.01249   0.00000  Uiso   1.00
H245   H     0.28464   1.42101  -0.11961   0.00000  Uiso   1.00
H246   H     0.33863   1.37572  -0.14322   0.00000  Uiso   1.00
H247   H     0.35577   1.43851  -0.10887   0.00000  Uiso   1.00
H248   H     0.32767   1.23585   0.08859   0.00000  Uiso   1.00
H249   H     0.26805   1.27626   0.10775   0.00000  Uiso   1.00
H250   H     0.33586   1.29783   0.12789   0.00000  Uiso   1.00
C251   C     0.28361   0.68629  -0.00144   0.00000  Uiso   1.00
C252   C     0.31160   0.67190  -0.04978   0.00000  Uiso   1.00
C253   C     0.34527   0.62501  -0.05193   0.00000  Uiso   1.00
X254   C     0.35172   0.59233  -0.00417   0.00000  Uiso   1.00
C255   C     0.32488   0.60759   0.04455   0.00000  Uiso   1.00
C256   C     0.29087   0.65423   0.04652   0.00000  Uiso   1.00
C257   C     0.24408   0.73256  -0.00304   0.00000  Uiso   1.00
C258   C     0.18759   0.72158  -0.00109   0.00000  Uiso   1.00
C259   C     0.14957   0.76452  -0.00242   0.00000  Uiso   1.00
X260   C     0.16716   0.81966  -0.00591   0.00000  Uiso   1.00
C261   C     0.22401   0.83053  -0.00867   0.00000  Uiso   1.00
C262   C     0.26217   0.78722  -0.00750   0.00000  Uiso   1.00
C263   C     0.37209   0.61091  -0.10605   0.00000  Uiso   1.00
H264   H     0.33023   0.58252   0.08106   0.00000  Uiso   1.00
H265   H     0.10626   0.75429  -0.00043   0.00000  Uiso   1.00
H266   H     0.23901   0.87237  -0.01160   0.00000  Uiso   1.00
C267   C     0.26315   0.66945   0.09985   0.00000  Uiso   1.00
H268   H     0.17293   0.67957   0.00149   0.00000  Uiso   1.00
H269   H     0.30576   0.69644  -0.08658   0.00000  Uiso   1.00
H270   H     0.30574   0.79629  -0.00954   0.00000  Uiso   1.00
H271   H     0.40039   0.64464  -0.11821   0.00000  Uiso   1.00
H272   H     0.33998   0.60623  -0.13821   0.00000  Uiso   1.00
H273   H     0.39600   0.57212  -0.10463   0.00000  Uiso   1.00
H274   H     0.21785   0.66612   0.09548   0.00000  Uiso   1.00
H275   H     0.27412   0.71231   0.11124   0.00000  Uiso   1.00
H276   H     0.27603   0.64198   0.13403   0.00000  Uiso   1.00
C277   C    -0.28203   0.68785   0.00611   0.00000  Uiso   1.00
C278   C    -0.30675   0.67283  -0.04382   0.00000  Uiso   1.00
C279   C    -0.34001   0.62580  -0.04770   0.00000  Uiso   1.00
X280   C    -0.34927   0.59351  -0.00019   0.00000  Uiso   1.00
C281   C    -0.32590   0.60942   0.05008   0.00000  Uiso   1.00
C282   C    -0.29238   0.65631   0.05386   0.00000  Uiso   1.00
C283   C    -0.24263   0.73427   0.00640   0.00000  Uiso   1.00
C284   C    -0.26021   0.78840  -0.00341   0.00000  Uiso   1.00
C285   C    -0.22201   0.83163  -0.00485   0.00000  Uiso   1.00
X286   C    -0.16557   0.82114   0.00281   0.00000  Uiso   1.00
C287   C    -0.14845   0.76662   0.01251   0.00000  Uiso   1.00
C288   C    -0.18653   0.72376   0.01409   0.00000  Uiso   1.00
C289   C    -0.36347   0.61118  -0.10322   0.00000  Uiso   1.00
H290   H    -0.33356   0.58467   0.08639   0.00000  Uiso   1.00
H291   H    -0.23656   0.87301  -0.01265   0.00000  Uiso   1.00
H292   H    -0.10543   0.75679   0.01864   0.00000  Uiso   1.00
C293   C    -0.26870   0.67240   0.10886   0.00000  Uiso   1.00
H294   H    -0.30342   0.79708  -0.00999   0.00000  Uiso   1.00
H295   H    -0.29863   0.69702  -0.08043   0.00000  Uiso   1.00
H296   H    -0.17211   0.68209   0.02066   0.00000  Uiso   1.00
H297   H    -0.32942   0.60578  -0.13320   0.00000  Uiso   1.00
H298   H    -0.39062   0.64497  -0.11761   0.00000  Uiso   1.00
H299   H    -0.38785   0.57266  -0.10279   0.00000  Uiso   1.00
H300   H    -0.28030   0.71549   0.11865   0.00000  Uiso   1.00
H301   H    -0.22323   0.66880   0.10810   0.00000  Uiso   1.00
H302   H    -0.28429   0.64561   0.14244   0.00000  Uiso   1.00
C303   C    -0.28105   1.29600  -0.01013   0.00000  Uiso   1.00
C304   C    -0.28777   1.32744  -0.05808   0.00000  Uiso   1.00
C305   C    -0.32127   1.37441  -0.05864   0.00000  Uiso   1.00
X306   C    -0.34828   1.39068  -0.00976   0.00000  Uiso   1.00
C307   C    -0.34202   1.35904   0.03810   0.00000  Uiso   1.00
C308   C    -0.30864   1.31185   0.03856   0.00000  Uiso   1.00
C309   C    -0.24163   1.24952  -0.01108   0.00000  Uiso   1.00
C310   C    -0.18565   1.26017  -0.01956   0.00000  Uiso   1.00
C311   C    -0.14755   1.21724  -0.01953   0.00000  Uiso   1.00
X312   C    -0.16462   1.16247  -0.01129   0.00000  Uiso   1.00
C313   C    -0.22106   1.15176  -0.00395   0.00000  Uiso   1.00
C314   C    -0.25925   1.19498  -0.00388   0.00000  Uiso   1.00
C315   C    -0.32680   1.40564  -0.11195   0.00000  Uiso   1.00
H316   H    -0.36263   1.37199   0.07548   0.00000  Uiso   1.00
H317   H    -0.10456   1.22719  -0.02577   0.00000  Uiso   1.00
H318   H    -0.23567   1.11014   0.00229   0.00000  Uiso   1.00
C319   C    -0.30101   1.28061   0.09156   0.00000  Uiso   1.00
H320   H    -0.17137   1.30197  -0.02553   0.00000  Uiso   1.00
H321   H    -0.26633   1.31541  -0.09532   0.00000  Uiso   1.00
H322   H    -0.30251   1.18592   0.00178   0.00000  Uiso   1.00
H323   H    -0.34192   1.37747  -0.14458   0.00000  Uiso   1.00
H324   H    -0.28598   1.42201  -0.12431   0.00000  Uiso   1.00
H325   H    -0.35601   1.44056  -0.10930   0.00000  Uiso   1.00
H326   H    -0.32279   1.30073   0.12634   0.00000  Uiso   1.00
H327   H    -0.25660   1.27847   0.10206   0.00000  Uiso   1.00
H328   H    -0.31763   1.23833   0.08727   0.00000  Uiso   1.00
C329   C    -0.00067   1.29743   0.27564   0.00000  Uiso   1.00
C330   C     0.04743   1.31235   0.30376   0.00000  Uiso   1.00
C331   C     0.04898   1.35924   0.33748   0.00000  Uiso   1.00
X332   C     0.00082   1.39138   0.34389   0.00000  Uiso   1.00
C333   C    -0.04762   1.37564   0.31677   0.00000  Uiso   1.00
C334   C    -0.04896   1.32903   0.28269   0.00000  Uiso   1.00
C335   C     0.00144   1.25108   0.23620   0.00000  Uiso   1.00
C336   C     0.00512   1.19642   0.25444   0.00000  Uiso   1.00
C337   C     0.00633   1.15302   0.21638   0.00000  Uiso   1.00
X338   C     0.00439   1.16379   0.15947   0.00000  Uiso   1.00
C339   C     0.00176   1.21894   0.14174   0.00000  Uiso   1.00
C340   C     0.00036   1.26197   0.17967   0.00000  Uiso   1.00
C341   C     0.10287   1.37391   0.36443   0.00000  Uiso   1.00
H342   H    -0.08443   1.40028   0.32204   0.00000  Uiso   1.00
H343   H     0.00856   1.11117   0.23149   0.00000  Uiso   1.00
H344   H     0.00038   1.22909   0.09838   0.00000  Uiso   1.00
C345   C    -0.10197   1.31334   0.25464   0.00000  Uiso   1.00
H346   H     0.00641   1.18741   0.29806   0.00000  Uiso   1.00
H347   H     0.08450   1.28819   0.29803   0.00000  Uiso   1.00
H348   H    -0.00174   1.30398   0.16491   0.00000  Uiso   1.00
H349   H     0.13511   1.37873   0.33242   0.00000  Uiso   1.00
H350   H     0.11522   1.34041   0.39292   0.00000  Uiso   1.00
H351   H     0.10103   1.41280   0.38815   0.00000  Uiso   1.00
H352   H    -0.11315   1.27044   0.26566   0.00000  Uiso   1.00
H353   H    -0.09728   1.31655   0.20935   0.00000  Uiso   1.00
H354   H    -0.13644   1.34062   0.26716   0.00000  Uiso   1.00
C355   C    -0.00351   1.29262  -0.29084   0.00000  Uiso   1.00
C356   C    -0.05203   1.32309  -0.29787   0.00000  Uiso   1.00
C357   C    -0.05318   1.37042  -0.33085   0.00000  Uiso   1.00
X358   C    -0.00431   1.38811  -0.35698   0.00000  Uiso   1.00
C359   C     0.04410   1.35732  -0.35058   0.00000  Uiso   1.00
C360   C     0.04513   1.30972  -0.31776   0.00000  Uiso   1.00
C361   C    -0.00378   1.24633  -0.25117   0.00000  Uiso   1.00
C362   C     0.00435   1.19173  -0.26828   0.00000  Uiso   1.00
C363   C     0.00459   1.14879  -0.22969   0.00000  Uiso   1.00
X364   C    -0.00326   1.15992  -0.17339   0.00000  Uiso   1.00
C365   C    -0.01231   1.21475  -0.15689   0.00000  Uiso   1.00
C366   C    -0.01270   1.25731  -0.19535   0.00000  Uiso   1.00
C367   C    -0.10709   1.40053  -0.33669   0.00000  Uiso   1.00
H368   H     0.08145   1.37128  -0.37057   0.00000  Uiso   1.00
H369   H     0.01144   1.10710  -0.24383   0.00000  Uiso   1.00
H370   H    -0.01902   1.22502  -0.11406   0.00000  Uiso   1.00
C371   C     0.09861   1.27937  -0.30995   0.00000  Uiso   1.00
H372   H     0.01043   1.18240  -0.31141   0.00000  Uiso   1.00
H373   H    -0.08924   1.31012  -0.27693   0.00000  Uiso   1.00
H374   H    -0.01938   1.29914  -0.18144   0.00000  Uiso   1.00
H375   H    -0.12023   1.41629  -0.29588   0.00000  Uiso   1.00
H376   H    -0.13895   1.37178  -0.35238   0.00000  Uiso   1.00
H377   H    -0.10490   1.43571  -0.36561   0.00000  Uiso   1.00
H378   H     0.09512   1.23710  -0.32679   0.00000  Uiso   1.00
H379   H     0.10886   1.27719  -0.26548   0.00000  Uiso   1.00
H380   H     0.13316   1.30019  -0.33142   0.00000  Uiso   1.00
C381   C    -0.00150   0.68516  -0.28607   0.00000  Uiso   1.00
C382   C     0.04668   0.67053  -0.31423   0.00000  Uiso   1.00
C383   C     0.04847   0.62371  -0.34804   0.00000  Uiso   1.00
X384   C     0.00049   0.59132  -0.35451   0.00000  Uiso   1.00
C385   C    -0.04804   0.60679  -0.32740   0.00000  Uiso   1.00
C386   C    -0.04964   0.65335  -0.29326   0.00000  Uiso   1.00
C387   C     0.00037   0.73150  -0.24657   0.00000  Uiso   1.00
C388   C     0.00518   0.78612  -0.26472   0.00000  Uiso   1.00
C389   C     0.00630   0.82951  -0.22664   0.00000  Uiso   1.00
X390   C     0.00312   0.81878  -0.16978   0.00000  Uiso   1.00
C391   C    -0.00062   0.76369  -0.15211   0.00000  Uiso   1.00
C392   C    -0.00189   0.72067  -0.19006   0.00000  Uiso   1.00
C393   C     0.10244   0.60938  -0.37503   0.00000  Uiso   1.00
H394   H    -0.08472   0.58198  -0.33274   0.00000  Uiso   1.00
H395   H     0.00950   0.87131  -0.24171   0.00000  Uiso   1.00
H396   H    -0.00293   0.75357  -0.10878   0.00000  Uiso   1.00
C397   C    -0.10284   0.66880  -0.26540   0.00000  Uiso   1.00
H398   H     0.00747   0.79511  -0.30831   0.00000  Uiso   1.00
H399   H     0.08363   0.69487  -0.30845   0.00000  Uiso   1.00
H400   H    -0.00474   0.67870  -0.17532   0.00000  Uiso   1.00
H401   H     0.13471   0.60468  -0.34304   0.00000  Uiso   1.00
H402   H     0.11460   0.64302  -0.40345   0.00000  Uiso   1.00
H403   H     0.10080   0.57054  -0.39883   0.00000  Uiso   1.00
H404   H    -0.13720   0.64158  -0.27831   0.00000  Uiso   1.00
H405   H    -0.11400   0.71177  -0.27622   0.00000  Uiso   1.00
H406   H    -0.09843   0.66529  -0.22012   0.00000  Uiso   1.00
C407   C    -0.00983   0.69030   0.28067   0.00000  Uiso   1.00
C408   C     0.03988   0.67567   0.30618   0.00000  Uiso   1.00
C409   C     0.04404   0.62806   0.33864   0.00000  Uiso   1.00
X410   C    -0.00295   0.59459   0.34624   0.00000  Uiso   1.00
C411   C    -0.05294   0.60992   0.32193   0.00000  Uiso   1.00
C412   C    -0.05718   0.65757   0.28967   0.00000  Uiso   1.00
C413   C    -0.00961   0.73656   0.24092   0.00000  Uiso   1.00
C414   C    -0.02089   0.72622   0.18535   0.00000  Uiso   1.00
C415   C    -0.01913   0.76876   0.14691   0.00000  Uiso   1.00
X416   C    -0.00580   0.82278   0.16305   0.00000  Uiso   1.00
C417   C     0.00539   0.83318   0.21891   0.00000  Uiso   1.00
C418   C     0.00390   0.79025   0.25748   0.00000  Uiso   1.00
C419   C     0.09937   0.61406   0.36290   0.00000  Uiso   1.00
H420   H    -0.08904   0.58446   0.32830   0.00000  Uiso   1.00
H421   H    -0.02819   0.75912   0.10436   0.00000  Uiso   1.00
H422   H     0.01607   0.87420   0.23264   0.00000  Uiso   1.00
C423   C    -0.11286   0.67197   0.26642   0.00000  Uiso   1.00
H424   H    -0.03071   0.68494   0.17168   0.00000  Uiso   1.00
H425   H     0.07627   0.70051   0.29910   0.00000  Uiso   1.00
H426   H     0.01319   0.79886   0.30020   0.00000  Uiso   1.00
H427   H     0.11232   0.64735   0.39137   0.00000  Uiso   1.00
H428   H     0.13022   0.61041   0.32940   0.00000  Uiso   1.00
H429   H     0.09932   0.57479   0.38606   0.00000  Uiso   1.00
H430   H    -0.12484   0.64091   0.23514   0.00000  Uiso   1.00
H431   H    -0.11393   0.71333   0.24726   0.00000  Uiso   1.00
H432   H    -0.14392   0.67190   0.29994   0.00000  Uiso   1.00
loop_
_geom_bond_atom_site_label_1
_geom_bond_atom_site_label_2
_geom_bond_distance
_geom_bond_site_symmetry_2
_ccdc_geom_bond_type
X1     C2      1.400   .     A
X1     C6      1.414   .     A
X1     X124    1.483   1_554 S
C2     X3      1.399   .     A
C2     H21     1.085   .     S
X3     C4      1.415   .     A
X3     X202    1.484   .     S
C4     C5      1.419   .     A
C4     C11     1.406   .     A
C5     C6      1.418   .     A
C5     C10     1.420   .     A
C6     C7      1.406   .     A
C7     C8      1.391   .     A
C7     H17     1.082   .     S
C8     C9      1.406   .     A
C8     H18     1.082   .     S
C9     C10     1.419   .     A
C9     X16     1.414   .     A
C10    C13     1.418   .     A
C11    C12     1.392   .     A
C11    H19     1.082   .     S
C12    C13     1.406   .     A
C12    H20     1.082   .     S
C13    X14     1.414   .     A
X14    C15     1.400   .     A
X14    X176    1.483   1_655 S
C15    X16     1.399   .     A
C15    H22     1.085   .     S
X16    X150    1.483   1_654 S
X23    C24     1.400   .     A
X23    C28     1.415   .     A
X23    X228    1.484   1_455 S
C24    X25     1.399   .     A
C24    H43     1.085   .     S
X25    C26     1.415   .     A
X25    X254    1.484   1_465 S
C26    C27     1.419   .     A
C26    C33     1.406   .     A
C27    C28     1.419   .     A
C27    C32     1.421   .     A
C28    C29     1.406   .     A
C29    C30     1.392   .     A
C29    H39     1.082   .     S
C30    C31     1.406   .     A
C30    H40     1.082   .     S
C31    C32     1.419   .     A
C31    X38     1.414   .     A
C32    C35     1.418   .     A
C33    C34     1.392   .     A
C33    H41     1.082   .     S
C34    C35     1.406   .     A
C34    H42     1.082   .     S
C35    X36     1.414   .     A
X36    C37     1.399   .     A
X36    X280    1.482   1_565 S
C37    X38     1.399   .     A
C37    H44     1.085   .     S
X38    X306    1.483   .     S
X45    C46     1.400   .     A
X45    C50     1.415   .     A
X45    X332    1.485   1_545 S
C46    X47     1.400   .     A
C46    H65     1.085   .     S
X47    C48     1.415   .     A
X47    X410    1.484   .     S
C48    C49     1.419   .     A
C48    C55     1.406   .     A
C49    C50     1.419   .     A
C49    C54     1.421   .     A
C50    C51     1.406   .     A
C51    C52     1.392   .     A
C51    H61     1.082   .     S
C52    C53     1.406   .     A
C52    H62     1.082   .     S
C53    C54     1.419   .     A
C53    X60     1.414   .     A
C54    C57     1.419   .     A
C55    C56     1.392   .     A
C55    H63     1.082   .     S
C56    C57     1.406   .     A
C56    H64     1.082   .     S
C57    X58     1.415   .     A
X58    C59     1.400   .     A
X58    X384    1.486   1_556 S
C59    X60     1.400   .     A
C59    H66     1.085   .     S
X60    X358    1.484   1_546 S
O67    Zr103   2.123   .     S
O67    X78     1.302   .     A
O68    Zr102   2.123   .     S
O68    X79     1.302   .     A
O69    Zr75    2.124   .     S
O69    X80     1.301   .     A
O70    Zr75    2.123   .     S
O70    X81     1.301   .     A
O71    Zr105   2.103   .     S
O71    X81     1.296   .     A
O72    Zr104   2.101   .     S
O72    X80     1.296   .     A
O73    Zr75    2.105   .     S
O73    X79     1.298   .     A
O74    Zr75    2.104   .     S
O74    X78     1.298   .     A
Zr75   O76     2.060   .     S
Zr75   O77     2.060   .     S
Zr75   O85     2.057   .     S
Zr75   O83     2.057   .     S
O76    Zr102   2.065   .     S
O76    Zr105   2.055   .     S
O77    Zr103   2.064   .     S
O77    Zr104   2.055   .     S
X78    X182    1.485   .     S
X79    X208    1.484   .     S
X80    X364    1.486   .     S
X81    X390    1.487   .     S
H82    O83     0.989   .     S
O83    Zr102   2.061   .     S
O83    Zr104   2.053   .     S
H84    O85     0.989   .     S
O85    Zr103   2.061   .     S
O85    Zr105   2.052   .     S
O86    Zr102   2.124   .     S
O86    X109    1.302   .     A
O87    Zr103   2.125   .     S
O87    X110    1.302   .     A
O88    Zr104   2.104   .     S
O88    X111    1.297   .     A
O89    Zr105   2.104   .     S
O89    X112    1.297   .     A
O90    Zr105   2.103   .     S
O90    X113    1.297   .     A
O91    Zr104   2.105   .     S
O91    X114    1.297   .     A
O92    Zr106   2.123   .     S
O92    X115    1.301   .     A
O93    Zr106   2.123   .     S
O93    X116    1.301   .     A
O94    Zr104   2.103   .     S
O94    X115    1.296   .     A
O95    Zr105   2.102   .     S
O95    X116    1.296   .     A
O96    Zr102   2.123   .     S
O96    X111    1.301   .     A
O97    Zr103   2.121   .     S
O97    X114    1.301   .     A
O98    Zr103   2.122   .     S
O98    X113    1.301   .     A
O99    Zr102   2.123   .     S
O99    X112    1.302   .     A
O100   Zr106   2.102   .     S
O100   X109    1.297   .     A
O101   Zr106   2.102   .     S
O101   X110    1.297   .     A
Zr102  O108    2.065   .     S
Zr102  O120    2.061   .     S
Zr103  O107    2.063   .     S
Zr103  O118    2.060   .     S
Zr104  O108    2.056   .     S
Zr104  O118    2.052   .     S
Zr105  O107    2.055   .     S
Zr105  O120    2.052   .     S
Zr106  O107    2.060   .     S
Zr106  O108    2.060   .     S
Zr106  O120    2.056   .     S
Zr106  O118    2.056   .     S
X109   X130    1.485   .     S
X110   X156    1.486   .     S
X111   X234    1.486   .     S
X112   X260    1.487   .     S
X113   X286    1.485   .     S
X114   X312    1.485   .     S
X115   X338    1.487   .     S
X116   X416    1.485   .     S
H117   O118    0.989   .     S
H119   O120    0.989   .     S
C121   C122    1.403   .     A
C121   C126    1.412   .     A
C121   C127    1.479   .     S
C122   C123    1.402   .     A
C122   H139    1.085   .     S
C123   X124    1.414   .     A
C123   C133    1.508   .     S
X124   C125    1.404   .     A
X124   X1      1.483   1_556 S
C125   C126    1.405   .     A
C125   H134    1.084   .     S
C126   C137    1.506   .     S
C127   C128    1.399   .     A
C127   C132    1.404   .     A
C128   C129    1.394   .     A
C128   H138    1.084   .     S
C129   X130    1.409   .     A
C129   H135    1.083   .     S
X130   C131    1.408   .     A
C131   C132    1.402   .     A
C131   H136    1.083   .     S
C132   H140    1.083   .     S
C133   H141    1.110   .     S
C133   H142    1.110   .     S
C133   H143    1.108   .     S
C137   H144    1.111   .     S
C137   H145    1.110   .     S
C137   H146    1.109   .     S
C147   C148    1.402   .     A
C147   C152    1.413   .     A
C147   C153    1.479   .     S
C148   C149    1.404   .     A
C148   H165    1.084   .     S
C149   X150    1.415   .     A
C149   C159    1.507   .     S
X150   C151    1.402   .     A
X150   X16     1.483   1_456 S
C151   C152    1.403   .     A
C151   H160    1.084   .     S
C152   C163    1.507   .     S
C153   C154    1.403   .     A
C153   C158    1.399   .     A
C154   C155    1.403   .     A
C154   H164    1.083   .     S
C155   X156    1.408   .     A
C155   H161    1.083   .     S
X156   C157    1.409   .     A
C157   C158    1.393   .     A
C157   H162    1.083   .     S
C158   H166    1.083   .     S
C159   H167    1.110   .     S
C159   H168    1.110   .     S
C159   H169    1.108   .     S
C163   H170    1.111   .     S
C163   H171    1.110   .     S
C163   H172    1.109   .     S
C173   C174    1.403   .     A
C173   C178    1.413   .     A
C173   C179    1.480   .     S
C174   C175    1.402   .     A
C174   H191    1.085   .     S
C175   X176    1.414   .     A
C175   C185    1.508   .     S
X176   C177    1.403   .     A
X176   X14     1.483   1_455 S
C177   C178    1.405   .     A
C177   H186    1.084   .     S
C178   C189    1.507   .     S
C179   C180    1.404   .     A
C179   C184    1.400   .     A
C180   C181    1.402   .     A
C180   H190    1.083   .     S
C181   X182    1.408   .     A
C181   H187    1.083   .     S
X182   C183    1.409   .     A
C183   C184    1.394   .     A
C183   H188    1.083   .     S
C184   H192    1.083   .     S
C185   H193    1.110   .     S
C185   H194    1.110   .     S
C185   H195    1.108   .     S
C189   H196    1.109   .     S
C189   H197    1.110   .     S
C189   H198    1.111   .     S
C199   C200    1.404   .     A
C199   C204    1.416   .     A
C199   C205    1.481   .     S
C200   C201    1.404   .     A
C200   H217    1.085   .     S
C201   X202    1.414   .     A
C201   C211    1.507   .     S
X202   C203    1.401   .     A
C203   C204    1.402   .     A
C203   H212    1.085   .     S
C204   C215    1.508   .     S
C205   C206    1.401   .     A
C205   C210    1.404   .     A
C206   C207    1.395   .     A
C206   H216    1.083   .     S
C207   X208    1.408   .     A
C207   H213    1.083   .     S
X208   C209    1.407   .     A
C209   C210    1.402   .     A
C209   H214    1.083   .     S
C210   H218    1.083   .     S
C211   H219    1.110   .     S
C211   H220    1.110   .     S
C211   H221    1.108   .     S
C215   H222    1.110   .     S
C215   H223    1.108   .     S
C215   H224    1.111   .     S
C225   C226    1.403   .     A
C225   C230    1.413   .     A
C225   C231    1.481   .     S
C226   C227    1.402   .     A
C226   H243    1.085   .     S
C227   X228    1.414   .     A
C227   C237    1.508   .     S
X228   C229    1.404   .     A
X228   X23     1.484   1_655 S
C229   C230    1.405   .     A
C229   H238    1.084   .     S
C230   C241    1.507   .     S
C231   C232    1.404   .     A
C231   C236    1.400   .     A
C232   C233    1.403   .     A
C232   H242    1.083   .     S
C233   X234    1.408   .     A
C233   H239    1.083   .     S
X234   C235    1.409   .     A
C235   C236    1.394   .     A
C235   H240    1.083   .     S
C236   H244    1.083   .     S
C237   H245    1.110   .     S
C237   H246    1.110   .     S
C237   H247    1.108   .     S
C241   H248    1.109   .     S
C241   H249    1.110   .     S
C241   H250    1.111   .     S
C251   C252    1.402   .     A
C251   C256    1.413   .     A
C251   C257    1.480   .     S
C252   C253    1.404   .     A
C252   H269    1.084   .     S
C253   X254    1.415   .     A
C253   C263    1.507   .     S
X254   C255    1.402   .     A
X254   X25     1.484   1_645 S
C255   C256    1.404   .     A
C255   H264    1.084   .     S
C256   C267    1.507   .     S
C257   C258    1.399   .     A
C257   C262    1.403   .     A
C258   C259    1.394   .     A
C258   H268    1.083   .     S
C259   X260    1.409   .     A
C259   H265    1.083   .     S
X260   C261    1.408   .     A
C261   C262    1.403   .     A
C261   H266    1.083   .     S
C262   H270    1.083   .     S
C263   H271    1.110   .     S
C263   H272    1.110   .     S
C263   H273    1.108   .     S
C267   H274    1.109   .     S
C267   H275    1.110   .     S
C267   H276    1.111   .     S
C277   C278    1.402   .     A
C277   C282    1.413   .     A
C277   C283    1.480   .     S
C278   C279    1.403   .     A
C278   H295    1.085   .     S
C279   X280    1.414   .     A
C279   C289    1.507   .     S
X280   C281    1.402   .     A
X280   X36     1.482   1_545 S
C281   C282    1.404   .     A
C281   H290    1.084   .     S
C282   C293    1.507   .     S
C283   C284    1.404   .     A
C283   C288    1.400   .     A
C284   C285    1.403   .     A
C284   H294    1.083   .     S
C285   X286    1.408   .     A
C285   H291    1.083   .     S
X286   C287    1.409   .     A
C287   C288    1.394   .     A
C287   H292    1.083   .     S
C288   H296    1.083   .     S
C289   H297    1.110   .     S
C289   H298    1.110   .     S
C289   H299    1.108   .     S
C293   H300    1.110   .     S
C293   H301    1.109   .     S
C293   H302    1.111   .     S
C303   C304    1.403   .     A
C303   C308    1.414   .     A
C303   C309    1.481   .     S
C304   C305    1.402   .     A
C304   H321    1.085   .     S
C305   X306    1.414   .     A
C305   C315    1.508   .     S
X306   C307    1.403   .     A
C307   C308    1.405   .     A
C307   H316    1.084   .     S
C308   C319    1.507   .     S
C309   C310    1.400   .     A
C309   C314    1.404   .     A
C310   C311    1.395   .     A
C310   H320    1.083   .     S
C311   X312    1.409   .     A
C311   H317    1.083   .     S
X312   C313    1.408   .     A
C313   C314    1.402   .     A
C313   H318    1.083   .     S
C314   H322    1.083   .     S
C315   H323    1.110   .     S
C315   H324    1.110   .     S
C315   H325    1.108   .     S
C319   H326    1.111   .     S
C319   H327    1.110   .     S
C319   H328    1.109   .     S
C329   C330    1.402   .     A
C329   C334    1.413   .     A
C329   C335    1.480   .     S
C330   C331    1.404   .     A
C330   H347    1.084   .     S
C331   X332    1.416   .     A
C331   C341    1.507   .     S
X332   C333    1.402   .     A
X332   X45     1.485   1_565 S
C333   C334    1.404   .     A
C333   H342    1.084   .     S
C334   C345    1.507   .     S
C335   C336    1.403   .     A
C335   C340    1.399   .     A
C336   C337    1.403   .     A
C336   H346    1.083   .     S
C337   X338    1.409   .     A
C337   H343    1.083   .     S
X338   C339    1.409   .     A
C339   C340    1.395   .     A
C339   H344    1.083   .     S
C340   H348    1.083   .     S
C341   H349    1.110   .     S
C341   H350    1.110   .     S
C341   H351    1.108   .     S
C345   H352    1.110   .     S
C345   H353    1.109   .     S
C345   H354    1.111   .     S
C355   C356    1.403   .     A
C355   C360    1.414   .     A
C355   C361    1.482   .     S
C356   C357    1.402   .     A
C356   H373    1.085   .     S
C357   X358    1.414   .     A
C357   C367    1.508   .     S
X358   C359    1.403   .     A
X358   X60     1.484   1_564 S
C359   C360    1.405   .     A
C359   H368    1.084   .     S
C360   C371    1.507   .     S
C361   C362    1.405   .     A
C361   C366    1.400   .     A
C362   C363    1.403   .     A
C362   H372    1.083   .     S
C363   X364    1.408   .     A
C363   H369    1.083   .     S
X364   C365    1.409   .     A
C365   C366    1.394   .     A
C365   H370    1.083   .     S
C366   H374    1.083   .     S
C367   H375    1.110   .     S
C367   H376    1.110   .     S
C367   H377    1.108   .     S
C371   H378    1.109   .     S
C371   H379    1.110   .     S
C371   H380    1.111   .     S
C381   C382    1.402   .     A
C381   C386    1.413   .     A
C381   C387    1.481   .     S
C382   C383    1.404   .     A
C382   H399    1.084   .     S
C383   X384    1.416   .     A
C383   C393    1.507   .     S
X384   C385    1.402   .     A
X384   X58     1.486   1_554 S
C385   C386    1.404   .     A
C385   H394    1.084   .     S
C386   C397    1.507   .     S
C387   C388    1.404   .     A
C387   C392    1.400   .     A
C388   C389    1.403   .     A
C388   H398    1.083   .     S
C389   X390    1.408   .     A
C389   H395    1.083   .     S
X390   C391    1.409   .     A
C391   C392    1.395   .     A
C391   H396    1.083   .     S
C392   H400    1.083   .     S
C393   H401    1.110   .     S
C393   H402    1.110   .     S
C393   H403    1.108   .     S
C397   H404    1.111   .     S
C397   H405    1.110   .     S
C397   H406    1.109   .     S
C407   C408    1.404   .     A
C407   C412    1.416   .     A
C407   C413    1.482   .     S
C408   C409    1.404   .     A
C408   H425    1.085   .     S
C409   X410    1.414   .     A
C409   C419    1.507   .     S
X410   C411    1.401   .     A
C411   C412    1.402   .     A
C411   H420    1.085   .     S
C412   C423    1.508   .     S
C413   C414    1.401   .     A
C413   C418    1.405   .     A
C414   C415    1.394   .     A
C414   H424    1.083   .     S
C415   X416    1.408   .     A
C415   H421    1.083   .     S
X416   C417    1.407   .     A
C417   C418    1.403   .     A
C417   H422    1.083   .     S
C418   H426    1.083   .     S
C419   H427    1.110   .     S
C419   H428    1.110   .     S
C419   H429    1.108   .     S
C423   H430    1.110   .     S
C423   H431    1.108   .     S
C423   H432    1.111   .     S
