data_ja512973b_si_004_tobacco
_audit_creation_date              2015-08-26
_audit_creation_method            'Materials Studio'
_symmetry_space_group_name_H-M    'P1'
_symmetry_Int_Tables_number       1
_symmetry_cell_setting            triclinic
loop_
_symmetry_equiv_pos_as_xyz
  x,y,z
_cell_length_a                    27.9293
_cell_length_b                    27.9293
_cell_length_c                    27.9293
_cell_angle_alpha                 90.0000
_cell_angle_beta                  90.0000
_cell_angle_gamma                 90.0000
loop_
_atom_site_label
_atom_site_type_symbol
_atom_site_fract_x
_atom_site_fract_y
_atom_site_fract_z
_atom_site_U_iso_or_equiv
_atom_site_adp_type
_atom_site_occupancy
X1     C     0.54334   1.00484  -0.39894   0.00000  Uiso   1.00
C2     C     0.49952   1.00315  -0.37461   0.00000  Uiso   1.00
X3     C     0.45589   1.00241  -0.39923   0.00000  Uiso   1.00
C4     C     0.45576   1.00290  -0.44995   0.00000  Uiso   1.00
C5     C     0.49985   1.00461  -0.47528   0.00000  Uiso   1.00
C6     C     0.54381   1.00557  -0.44970   0.00000  Uiso   1.00
C7     C     0.58701   1.00612  -0.47556   0.00000  Uiso   1.00
C8     C     0.58718   1.00594  -0.52547   0.00000  Uiso   1.00
C9     C     0.54415   1.00535  -0.55161   0.00000  Uiso   1.00
C10    C     0.49999   1.00473  -0.52631   0.00000  Uiso   1.00
C11    C     0.41276   1.00111  -0.47596   0.00000  Uiso   1.00
C12    C     0.41287   1.00101  -0.52586   0.00000  Uiso   1.00
C13    C     0.45598   1.00338  -0.55186   0.00000  Uiso   1.00
X14    C     0.45641   1.00305  -0.60270   0.00000  Uiso   1.00
C15    C     0.50039   1.00286  -0.62691   0.00000  Uiso   1.00
X16    C     0.54408   1.00415  -0.60235   0.00000  Uiso   1.00
H17    H     0.62124   1.00617  -0.45740   0.00000  Uiso   1.00
H18    H     0.62152   1.00584  -0.54341   0.00000  Uiso   1.00
H19    H     0.37852   0.99925  -0.45788   0.00000  Uiso   1.00
H20    H     0.37866   0.99839  -0.54379   0.00000  Uiso   1.00
H21    H     0.49935   1.00270  -0.33577   0.00000  Uiso   1.00
H22    H     0.50066   1.00241  -0.66575   0.00000  Uiso   1.00
X23    C    -0.45703   1.60715  -0.00236   0.00000  Uiso   1.00
C24    C    -0.50085   1.63149  -0.00233   0.00000  Uiso   1.00
X25    C    -0.54460   1.60705  -0.00321   0.00000  Uiso   1.00
C26    C    -0.54483   1.55630  -0.00323   0.00000  Uiso   1.00
C27    C    -0.50075   1.53090  -0.00271   0.00000  Uiso   1.00
C28    C    -0.45670   1.55637  -0.00256   0.00000  Uiso   1.00
C29    C    -0.41360   1.53038  -0.00172   0.00000  Uiso   1.00
C30    C    -0.41356   1.48055  -0.00206   0.00000  Uiso   1.00
C31    C    -0.45663   1.45449  -0.00163   0.00000  Uiso   1.00
C32    C    -0.50071   1.47989  -0.00190   0.00000  Uiso   1.00
C33    C    -0.58790   1.53026  -0.00287   0.00000  Uiso   1.00
C34    C    -0.58786   1.48042  -0.00278   0.00000  Uiso   1.00
C35    C    -0.54476   1.45443  -0.00177   0.00000  Uiso   1.00
X36    C    -0.54446   1.40367  -0.00157   0.00000  Uiso   1.00
C37    C    -0.50064   1.37931  -0.00208   0.00000  Uiso   1.00
X38    C    -0.45687   1.40372  -0.00183   0.00000  Uiso   1.00
H39    H    -0.37928   1.54824  -0.00074   0.00000  Uiso   1.00
H40    H    -0.37920   1.46273  -0.00267   0.00000  Uiso   1.00
H41    H    -0.62225   1.54811  -0.00253   0.00000  Uiso   1.00
H42    H    -0.62218   1.46253  -0.00368   0.00000  Uiso   1.00
H43    H    -0.50090   1.67034  -0.00235   0.00000  Uiso   1.00
H44    H    -0.50061   1.34046  -0.00192   0.00000  Uiso   1.00
X45    C     0.00139   0.40355   0.45466   0.00000  Uiso   1.00
C46    C     0.00150   0.37925   0.49850   0.00000  Uiso   1.00
X47    C     0.00106   0.40370   0.54227   0.00000  Uiso   1.00
C48    C     0.00104   0.45447   0.54244   0.00000  Uiso   1.00
C49    C     0.00045   0.47983   0.49834   0.00000  Uiso   1.00
C50    C     0.00099   0.45433   0.45431   0.00000  Uiso   1.00
C51    C     0.00288   0.48029   0.41123   0.00000  Uiso   1.00
C52    C     0.00274   0.53013   0.41115   0.00000  Uiso   1.00
C53    C     0.00085   0.55621   0.45416   0.00000  Uiso   1.00
C54    C     0.00051   0.53085   0.49827   0.00000  Uiso   1.00
C55    C     0.00341   0.48055   0.58543   0.00000  Uiso   1.00
C56    C     0.00367   0.53039   0.58535   0.00000  Uiso   1.00
C57    C     0.00142   0.55636   0.54229   0.00000  Uiso   1.00
X58    C     0.00186   0.60713   0.54195   0.00000  Uiso   1.00
C59    C     0.00181   0.63143   0.49809   0.00000  Uiso   1.00
X60    C     0.00108   0.60697   0.45434   0.00000  Uiso   1.00
H61    H     0.00524   0.46238   0.37699   0.00000  Uiso   1.00
H62    H     0.00498   0.54796   0.37686   0.00000  Uiso   1.00
H63    H     0.00597   0.46272   0.61970   0.00000  Uiso   1.00
H64    H     0.00641   0.54829   0.61957   0.00000  Uiso   1.00
H65    H     0.00138   0.34040   0.49855   0.00000  Uiso   1.00
H66    H     0.00179   0.67028   0.49802   0.00000  Uiso   1.00
O67    O    -0.12216   1.00611  -0.06370   0.00000  Uiso   1.00
O68    O     0.12063   1.00397  -0.06483   0.00000  Uiso   1.00
O69    O    -0.00232   1.06780  -0.12305   0.00000  Uiso   1.00
O70    O     0.00104   0.94269  -0.12294   0.00000  Uiso   1.00
O71    O     0.00074   0.88383  -0.06458   0.00000  Uiso   1.00
O72    O    -0.00287   1.12670  -0.06476   0.00000  Uiso   1.00
O73    O     0.06187   1.00346  -0.12337   0.00000  Uiso   1.00
O74    O    -0.06387   1.00754  -0.12273   0.00000  Uiso   1.00
Zr75   Zr   -0.00081   1.00533  -0.08008   0.00000  Uiso   1.00
O76    O     0.04690   0.95770  -0.04948   0.00000  Uiso   1.00
O77    O    -0.04840   1.05289  -0.04909   0.00000  Uiso   1.00
X78    C    -0.10848   1.00758  -0.10844   0.00000  Uiso   1.00
X79    C     0.10659   1.00286  -0.10946   0.00000  Uiso   1.00
X80    C    -0.00340   1.11261  -0.10951   0.00000  Uiso   1.00
X81    C     0.00179   0.89787  -0.10932   0.00000  Uiso   1.00
H82    H     0.06680   1.07311  -0.06965   0.00000  Uiso   1.00
O83    O     0.04633   1.05263  -0.04906   0.00000  Uiso   1.00
H84    H    -0.06826   0.93756  -0.06919   0.00000  Uiso   1.00
O85    O    -0.04774   0.95806  -0.04868   0.00000  Uiso   1.00
O86    O     0.12107   1.00707   0.06019   0.00000  Uiso   1.00
O87    O    -0.12150   1.00282   0.06159   0.00000  Uiso   1.00
O88    O     0.06233   1.12681  -0.00006   0.00000  Uiso   1.00
O89    O     0.06253   0.88399  -0.00391   0.00000  Uiso   1.00
O90    O    -0.06342   0.88382   0.00004   0.00000  Uiso   1.00
O91    O    -0.06372   1.12663  -0.00301   0.00000  Uiso   1.00
O92    O     0.00202   1.06807   0.11951   0.00000  Uiso   1.00
O93    O    -0.00132   0.94295   0.11969   0.00000  Uiso   1.00
O94    O     0.00088   1.12689   0.06115   0.00000  Uiso   1.00
O95    O    -0.00213   0.88401   0.06142   0.00000  Uiso   1.00
O96    O     0.12062   1.06795  -0.00072   0.00000  Uiso   1.00
O97    O    -0.12184   1.06762  -0.00271   0.00000  Uiso   1.00
O98    O    -0.12167   0.94265   0.00036   0.00000  Uiso   1.00
O99    O     0.12075   0.94296  -0.00366   0.00000  Uiso   1.00
O100   O     0.06313   1.00721   0.11931   0.00000  Uiso   1.00
O101   O    -0.06272   1.00451   0.12011   0.00000  Uiso   1.00
Zr102  Zr    0.07771   1.00543  -0.00207   0.00000  Uiso   1.00
Zr103  Zr   -0.07878   1.00513  -0.00132   0.00000  Uiso   1.00
Zr104  Zr   -0.00067   1.08392  -0.00172   0.00000  Uiso   1.00
Zr105  Zr   -0.00048   0.92675  -0.00167   0.00000  Uiso   1.00
Zr106  Zr   -0.00009   1.00545   0.07670   0.00000  Uiso   1.00
O107   O    -0.04779   0.95763   0.04623   0.00000  Uiso   1.00
O108   O     0.04724   1.05312   0.04565   0.00000  Uiso   1.00
X109   C     0.10783   1.00792   0.10510   0.00000  Uiso   1.00
X110   C    -0.10745   1.00290   0.10626   0.00000  Uiso   1.00
X111   C     0.10709   1.11276   0.00038   0.00000  Uiso   1.00
X112   C     0.10725   0.89813  -0.00463   0.00000  Uiso   1.00
X113   C    -0.10817   0.89781   0.00089   0.00000  Uiso   1.00
X114   C    -0.10846   1.11250  -0.00350   0.00000  Uiso   1.00
X115   C     0.00232   1.11288   0.10589   0.00000  Uiso   1.00
X116   C    -0.00243   0.89812   0.10616   0.00000  Uiso   1.00
H117   H    -0.06797   1.07292   0.06625   0.00000  Uiso   1.00
O118   O    -0.04750   1.05247   0.04565   0.00000  Uiso   1.00
H119   H     0.06749   0.93773   0.06567   0.00000  Uiso   1.00
O120   O     0.04685   0.95819   0.04525   0.00000  Uiso   1.00
C121   C     0.33111   1.00510   0.30727   0.00000  Uiso   1.00
C122   C     0.36378   0.96712   0.30451   0.00000  Uiso   1.00
C123   C     0.40395   0.96608   0.33447   0.00000  Uiso   1.00
X124   C     0.41196   1.00293   0.36779   0.00000  Uiso   1.00
C125   C     0.37911   1.04101   0.37040   0.00000  Uiso   1.00
C126   C     0.33881   1.04195   0.34047   0.00000  Uiso   1.00
C127   C     0.29082   1.00686   0.27478   0.00000  Uiso   1.00
C128   C     0.25797   1.00791   0.24654   0.00000  Uiso   1.00
C129   C     0.21991   1.00865   0.21144   0.00000  Uiso   1.00
C130   C     0.23106   1.00471   0.16276   0.00000  Uiso   1.00
C131   C     0.19467   1.00477   0.12835   0.00000  Uiso   1.00
X132   C     0.14626   1.00869   0.14200   0.00000  Uiso   1.00
C133   C     0.13532   1.01280   0.19108   0.00000  Uiso   1.00
C134   C     0.17191   1.01281   0.22551   0.00000  Uiso   1.00
H135   H     0.35851   0.93858   0.27877   0.00000  Uiso   1.00
H136   H     0.42907   0.93669   0.33142   0.00000  Uiso   1.00
H137   H     0.38504   1.07024   0.39518   0.00000  Uiso   1.00
H138   H     0.31405   1.07171   0.34279   0.00000  Uiso   1.00
H139   H     0.26798   1.00138   0.15133   0.00000  Uiso   1.00
H140   H     0.20458   1.00139   0.09102   0.00000  Uiso   1.00
H141   H     0.09853   1.01598   0.20291   0.00000  Uiso   1.00
H142   H     0.16274   1.01590   0.26307   0.00000  Uiso   1.00
C143   C    -0.33079   1.00358   0.30755   0.00000  Uiso   1.00
C144   C    -0.35857   0.96211   0.31281   0.00000  Uiso   1.00
C145   C    -0.39866   0.96211   0.34295   0.00000  Uiso   1.00
X146   C    -0.41130   1.00348   0.36859   0.00000  Uiso   1.00
C147   C    -0.38313   1.04488   0.36369   0.00000  Uiso   1.00
C148   C    -0.34310   1.04491   0.33333   0.00000  Uiso   1.00
C149   C    -0.29070   1.00389   0.27464   0.00000  Uiso   1.00
C150   C    -0.25773   1.00366   0.24646   0.00000  Uiso   1.00
C151   C    -0.21888   1.00295   0.21210   0.00000  Uiso   1.00
C152   C    -0.21325   0.96373   0.18122   0.00000  Uiso   1.00
C153   C    -0.17673   0.96361   0.14679   0.00000  Uiso   1.00
X154   C    -0.14488   1.00233   0.14344   0.00000  Uiso   1.00
C155   C    -0.15010   1.04126   0.17481   0.00000  Uiso   1.00
C156   C    -0.18716   1.04175   0.20870   0.00000  Uiso   1.00
H157   H    -0.34962   0.92993   0.29309   0.00000  Uiso   1.00
H158   H    -0.42016   0.92998   0.34599   0.00000  Uiso   1.00
H159   H    -0.39270   1.07731   0.38267   0.00000  Uiso   1.00
H160   H    -0.32216   1.07734   0.32945   0.00000  Uiso   1.00
H161   H    -0.23730   0.93339   0.18353   0.00000  Uiso   1.00
H162   H    -0.17308   0.93320   0.12298   0.00000  Uiso   1.00
H163   H    -0.12626   1.07176   0.17222   0.00000  Uiso   1.00
H164   H    -0.19132   1.07253   0.23193   0.00000  Uiso   1.00
C165   C    -0.33168   1.00737  -0.30907   0.00000  Uiso   1.00
C166   C    -0.35889   0.96545  -0.31355   0.00000  Uiso   1.00
C167   C    -0.39904   0.96445  -0.34353   0.00000  Uiso   1.00
X168   C    -0.41225   1.00527  -0.36971   0.00000  Uiso   1.00
C169   C    -0.38467   1.04713  -0.36556   0.00000  Uiso   1.00
C170   C    -0.34458   1.04817  -0.33537   0.00000  Uiso   1.00
C171   C    -0.29155   1.00869  -0.27638   0.00000  Uiso   1.00
C172   C    -0.25858   1.00905  -0.24829   0.00000  Uiso   1.00
C173   C    -0.21988   1.00859  -0.21391   0.00000  Uiso   1.00
C174   C    -0.21320   0.96856  -0.18439   0.00000  Uiso   1.00
C175   C    -0.17677   0.96834  -0.14997   0.00000  Uiso   1.00
X176   C    -0.14614   1.00786  -0.14523   0.00000  Uiso   1.00
C177   C    -0.15237   1.04770  -0.17522   0.00000  Uiso   1.00
C178   C    -0.18936   1.04821  -0.20917   0.00000  Uiso   1.00
H179   H    -0.34941   0.93369  -0.29339   0.00000  Uiso   1.00
H180   H    -0.42008   0.93197  -0.34608   0.00000  Uiso   1.00
H181   H    -0.39471   1.07911  -0.38505   0.00000  Uiso   1.00
H182   H    -0.32405   1.08091  -0.33205   0.00000  Uiso   1.00
H183   H    -0.23632   0.93760  -0.18780   0.00000  Uiso   1.00
H184   H    -0.17217   0.93720  -0.12728   0.00000  Uiso   1.00
H185   H    -0.12930   1.07867  -0.17163   0.00000  Uiso   1.00
H186   H    -0.19436   1.07957  -0.23145   0.00000  Uiso   1.00
C187   C     0.33055   1.00027  -0.30977   0.00000  Uiso   1.00
C188   C     0.35139   0.95722  -0.32512   0.00000  Uiso   1.00
C189   C     0.39158   0.95785  -0.35521   0.00000  Uiso   1.00
X190   C     0.41127   1.00155  -0.37037   0.00000  Uiso   1.00
C191   C     0.39003   1.04457  -0.35543   0.00000  Uiso   1.00
C192   C     0.34988   1.04393  -0.32533   0.00000  Uiso   1.00
C193   C     0.29040   0.99981  -0.27694   0.00000  Uiso   1.00
C194   C     0.25729   0.99990  -0.24894   0.00000  Uiso   1.00
C195   C     0.21820   1.00060  -0.21487   0.00000  Uiso   1.00
C196   C     0.19528   0.95795  -0.20142   0.00000  Uiso   1.00
C197   C     0.15823   0.95870  -0.16751   0.00000  Uiso   1.00
X198   C     0.14398   1.00208  -0.14655   0.00000  Uiso   1.00
C199   C     0.16680   1.04471  -0.16013   0.00000  Uiso   1.00
C200   C     0.20360   1.04399  -0.19423   0.00000  Uiso   1.00
H201   H     0.33698   0.92320  -0.31330   0.00000  Uiso   1.00
H202   H     0.40779   0.92435  -0.36612   0.00000  Uiso   1.00
H203   H     0.40505   1.07858  -0.36648   0.00000  Uiso   1.00
H204   H     0.33433   1.07749  -0.31366   0.00000  Uiso   1.00
H205   H     0.20630   0.92410  -0.21683   0.00000  Uiso   1.00
H206   H     0.14116   0.92545  -0.15711   0.00000  Uiso   1.00
H207   H     0.15622   1.07846  -0.14420   0.00000  Uiso   1.00
H208   H     0.22092   1.07723  -0.20422   0.00000  Uiso   1.00
C209   C     0.32999   1.31447   0.00106   0.00000  Uiso   1.00
C210   C     0.33886   1.34634   0.03881   0.00000  Uiso   1.00
C211   C     0.37933   1.37600   0.03778   0.00000  Uiso   1.00
X212   C     0.41110   1.37436  -0.00124   0.00000  Uiso   1.00
C213   C     0.40196   1.34233  -0.03892   0.00000  Uiso   1.00
C214   C     0.36163   1.31267  -0.03781   0.00000  Uiso   1.00
C215   C     0.28956   1.28230   0.00263   0.00000  Uiso   1.00
C216   C     0.25667   1.25419   0.00315   0.00000  Uiso   1.00
C217   C     0.21869   1.21912   0.00288   0.00000  Uiso   1.00
C218   C     0.17147   1.23212   0.01379   0.00000  Uiso   1.00
C219   C     0.13493   1.19768   0.01289   0.00000  Uiso   1.00
X220   C     0.14528   1.14971   0.00130   0.00000  Uiso   1.00
C221   C     0.19289   1.13712  -0.00950   0.00000  Uiso   1.00
C222   C     0.22918   1.17156  -0.00881   0.00000  Uiso   1.00
H223   H     0.31488   1.34783   0.06926   0.00000  Uiso   1.00
H224   H     0.38620   1.39985   0.06757   0.00000  Uiso   1.00
H225   H     0.42631   1.34011  -0.06902   0.00000  Uiso   1.00
H226   H     0.35542   1.28793  -0.06703   0.00000  Uiso   1.00
H227   H     0.16288   1.26881   0.02297   0.00000  Uiso   1.00
H228   H     0.09874   1.20850   0.02164   0.00000  Uiso   1.00
H229   H     0.20214   1.10066  -0.01893   0.00000  Uiso   1.00
H230   H     0.26550   1.16105  -0.01752   0.00000  Uiso   1.00
C231   C     0.32983   0.69618  -0.00568   0.00000  Uiso   1.00
C232   C     0.36078   0.69695   0.03378   0.00000  Uiso   1.00
C233   C     0.40111   0.66729   0.03482   0.00000  Uiso   1.00
X234   C     0.41091   0.63626  -0.00351   0.00000  Uiso   1.00
C235   C     0.37979   0.63554  -0.04307   0.00000  Uiso   1.00
C236   C     0.33935   0.66525  -0.04405   0.00000  Uiso   1.00
C237   C     0.28949   0.72847  -0.00718   0.00000  Uiso   1.00
C238   C     0.25666   0.75666  -0.00761   0.00000  Uiso   1.00
C239   C     0.21871   0.79177  -0.00718   0.00000  Uiso   1.00
C240   C     0.22842   0.83838   0.00842   0.00000  Uiso   1.00
C241   C     0.19217   0.87287   0.00908   0.00000  Uiso   1.00
X242   C     0.14539   0.86121  -0.00558   0.00000  Uiso   1.00
C243   C     0.13576   0.81420  -0.02100   0.00000  Uiso   1.00
C244   C     0.17228   0.77975  -0.02196   0.00000  Uiso   1.00
H245   H     0.35405   0.72093   0.06352   0.00000  Uiso   1.00
H246   H     0.42495   0.66875   0.06537   0.00000  Uiso   1.00
H247   H     0.38718   0.61243  -0.07331   0.00000  Uiso   1.00
H248   H     0.31590   0.66454  -0.07494   0.00000  Uiso   1.00
H249   H     0.26409   0.84809   0.02019   0.00000  Uiso   1.00
H250   H     0.20069   0.90857   0.02162   0.00000  Uiso   1.00
H251   H     0.10020   0.80423  -0.03281   0.00000  Uiso   1.00
H252   H     0.16432   0.74383  -0.03423   0.00000  Uiso   1.00
C253   C    -0.33134   0.69619  -0.00119   0.00000  Uiso   1.00
C254   C    -0.36367   0.69733   0.03713   0.00000  Uiso   1.00
C255   C    -0.40406   0.66775   0.03696   0.00000  Uiso   1.00
X256   C    -0.41260   0.63647  -0.00148   0.00000  Uiso   1.00
C257   C    -0.38019   0.63554  -0.03999   0.00000  Uiso   1.00
C258   C    -0.33965   0.66511  -0.03973   0.00000  Uiso   1.00
C259   C    -0.29083   0.72830  -0.00147   0.00000  Uiso   1.00
C260   C    -0.25788   0.75635  -0.00115   0.00000  Uiso   1.00
C261   C    -0.21985   0.79136  -0.00036   0.00000  Uiso   1.00
C262   C    -0.23125   0.84011   0.00092   0.00000  Uiso   1.00
C263   C    -0.19496   0.87453   0.00173   0.00000  Uiso   1.00
X264   C    -0.14642   0.86082   0.00124   0.00000  Uiso   1.00
C265   C    -0.13522   0.81164   0.00017   0.00000  Uiso   1.00
C266   C    -0.17173   0.77718  -0.00063   0.00000  Uiso   1.00
H267   H    -0.35793   0.72150   0.06692   0.00000  Uiso   1.00
H268   H    -0.42893   0.66944   0.06667   0.00000  Uiso   1.00
H269   H    -0.38659   0.61228  -0.07036   0.00000  Uiso   1.00
H270   H    -0.31515   0.66416  -0.06978   0.00000  Uiso   1.00
H271   H    -0.26832   0.85158   0.00121   0.00000  Uiso   1.00
H272   H    -0.20506   0.91196   0.00253   0.00000  Uiso   1.00
H273   H    -0.09831   0.79977  -0.00029   0.00000  Uiso   1.00
H274   H    -0.16242   0.73954  -0.00155   0.00000  Uiso   1.00
C275   C    -0.33123   1.31462  -0.00238   0.00000  Uiso   1.00
C276   C    -0.36319   1.31375  -0.04100   0.00000  Uiso   1.00
C277   C    -0.40355   1.34338  -0.04104   0.00000  Uiso   1.00
X278   C    -0.41240   1.37447  -0.00251   0.00000  Uiso   1.00
C279   C    -0.38031   1.37518   0.03627   0.00000  Uiso   1.00
C280   C    -0.33981   1.34555   0.03622   0.00000  Uiso   1.00
C281   C    -0.29082   1.28237  -0.00186   0.00000  Uiso   1.00
C282   C    -0.25797   1.25421  -0.00198   0.00000  Uiso   1.00
C283   C    -0.22002   1.21911  -0.00254   0.00000  Uiso   1.00
C284   C    -0.23150   1.17036  -0.00348   0.00000  Uiso   1.00
C285   C    -0.19525   1.13586  -0.00412   0.00000  Uiso   1.00
X286   C    -0.14669   1.14952  -0.00382   0.00000  Uiso   1.00
C287   C    -0.13543   1.19868  -0.00308   0.00000  Uiso   1.00
C288   C    -0.17187   1.23321  -0.00244   0.00000  Uiso   1.00
H289   H    -0.35722   1.28971  -0.07086   0.00000  Uiso   1.00
H290   H    -0.42816   1.34186  -0.07097   0.00000  Uiso   1.00
H291   H    -0.38696   1.39830   0.06670   0.00000  Uiso   1.00
H292   H    -0.31558   1.34631   0.06650   0.00000  Uiso   1.00
H293   H    -0.26858   1.15895  -0.00366   0.00000  Uiso   1.00
H294   H    -0.20539   1.09845  -0.00469   0.00000  Uiso   1.00
H295   H    -0.09851   1.21052  -0.00279   0.00000  Uiso   1.00
H296   H    -0.16250   1.27084  -0.00179   0.00000  Uiso   1.00
C297   C     0.00230   1.31416   0.32917   0.00000  Uiso   1.00
C298   C    -0.03582   1.34586   0.33708   0.00000  Uiso   1.00
C299   C    -0.03594   1.37559   0.37751   0.00000  Uiso   1.00
X300   C     0.00228   1.37419   0.41024   0.00000  Uiso   1.00
C301   C     0.04035   1.34235   0.40205   0.00000  Uiso   1.00
C302   C     0.04039   1.31263   0.36175   0.00000  Uiso   1.00
C303   C     0.00186   1.28195   0.28873   0.00000  Uiso   1.00
C304   C     0.00208   1.25392   0.25577   0.00000  Uiso   1.00
C305   C     0.00288   1.21911   0.21754   0.00000  Uiso   1.00
C306   C    -0.01092   1.23173   0.17099   0.00000  Uiso   1.00
C307   C    -0.01050   1.19743   0.13434   0.00000  Uiso   1.00
X308   C     0.00342   1.14993   0.14392   0.00000  Uiso   1.00
C309   C     0.01749   1.13775   0.19076   0.00000  Uiso   1.00
C310   C     0.01732   1.17210   0.22718   0.00000  Uiso   1.00
H311   H    -0.06567   1.34717   0.31235   0.00000  Uiso   1.00
H312   H    -0.06602   1.39930   0.38360   0.00000  Uiso   1.00
H313   H     0.06988   1.34033   0.42712   0.00000  Uiso   1.00
H314   H     0.06990   1.28804   0.35628   0.00000  Uiso   1.00
H315   H    -0.02229   1.26796   0.16308   0.00000  Uiso   1.00
H316   H    -0.02185   1.20787   0.09876   0.00000  Uiso   1.00
H317   H     0.02879   1.10165   0.19930   0.00000  Uiso   1.00
H318   H     0.02829   1.16190   0.26297   0.00000  Uiso   1.00
C319   C    -0.00169   1.31465  -0.33204   0.00000  Uiso   1.00
C320   C    -0.03881   1.34739  -0.34038   0.00000  Uiso   1.00
C321   C    -0.03767   1.37703  -0.38085   0.00000  Uiso   1.00
X322   C     0.00083   1.37450  -0.41319   0.00000  Uiso   1.00
C323   C     0.03794   1.34166  -0.40453   0.00000  Uiso   1.00
C324   C     0.03671   1.31202  -0.36418   0.00000  Uiso   1.00
C325   C    -0.00355   1.28241  -0.29167   0.00000  Uiso   1.00
C326   C    -0.00442   1.25425  -0.25883   0.00000  Uiso   1.00
C327   C    -0.00460   1.21911  -0.22092   0.00000  Uiso   1.00
C328   C    -0.01841   1.23150  -0.17429   0.00000  Uiso   1.00
C329   C    -0.01800   1.19699  -0.13780   0.00000  Uiso   1.00
X330   C    -0.00406   1.14956  -0.14765   0.00000  Uiso   1.00
C331   C     0.00959   1.13754  -0.19466   0.00000  Uiso   1.00
C332   C     0.00944   1.17206  -0.23087   0.00000  Uiso   1.00
H333   H    -0.06889   1.34955  -0.31599   0.00000  Uiso   1.00
H334   H    -0.06703   1.40152  -0.38731   0.00000  Uiso   1.00
H335   H     0.06766   1.33877  -0.42927   0.00000  Uiso   1.00
H336   H     0.06546   1.28663  -0.35837   0.00000  Uiso   1.00
H337   H    -0.02947   1.26777  -0.16613   0.00000  Uiso   1.00
H338   H    -0.02898   1.20730  -0.10207   0.00000  Uiso   1.00
H339   H     0.02095   1.10151  -0.20341   0.00000  Uiso   1.00
H340   H     0.02043   1.16204  -0.26671   0.00000  Uiso   1.00
C341   C     0.00281   0.69655  -0.33256   0.00000  Uiso   1.00
C342   C    -0.03505   0.66449  -0.34021   0.00000  Uiso   1.00
C343   C    -0.03517   0.63477  -0.38064   0.00000  Uiso   1.00
X344   C     0.00281   0.63651  -0.41363   0.00000  Uiso   1.00
C345   C     0.04064   0.66871  -0.40569   0.00000  Uiso   1.00
C346   C     0.04066   0.69844  -0.36540   0.00000  Uiso   1.00
C347   C     0.00231   0.72878  -0.29213   0.00000  Uiso   1.00
C348   C     0.00243   0.75681  -0.25916   0.00000  Uiso   1.00
C349   C     0.00306   0.79161  -0.22092   0.00000  Uiso   1.00
C350   C    -0.01167   0.77917  -0.17459   0.00000  Uiso   1.00
C351   C    -0.01149   0.81348  -0.13795   0.00000  Uiso   1.00
X352   C     0.00307   0.86082  -0.14733   0.00000  Uiso   1.00
C353   C     0.01809   0.87282  -0.19391   0.00000  Uiso   1.00
C354   C     0.01819   0.83846  -0.23031   0.00000  Uiso   1.00
H355   H    -0.06473   0.66291  -0.31528   0.00000  Uiso   1.00
H356   H    -0.06508   0.61079  -0.38653   0.00000  Uiso   1.00
H357   H     0.06998   0.67100  -0.43095   0.00000  Uiso   1.00
H358   H     0.06997   0.72331  -0.36013   0.00000  Uiso   1.00
H359   H    -0.02359   0.74307  -0.16687   0.00000  Uiso   1.00
H360   H    -0.02356   0.80320  -0.10256   0.00000  Uiso   1.00
H361   H     0.02997   0.90879  -0.20222   0.00000  Uiso   1.00
H362   H     0.02990   0.84851  -0.26590   0.00000  Uiso   1.00
C363   C    -0.00150   0.69602   0.32866   0.00000  Uiso   1.00
C364   C    -0.03906   0.66389   0.33739   0.00000  Uiso   1.00
C365   C    -0.03799   0.63422   0.37784   0.00000  Uiso   1.00
X366   C     0.00086   0.63616   0.40980   0.00000  Uiso   1.00
C367   C     0.03842   0.66837   0.40076   0.00000  Uiso   1.00
C368   C     0.03728   0.69801   0.36041   0.00000  Uiso   1.00
C369   C    -0.00323   0.72830   0.28832   0.00000  Uiso   1.00
C370   C    -0.00395   0.75649   0.25549   0.00000  Uiso   1.00
C371   C    -0.00393   0.79163   0.21758   0.00000  Uiso   1.00
C372   C    -0.01793   0.77933   0.17098   0.00000  Uiso   1.00
C373   C    -0.01736   0.81382   0.13449   0.00000  Uiso   1.00
X374   C    -0.00308   0.86116   0.14430   0.00000  Uiso   1.00
C375   C     0.01077   0.87310   0.19126   0.00000  Uiso   1.00
C376   C     0.01047   0.83858   0.22749   0.00000  Uiso   1.00
H377   H    -0.06942   0.66223   0.31331   0.00000  Uiso   1.00
H378   H    -0.06766   0.61020   0.38461   0.00000  Uiso   1.00
H379   H     0.06843   0.67077   0.42520   0.00000  Uiso   1.00
H380   H     0.06638   0.72292   0.35429   0.00000  Uiso   1.00
H381   H    -0.02929   0.74314   0.16286   0.00000  Uiso   1.00
H382   H    -0.02854   0.80359   0.09880   0.00000  Uiso   1.00
H383   H     0.02238   0.90906   0.19998   0.00000  Uiso   1.00
H384   H     0.02159   0.84853   0.26330   0.00000  Uiso   1.00
loop_
_geom_bond_atom_site_label_1
_geom_bond_atom_site_label_2
_geom_bond_distance
_geom_bond_site_symmetry_2
_ccdc_geom_bond_type
X1     C2      1.401   .     A
X1     C6      1.418   .     A
X1     X168    1.485   1_655 S
C2     X3      1.399   .     A
C2     H21     1.085   .     S
X3     C4      1.417   .     A
X3     X190    1.484   .     S
C4     C5      1.421   .     A
C4     C11     1.405   .     A
C5     C6      1.421   .     A
C5     C10     1.425   .     A
C6     C7      1.406   .     A
C7     C8      1.394   .     A
C7     H17     1.082   .     S
C8     C9      1.406   .     A
C8     H18     1.082   .     S
C9     C10     1.422   .     A
C9     X16     1.418   .     A
C10    C13     1.422   .     A
C11    C12     1.394   .     A
C11    H19     1.083   .     S
C12    C13     1.408   .     A
C12    H20     1.081   .     S
C13    X14     1.420   .     A
X14    C15     1.402   .     A
X14    X124    1.490   1_554 S
C15    X16     1.400   .     A
C15    H22     1.085   .     S
X16    X146    1.487   1_654 S
X23    C24     1.400   .     A
X23    C28     1.418   .     A
X23    X256    1.487   1_565 S
C24    X25     1.400   .     A
C24    H43     1.085   .     S
X25    C26     1.418   .     A
X25    X234    1.486   1_465 S
C26    C27     1.421   .     A
C26    C33     1.406   .     A
C27    C28     1.421   .     A
C27    C32     1.425   .     A
C28    C29     1.406   .     A
C29    C30     1.392   .     A
C29    H39     1.081   .     S
C30    C31     1.406   .     A
C30    H40     1.081   .     S
C31    C32     1.421   .     A
C31    X38     1.418   .     A
C32    C35     1.421   .     A
C33    C34     1.392   .     A
C33    H41     1.081   .     S
C34    C35     1.406   .     A
C34    H42     1.081   .     S
C35    X36     1.418   .     A
X36    C37     1.400   .     A
X36    X212    1.487   1_455 S
C37    X38     1.400   .     A
C37    H44     1.085   .     S
X38    X278    1.487   .     S
X45    C46     1.400   .     A
X45    C50     1.418   .     A
X45    X300    1.487   1_545 S
C46    X47     1.400   .     A
C46    H65     1.085   .     S
X47    C48     1.418   .     A
X47    X322    1.488   1_546 S
C48    C49     1.421   .     A
C48    C55     1.406   .     A
C49    C50     1.421   .     A
C49    C54     1.425   .     A
C50    C51     1.406   .     A
C51    C52     1.392   .     A
C51    H61     1.081   .     S
C52    C53     1.406   .     A
C52    H62     1.081   .     S
C53    C54     1.421   .     A
C53    X60     1.418   .     A
C54    C57     1.421   .     A
C55    C56     1.392   .     A
C55    H63     1.081   .     S
C56    C57     1.406   .     A
C56    H64     1.081   .     S
C57    X58     1.418   .     A
X58    C59     1.400   .     A
X58    X344    1.488   1_556 S
C59    X60     1.400   .     A
C59    H66     1.085   .     S
X60    X366    1.487   .     S
O67    Zr103   2.123   .     S
O67    X78     1.307   .     A
O68    Zr102   2.124   .     S
O68    X79     1.307   .     A
O69    Zr75    2.118   .     S
O69    X80     1.308   .     A
O70    Zr75    2.120   .     S
O70    X81     1.309   .     A
O71    Zr105   2.127   .     S
O71    X81     1.310   .     A
O72    Zr104   2.129   .     S
O72    X80     1.310   .     A
O73    Zr75    2.128   .     S
O73    X79     1.308   .     A
O74    Zr75    2.127   .     S
O74    X78     1.308   .     A
Zr75   O76     2.068   .     S
Zr75   O77     2.069   .     S
Zr75   O85     2.057   .     S
Zr75   O83     2.056   .     S
Zr75   Zr102   3.091   .     S
Zr75   Zr103   3.095   .     S
Zr75   Zr104   3.099   .     S
Zr75   Zr105   3.100   .     S
O76    Zr102   2.067   .     S
O76    Zr105   2.069   .     S
O77    Zr103   2.069   .     S
O77    Zr104   2.068   .     S
X78    X176    1.470   .     S
X79    X198    1.471   .     S
X80    X330    1.483   .     S
X81    X352    1.483   .     S
H82    O83     0.992   .     S
O83    Zr102   2.056   .     S
O83    Zr104   2.058   .     S
H84    O85     0.992   .     S
O85    Zr103   2.057   .     S
O85    Zr105   2.057   .     S
O86    Zr102   2.119   .     S
O86    X109    1.308   .     A
O87    Zr103   2.125   .     S
O87    X110    1.308   .     A
O88    Zr104   2.129   .     S
O88    X111    1.310   .     A
O89    Zr105   2.128   .     S
O89    X112    1.310   .     A
O90    Zr105   2.129   .     S
O90    X113    1.310   .     A
O91    Zr104   2.127   .     S
O91    X114    1.310   .     A
O92    Zr106   2.119   .     S
O92    X115    1.308   .     A
O93    Zr106   2.119   .     S
O93    X116    1.308   .     A
O94    Zr104   2.127   .     S
O94    X115    1.310   .     A
O95    Zr105   2.129   .     S
O95    X116    1.310   .     A
O96    Zr102   2.118   .     S
O96    X111    1.308   .     A
O97    Zr103   2.120   .     S
O97    X114    1.308   .     A
O98    Zr103   2.117   .     S
O98    X113    1.308   .     A
O99    Zr102   2.119   .     S
O99    X112    1.308   .     A
O100   Zr106   2.130   .     S
O100   X109    1.310   .     A
O101   Zr106   2.128   .     S
O101   X110    1.309   .     A
Zr102  O108    2.068   .     S
Zr102  O120    2.057   .     S
Zr102  Zr104   3.098   .     S
Zr102  Zr105   3.098   .     S
Zr102  Zr106   3.092   .     S
Zr103  O107    2.067   .     S
Zr103  O118    2.057   .     S
Zr103  Zr104   3.098   .     S
Zr103  Zr105   3.094   .     S
Zr103  Zr106   3.095   .     S
Zr104  O108    2.069   .     S
Zr104  O118    2.057   .     S
Zr104  Zr106   3.099   .     S
Zr105  O107    2.069   .     S
Zr105  O120    2.058   .     S
Zr105  Zr106   3.102   .     S
Zr106  O107    2.070   .     S
Zr106  O108    2.067   .     S
Zr106  O120    2.057   .     S
Zr106  O118    2.057   .     S
X109   X132    1.488   .     S
X110   X154    1.474   .     S
X111   X220    1.484   .     S
X112   X242    1.483   .     S
X113   X264    1.486   .     S
X114   X286    1.487   .     S
X115   X308    1.483   .     S
X116   X374    1.483   .     S
H117   O118    0.992   .     S
H119   O120    0.992   .     S
C121   C122    1.401   .     A
C121   C126    1.402   .     A
C121   C127    1.446   .     S
C122   C123    1.400   .     A
C122   H135    1.083   .     S
C123   X124    1.406   .     A
C123   H136    1.083   .     S
X124   C125    1.407   .     A
X124   X14     1.490   1_556 S
C125   C126    1.402   .     A
C125   H137    1.083   .     S
C126   H138    1.083   .     S
C127   C128    1.210   .     T
C128   C129    1.446   .     S
C129   C130    1.399   .     A
C129   C134    1.402   .     A
C130   C131    1.399   .     A
C130   H139    1.084   .     S
C131   X132    1.409   .     A
C131   H140    1.083   .     S
X132   C133    1.409   .     A
C133   C134    1.403   .     A
C133   H141    1.083   .     S
C134   H142    1.083   .     S
C143   C144    1.402   .     A
C143   C148    1.403   .     A
C143   C149    1.449   .     S
C144   C145    1.401   .     A
C144   H157    1.083   .     S
C145   X146    1.404   .     A
C145   H158    1.083   .     S
X146   C147    1.405   .     A
X146   X16     1.487   1_456 S
C147   C148    1.403   .     A
C147   H159    1.083   .     S
C148   H160    1.083   .     S
C149   C150    1.211   .     T
C150   C151    1.449   .     S
C151   C152    1.403   .     A
C151   C156    1.403   .     A
C152   C153    1.402   .     A
C152   H161    1.083   .     S
C153   X154    1.403   .     A
C153   H162    1.084   .     S
X154   C155    1.404   .     A
C155   C156    1.403   .     A
C155   H163    1.084   .     S
C156   H164    1.083   .     S
C165   C166    1.402   .     A
C165   C170    1.403   .     A
C165   C171    1.446   .     S
C166   C167    1.400   .     A
C166   H179    1.083   .     S
C167   X168    1.404   .     A
C167   H180    1.083   .     S
X168   C169    1.405   .     A
X168   X1      1.485   1_455 S
C169   C170    1.402   .     A
C169   H181    1.083   .     S
C170   H182    1.083   .     S
C171   C172    1.210   .     T
C172   C173    1.446   .     S
C173   C174    1.402   .     A
C173   C178    1.403   .     A
C174   C175    1.400   .     A
C174   H183    1.083   .     S
C175   X176    1.403   .     A
C175   H184    1.084   .     S
X176   C177    1.403   .     A
C177   C178    1.402   .     A
C177   H185    1.083   .     S
C178   H186    1.083   .     S
C187   C188    1.403   .     A
C187   C192    1.403   .     A
C187   C193    1.448   .     S
C188   C189    1.402   .     A
C188   H201    1.083   .     S
C189   X190    1.404   .     A
C189   H202    1.083   .     S
X190   C191    1.403   .     A
C191   C192    1.402   .     A
C191   H203    1.083   .     S
C192   H204    1.083   .     S
C193   C194    1.211   .     T
C194   C195    1.448   .     S
C195   C196    1.403   .     A
C195   C200    1.403   .     A
C196   C197    1.403   .     A
C196   H205    1.083   .     S
C197   X198    1.403   .     A
C197   H206    1.083   .     S
X198   C199    1.403   .     A
C199   C200    1.401   .     A
C199   H207    1.083   .     S
C200   H208    1.083   .     S
C209   C210    1.402   .     A
C209   C214    1.401   .     A
C209   C215    1.444   .     S
C210   C211    1.402   .     A
C210   H223    1.083   .     S
C211   X212    1.406   .     A
C211   H224    1.083   .     S
X212   C213    1.405   .     A
X212   X36     1.487   1_655 S
C213   C214    1.398   .     A
C213   H225    1.083   .     S
C214   H226    1.083   .     S
C215   C216    1.208   .     T
C216   C217    1.444   .     S
C217   C218    1.401   .     A
C217   C222    1.399   .     A
C218   C219    1.402   .     A
C218   H227    1.083   .     S
C219   X220    1.408   .     A
C219   H228    1.083   .     S
X220   C221    1.408   .     A
C221   C222    1.397   .     A
C221   H229    1.083   .     S
C222   H230    1.084   .     S
C231   C232    1.401   .     A
C231   C236    1.402   .     A
C231   C237    1.444   .     S
C232   C233    1.399   .     A
C232   H245    1.083   .     S
C233   X234    1.404   .     A
C233   H246    1.083   .     S
X234   C235    1.406   .     A
X234   X25     1.486   1_645 S
C235   C236    1.402   .     A
C235   H247    1.083   .     S
C236   H248    1.083   .     S
C237   C238    1.209   .     T
C238   C239    1.444   .     S
C239   C240    1.399   .     A
C239   C244    1.402   .     A
C240   C241    1.398   .     A
C240   H249    1.084   .     S
C241   X242    1.407   .     A
C241   H250    1.083   .     S
X242   C243    1.408   .     A
C243   C244    1.402   .     A
C243   H251    1.083   .     S
C244   H252    1.083   .     S
C253   C254    1.401   .     A
C253   C258    1.402   .     A
C253   C259    1.444   .     S
C254   C255    1.398   .     A
C254   H267    1.083   .     S
C255   X256    1.405   .     A
C255   H268    1.083   .     S
X256   C257    1.406   .     A
X256   X23     1.487   1_545 S
C257   C258    1.402   .     A
C257   H269    1.083   .     S
C258   H270    1.083   .     S
C259   C260    1.208   .     T
C260   C261    1.444   .     S
C261   C262    1.399   .     A
C261   C266    1.401   .     A
C262   C263    1.397   .     A
C262   H271    1.084   .     S
C263   X264    1.409   .     A
C263   H272    1.083   .     S
X264   C265    1.409   .     A
C265   C266    1.402   .     A
C265   H273    1.083   .     S
C266   H274    1.083   .     S
C275   C276    1.401   .     A
C275   C280    1.402   .     A
C275   C281    1.444   .     S
C276   C277    1.398   .     A
C276   H289    1.083   .     S
C277   X278    1.405   .     A
C277   H290    1.083   .     S
X278   C279    1.406   .     A
C279   C280    1.402   .     A
C279   H291    1.083   .     S
C280   H292    1.083   .     S
C281   C282    1.209   .     T
C282   C283    1.444   .     S
C283   C284    1.399   .     A
C283   C288    1.401   .     A
C284   C285    1.398   .     A
C284   H293    1.084   .     S
C285   X286    1.409   .     A
C285   H294    1.083   .     S
X286   C287    1.409   .     A
C287   C288    1.402   .     A
C287   H295    1.083   .     S
C288   H296    1.083   .     S
C297   C298    1.402   .     A
C297   C302    1.401   .     A
C297   C303    1.444   .     S
C298   C299    1.402   .     A
C298   H311    1.083   .     S
C299   X300    1.406   .     A
C299   H312    1.083   .     S
X300   C301    1.405   .     A
X300   X45     1.487   1_565 S
C301   C302    1.399   .     A
C301   H313    1.083   .     S
C302   H314    1.083   .     S
C303   C304    1.209   .     T
C304   C305    1.444   .     S
C305   C306    1.401   .     A
C305   C310    1.400   .     A
C306   C307    1.402   .     A
C306   H315    1.083   .     S
C307   X308    1.408   .     A
C307   H316    1.083   .     S
X308   C309    1.408   .     A
C309   C310    1.398   .     A
C309   H317    1.083   .     S
C310   H318    1.084   .     S
C319   C320    1.402   .     A
C319   C324    1.401   .     A
C319   C325    1.444   .     S
C320   C321    1.401   .     A
C320   H333    1.083   .     S
C321   X322    1.406   .     A
C321   H334    1.083   .     S
X322   C323    1.405   .     A
X322   X47     1.488   1_564 S
C323   C324    1.399   .     A
C323   H335    1.083   .     S
C324   H336    1.084   .     S
C325   C326    1.208   .     T
C326   C327    1.444   .     S
C327   C328    1.402   .     A
C327   C332    1.399   .     A
C328   C329    1.403   .     A
C328   H337    1.083   .     S
C329   X330    1.408   .     A
C329   H338    1.083   .     S
X330   C331    1.408   .     A
C331   C332    1.397   .     A
C331   H339    1.083   .     S
C332   H340    1.084   .     S
C341   C342    1.402   .     A
C341   C346    1.401   .     A
C341   C347    1.444   .     S
C342   C343    1.402   .     A
C342   H355    1.083   .     S
C343   X344    1.406   .     A
C343   H356    1.083   .     S
X344   C345    1.405   .     A
X344   X58     1.488   1_554 S
C345   C346    1.399   .     A
C345   H357    1.083   .     S
C346   H358    1.083   .     S
C347   C348    1.209   .     T
C348   C349    1.444   .     S
C349   C350    1.401   .     A
C349   C354    1.400   .     A
C350   C351    1.402   .     A
C350   H359    1.083   .     S
C351   X352    1.408   .     A
C351   H360    1.083   .     S
X352   C353    1.407   .     A
C353   C354    1.398   .     A
C353   H361    1.083   .     S
C354   H362    1.084   .     S
C363   C364    1.402   .     A
C363   C368    1.401   .     A
C363   C369    1.444   .     S
C364   C365    1.401   .     A
C364   H377    1.083   .     S
C365   X366    1.406   .     A
C365   H378    1.083   .     S
X366   C367    1.405   .     A
C367   C368    1.399   .     A
C367   H379    1.083   .     S
C368   H380    1.083   .     S
C369   C370    1.209   .     T
C370   C371    1.444   .     S
C371   C372    1.402   .     A
C371   C376    1.399   .     A
C372   C373    1.402   .     A
C372   H381    1.083   .     S
C373   X374    1.408   .     A
C373   H382    1.083   .     S
X374   C375    1.408   .     A
C375   C376    1.398   .     A
C375   H383    1.083   .     S
C376   H384    1.084   .     S
