data_ja512973b_si_003
_audit_creation_date              2015-10-12
_audit_creation_method            'Materials Studio'
_symmetry_space_group_name_H-M    'P1'
_symmetry_Int_Tables_number       1
_symmetry_cell_setting            triclinic
loop_
_symmetry_equiv_pos_as_xyz
  x,y,z
_cell_length_a                    25.3340
_cell_length_b                    25.3340
_cell_length_c                    25.3340
_cell_angle_alpha                 90.0000
_cell_angle_beta                  90.0000
_cell_angle_gamma                 90.0000
loop_
_atom_site_label
_atom_site_type_symbol
_atom_site_fract_x
_atom_site_fract_y
_atom_site_fract_z
_atom_site_U_iso_or_equiv
_atom_site_adp_type
_atom_site_occupancy
C1     C     0.52621   0.97785  -0.66466   0.00000  Uiso   1.00
C2     C     0.47214   0.97755  -0.66495   0.00000  Uiso   1.00
C3     C     0.45568   0.98677  -0.61342   0.00000  Uiso   1.00
N4     N     0.49860   0.99404  -0.58218   0.00000  Uiso   1.00
C5     C     0.54173   0.98832  -0.61330   0.00000  Uiso   1.00
X6     C     0.40208   0.99337  -0.59715   0.00000  Uiso   1.00
C7     C     0.38743   1.00174  -0.54320   0.00000  Uiso   1.00
C8     C     0.33694   1.01461  -0.52582   0.00000  Uiso   1.00
C9     C     0.33818   1.01539  -0.47167   0.00000  Uiso   1.00
C10    C     0.38893   1.00179  -0.45656   0.00000  Uiso   1.00
N11    N     0.41859   0.99331  -0.50031   0.00000  Uiso   1.00
X12    C     0.40508   0.99484  -0.40323   0.00000  Uiso   1.00
C13    C     0.45837   0.98821  -0.38707   0.00000  Uiso   1.00
C14    C     0.47391   0.97774  -0.33572   0.00000  Uiso   1.00
C15    C     0.52798   0.97752  -0.33543   0.00000  Uiso   1.00
C16    C     0.54442   0.98680  -0.38696   0.00000  Uiso   1.00
N17    N     0.50149   0.99402  -0.41819   0.00000  Uiso   1.00
X18    C     0.59800   0.99352  -0.40322   0.00000  Uiso   1.00
C19    C     0.61264   1.00196  -0.45716   0.00000  Uiso   1.00
C20    C     0.66309   1.01495  -0.47453   0.00000  Uiso   1.00
C21    C     0.66186   1.01573  -0.52868   0.00000  Uiso   1.00
C22    C     0.61114   1.00201  -0.54381   0.00000  Uiso   1.00
N23    N     0.58149   0.99345  -0.50006   0.00000  Uiso   1.00
X24    C     0.59501   0.99502  -0.59714   0.00000  Uiso   1.00
H25    H     0.55115   0.97193  -0.69882   0.00000  Uiso   1.00
H26    H     0.44817   0.97249  -0.69987   0.00000  Uiso   1.00
H27    H     0.54413   0.97687  -0.49985   0.00000  Uiso   1.00
H28    H     0.30186   1.02141  -0.54907   0.00000  Uiso   1.00
H29    H     0.30485   1.02390  -0.44634   0.00000  Uiso   1.00
H30    H     0.44898   0.97175  -0.30156   0.00000  Uiso   1.00
H31    H     0.55197   0.97247  -0.30052   0.00000  Uiso   1.00
H32    H     0.69517   1.02433  -0.55401   0.00000  Uiso   1.00
H33    H     0.45600   0.97683  -0.50052   0.00000  Uiso   1.00
H34    H     0.69814   1.02185  -0.45127   0.00000  Uiso   1.00
C35    C    -0.52734   1.33038   0.02139   0.00000  Uiso   1.00
C36    C    -0.47327   1.33120   0.02232   0.00000  Uiso   1.00
C37    C    -0.45807   1.38230   0.01039   0.00000  Uiso   1.00
N38    N    -0.50133   1.41284   0.00295   0.00000  Uiso   1.00
C39    C    -0.54411   1.38146   0.01028   0.00000  Uiso   1.00
X40    C    -0.40510   1.39862   0.00242   0.00000  Uiso   1.00
C41    C    -0.39042   1.45178  -0.00736   0.00000  Uiso   1.00
C42    C    -0.34255   1.46676  -0.02915   0.00000  Uiso   1.00
C43    C    -0.34222   1.52093  -0.03086   0.00000  Uiso   1.00
C44    C    -0.38962   1.53809  -0.00929   0.00000  Uiso   1.00
N45    N    -0.41906   1.49547   0.00459   0.00000  Uiso   1.00
X46    C    -0.40387   1.59216  -0.00244   0.00000  Uiso   1.00
C47    C    -0.45740   1.60789   0.00489   0.00000  Uiso   1.00
C48    C    -0.47365   1.65763   0.02115   0.00000  Uiso   1.00
C49    C    -0.52770   1.65738   0.02104   0.00000  Uiso   1.00
C50    C    -0.54327   1.60708   0.00627   0.00000  Uiso   1.00
N51    N    -0.50020   1.57693  -0.00389   0.00000  Uiso   1.00
X52    C    -0.59659   1.59093   0.00017   0.00000  Uiso   1.00
C53    C    -0.61249   1.53759  -0.00710   0.00000  Uiso   1.00
C54    C    -0.66387   1.52187  -0.01721   0.00000  Uiso   1.00
C55    C    -0.66435   1.46770  -0.01651   0.00000  Uiso   1.00
C56    C    -0.61303   1.45090  -0.00643   0.00000  Uiso   1.00
N57    N    -0.58191   1.49418  -0.00019   0.00000  Uiso   1.00
X58    C    -0.59772   1.39714   0.00217   0.00000  Uiso   1.00
H59    H    -0.55099   1.29533   0.02691   0.00000  Uiso   1.00
H60    H    -0.44812   1.29746   0.02959   0.00000  Uiso   1.00
H61    H    -0.54350   1.49456   0.01368   0.00000  Uiso   1.00
H62    H    -0.31123   1.44125  -0.04305   0.00000  Uiso   1.00
H63    H    -0.31065   1.54490  -0.04677   0.00000  Uiso   1.00
H64    H    -0.44926   1.69079   0.03247   0.00000  Uiso   1.00
H65    H    -0.55248   1.69061   0.03123   0.00000  Uiso   1.00
H66    H    -0.69954   1.44395  -0.02062   0.00000  Uiso   1.00
H67    H    -0.45417   1.49617   0.02587   0.00000  Uiso   1.00
H68    H    -0.69822   1.54667  -0.02251   0.00000  Uiso   1.00
C69    C     0.03510   0.52250   0.65701   0.00000  Uiso   1.00
C70    C     0.03624   0.46842   0.65690   0.00000  Uiso   1.00
C71    C     0.01130   0.45214   0.61098   0.00000  Uiso   1.00
N72    N    -0.00428   0.49474   0.58249   0.00000  Uiso   1.00
C73    C     0.00961   0.53788   0.61108   0.00000  Uiso   1.00
X74    C     0.00167   0.39871   0.59670   0.00000  Uiso   1.00
C75    C    -0.00934   0.38487   0.54336   0.00000  Uiso   1.00
C76    C    -0.03573   0.33956   0.52754   0.00000  Uiso   1.00
C77    C    -0.03568   0.33929   0.47331   0.00000  Uiso   1.00
C78    C    -0.00925   0.38443   0.45704   0.00000  Uiso   1.00
N79    N     0.00582   0.41260   0.50010   0.00000  Uiso   1.00
X80    C     0.00129   0.39796   0.40347   0.00000  Uiso   1.00
C81    C     0.01160   0.45118   0.38887   0.00000  Uiso   1.00
C82    C     0.03405   0.46738   0.34158   0.00000  Uiso   1.00
C83    C     0.03373   0.52154   0.34180   0.00000  Uiso   1.00
C84    C     0.01188   0.53681   0.38949   0.00000  Uiso   1.00
N85    N    -0.00137   0.49382   0.41843   0.00000  Uiso   1.00
X86    C     0.00106   0.58957   0.40420   0.00000  Uiso   1.00
C87    C    -0.01108   0.60362   0.45689   0.00000  Uiso   1.00
C88    C    -0.03537   0.65024   0.47192   0.00000  Uiso   1.00
C89    C    -0.03645   0.65058   0.52621   0.00000  Uiso   1.00
C90    C    -0.01192   0.60452   0.54308   0.00000  Uiso   1.00
N91    N     0.00263   0.57568   0.50041   0.00000  Uiso   1.00
X92    C    -0.00136   0.59103   0.59661   0.00000  Uiso   1.00
H93    H     0.05205   0.54765   0.68709   0.00000  Uiso   1.00
H94    H     0.05417   0.44391   0.68694   0.00000  Uiso   1.00
H95    H     0.02569   0.54162   0.50094   0.00000  Uiso   1.00
H96    H    -0.05365   0.30989   0.55251   0.00000  Uiso   1.00
H97    H    -0.05368   0.30940   0.44866   0.00000  Uiso   1.00
H98    H     0.04931   0.44282   0.31015   0.00000  Uiso   1.00
H99    H     0.04816   0.54679   0.31051   0.00000  Uiso   1.00
H100   H    -0.05330   0.68145   0.55044   0.00000  Uiso   1.00
H101   H     0.02957   0.44621   0.50010   0.00000  Uiso   1.00
H102   H    -0.05074   0.68086   0.44639   0.00000  Uiso   1.00
O103   O    -0.07107   0.99398  -0.13675   0.00000  Uiso   1.00
O104   O    -0.07222   0.99604   0.13548   0.00000  Uiso   1.00
O105   O    -0.13618   0.92312  -0.00258   0.00000  Uiso   1.00
O106   O    -0.13594   1.06671   0.00045   0.00000  Uiso   1.00
O107   O    -0.07144   1.13095   0.00146   0.00000  Uiso   1.00
O108   O    -0.07185   0.85876  -0.00256   0.00000  Uiso   1.00
O109   O    -0.13635   0.99688   0.07087   0.00000  Uiso   1.00
O110   O    -0.13577   0.99273  -0.07268   0.00000  Uiso   1.00
Zr111  Zr   -0.09311   0.99486  -0.00071   0.00000  Uiso   1.00
O112   O    -0.04802   1.04271   0.04747   0.00000  Uiso   1.00
O113   O    -0.04780   0.94691  -0.04850   0.00000  Uiso   1.00
X114   C    -0.12011   0.99267  -0.12158   0.00000  Uiso   1.00
X115   C    -0.12111   0.99718   0.11990   0.00000  Uiso   1.00
X116   C    -0.12083   0.87412  -0.00348   0.00000  Uiso   1.00
X117   C    -0.12046   1.11566   0.00162   0.00000  Uiso   1.00
H118   H    -0.07057   0.92456   0.06951   0.00000  Uiso   1.00
O119   O    -0.04792   0.94711   0.04713   0.00000  Uiso   1.00
H120   H    -0.06972   1.06514  -0.07066   0.00000  Uiso   1.00
O121   O    -0.04733   1.04256  -0.04804   0.00000  Uiso   1.00
O122   O     0.07107   0.99357   0.13640   0.00000  Uiso   1.00
O123   O     0.07233   0.99615  -0.13585   0.00000  Uiso   1.00
O124   O     0.00118   0.85859   0.07136   0.00000  Uiso   1.00
O125   O    -0.00137   1.13083   0.07165   0.00000  Uiso   1.00
O126   O     0.00233   1.13094  -0.07191   0.00000  Uiso   1.00
O127   O    -0.00145   0.85876  -0.07216   0.00000  Uiso   1.00
O128   O     0.13597   0.92264   0.00269   0.00000  Uiso   1.00
O129   O     0.13642   1.06615  -0.00018   0.00000  Uiso   1.00
O130   O     0.07139   0.85841   0.00074   0.00000  Uiso   1.00
O131   O     0.07215   1.13066  -0.00199   0.00000  Uiso   1.00
O132   O     0.00122   0.92289   0.13577   0.00000  Uiso   1.00
O133   O    -0.00140   0.92318  -0.13643   0.00000  Uiso   1.00
O134   O     0.00236   1.06659  -0.13627   0.00000  Uiso   1.00
O135   O    -0.00241   1.06637   0.13589   0.00000  Uiso   1.00
O136   O     0.13581   0.99219   0.07238   0.00000  Uiso   1.00
O137   O     0.13646   0.99653  -0.07121   0.00000  Uiso   1.00
Zr138  Zr   -0.00037   0.99467   0.09286   0.00000  Uiso   1.00
Zr139  Zr    0.00043   0.99487  -0.09331   0.00000  Uiso   1.00
Zr140  Zr   -0.00013   0.90165  -0.00038   0.00000  Uiso   1.00
Zr141  Zr    0.00026   1.08788  -0.00017   0.00000  Uiso   1.00
Zr142  Zr    0.09321   0.99453   0.00039   0.00000  Uiso   1.00
O143   O     0.04835   1.04259  -0.04783   0.00000  Uiso   1.00
O144   O     0.04767   0.94660   0.04796   0.00000  Uiso   1.00
X145   C     0.12012   0.99216   0.12127   0.00000  Uiso   1.00
X146   C     0.12123   0.99705  -0.12025   0.00000  Uiso   1.00
X147   C     0.00184   0.87390   0.12038   0.00000  Uiso   1.00
X148   C    -0.00263   1.11540   0.12062   0.00000  Uiso   1.00
X149   C     0.00313   1.11558  -0.12091   0.00000  Uiso   1.00
X150   C    -0.00209   0.87417  -0.12113   0.00000  Uiso   1.00
X151   C     0.12034   0.87373   0.00243   0.00000  Uiso   1.00
X152   C     0.12109   1.11513  -0.00165   0.00000  Uiso   1.00
H153   H     0.07044   0.92460  -0.07014   0.00000  Uiso   1.00
O154   O     0.04785   0.94712  -0.04766   0.00000  Uiso   1.00
H155   H     0.07001   1.06476   0.07041   0.00000  Uiso   1.00
O156   O     0.04758   1.04230   0.04773   0.00000  Uiso   1.00
C157   C     0.28239   0.99188   0.28417   0.00000  Uiso   1.00
C158   C     0.29067   1.03694   0.31549   0.00000  Uiso   1.00
C159   C     0.33021   1.03763   0.35422   0.00000  Uiso   1.00
X160   C     0.36189   0.99285   0.36350   0.00000  Uiso   1.00
C161   C     0.35331   0.94769   0.33216   0.00000  Uiso   1.00
C162   C     0.31438   0.94736   0.29280   0.00000  Uiso   1.00
C163   C     0.24068   0.99142   0.24255   0.00000  Uiso   1.00
C164   C     0.25163   0.97233   0.19158   0.00000  Uiso   1.00
C165   C     0.21268   0.97278   0.15222   0.00000  Uiso   1.00
X166   C     0.16148   0.99140   0.16311   0.00000  Uiso   1.00
C167   C     0.15039   1.00986   0.21434   0.00000  Uiso   1.00
C168   C     0.18963   1.01031   0.25339   0.00000  Uiso   1.00
H169   H     0.33652   1.07352   0.37661   0.00000  Uiso   1.00
H170   H     0.37660   0.91237   0.33846   0.00000  Uiso   1.00
H171   H     0.22259   0.95819   0.11328   0.00000  Uiso   1.00
H172   H     0.11150   1.02471   0.22408   0.00000  Uiso   1.00
H173   H     0.30868   0.91191   0.26960   0.00000  Uiso   1.00
H174   H     0.29067   0.95785   0.18192   0.00000  Uiso   1.00
H175   H     0.26715   1.07209   0.30929   0.00000  Uiso   1.00
H176   H     0.17989   1.02493   0.29237   0.00000  Uiso   1.00
C177   C    -0.28397   0.99716   0.28213   0.00000  Uiso   1.00
C178   C    -0.32266   1.03698   0.28416   0.00000  Uiso   1.00
C179   C    -0.36165   1.03647   0.32340   0.00000  Uiso   1.00
X180   C    -0.36322   0.99580   0.36107   0.00000  Uiso   1.00
C181   C    -0.32480   0.95590   0.35904   0.00000  Uiso   1.00
C182   C    -0.28547   0.95669   0.32017   0.00000  Uiso   1.00
C183   C    -0.24220   0.99780   0.24059   0.00000  Uiso   1.00
C184   C    -0.18948   0.98601   0.25330   0.00000  Uiso   1.00
C185   C    -0.15024   0.98633   0.21434   0.00000  Uiso   1.00
X186   C    -0.16276   0.99794   0.16145   0.00000  Uiso   1.00
C187   C    -0.21555   1.00974   0.14875   0.00000  Uiso   1.00
C188   C    -0.25470   1.00994   0.18787   0.00000  Uiso   1.00
H189   H    -0.39072   1.06780   0.32444   0.00000  Uiso   1.00
H190   H    -0.32535   0.92411   0.38762   0.00000  Uiso   1.00
H191   H    -0.11010   0.97697   0.22566   0.00000  Uiso   1.00
H192   H    -0.22669   1.01899   0.10853   0.00000  Uiso   1.00
H193   H    -0.25662   0.92516   0.31938   0.00000  Uiso   1.00
H194   H    -0.17843   0.97705   0.29361   0.00000  Uiso   1.00
H195   H    -0.32227   1.06899   0.25584   0.00000  Uiso   1.00
H196   H    -0.29500   1.01876   0.17669   0.00000  Uiso   1.00
C197   C    -0.28237   0.99227  -0.28448   0.00000  Uiso   1.00
C198   C    -0.29079   1.03735  -0.31574   0.00000  Uiso   1.00
C199   C    -0.33030   1.03795  -0.35451   0.00000  Uiso   1.00
X200   C    -0.36182   0.99308  -0.36388   0.00000  Uiso   1.00
C201   C    -0.35310   0.94790  -0.33259   0.00000  Uiso   1.00
C202   C    -0.31419   0.94764  -0.29321   0.00000  Uiso   1.00
C203   C    -0.24067   0.99189  -0.24283   0.00000  Uiso   1.00
C204   C    -0.25146   0.97235  -0.19199   0.00000  Uiso   1.00
C205   C    -0.21251   0.97281  -0.15263   0.00000  Uiso   1.00
X206   C    -0.16148   0.99195  -0.16339   0.00000  Uiso   1.00
C207   C    -0.15053   1.01089  -0.21447   0.00000  Uiso   1.00
C208   C    -0.18977   1.01129  -0.25353   0.00000  Uiso   1.00
H209   H    -0.33671   1.07385  -0.37685   0.00000  Uiso   1.00
H210   H    -0.37627   0.91251  -0.33896   0.00000  Uiso   1.00
H211   H    -0.22226   0.95776  -0.11381   0.00000  Uiso   1.00
H212   H    -0.11176   1.02612  -0.22409   0.00000  Uiso   1.00
H213   H    -0.30837   0.91217  -0.27008   0.00000  Uiso   1.00
H214   H    -0.29038   0.95746  -0.18244   0.00000  Uiso   1.00
H215   H    -0.26742   1.07259  -0.30946   0.00000  Uiso   1.00
H216   H    -0.18013   1.02625  -0.29239   0.00000  Uiso   1.00
C217   C     0.28409   0.99692  -0.28247   0.00000  Uiso   1.00
C218   C     0.28562   0.95642  -0.32047   0.00000  Uiso   1.00
C219   C     0.32494   0.95565  -0.35935   0.00000  Uiso   1.00
X220   C     0.36333   0.99559  -0.36143   0.00000  Uiso   1.00
C221   C     0.36173   1.03627  -0.32378   0.00000  Uiso   1.00
C222   C     0.32274   1.03677  -0.28453   0.00000  Uiso   1.00
C223   C     0.24233   0.99756  -0.24093   0.00000  Uiso   1.00
C224   C     0.25482   1.00974  -0.18821   0.00000  Uiso   1.00
C225   C     0.21568   1.00957  -0.14909   0.00000  Uiso   1.00
X226   C     0.16288   0.99776  -0.16179   0.00000  Uiso   1.00
C227   C     0.15037   0.98610  -0.21467   0.00000  Uiso   1.00
C228   C     0.18961   0.98574  -0.25363   0.00000  Uiso   1.00
H229   H     0.32552   0.92384  -0.38792   0.00000  Uiso   1.00
H230   H     0.39077   1.06764  -0.32484   0.00000  Uiso   1.00
H231   H     0.22681   1.01885  -0.10888   0.00000  Uiso   1.00
H232   H     0.11023   0.97671  -0.22598   0.00000  Uiso   1.00
H233   H     0.32233   1.06880  -0.25623   0.00000  Uiso   1.00
H234   H     0.29512   1.01857  -0.17704   0.00000  Uiso   1.00
H235   H     0.25680   0.92487  -0.31966   0.00000  Uiso   1.00
H236   H     0.17857   0.97675  -0.29393   0.00000  Uiso   1.00
C237   C     0.28327   1.27790  -0.00005   0.00000  Uiso   1.00
C238   C     0.29219   1.30989  -0.04449   0.00000  Uiso   1.00
C239   C     0.33153   1.34879  -0.04387   0.00000  Uiso   1.00
X240   C     0.36249   1.35742   0.00155   0.00000  Uiso   1.00
C241   C     0.35304   1.32561   0.04620   0.00000  Uiso   1.00
C242   C     0.31429   1.28611   0.04524   0.00000  Uiso   1.00
C243   C     0.24180   1.23609  -0.00092   0.00000  Uiso   1.00
C244   C     0.25263   1.18509   0.01811   0.00000  Uiso   1.00
C245   C     0.21375   1.14571   0.01717   0.00000  Uiso   1.00
X246   C     0.16275   1.15661  -0.00197   0.00000  Uiso   1.00
C247   C     0.15186   1.20774  -0.02079   0.00000  Uiso   1.00
C248   C     0.19105   1.24684  -0.02070   0.00000  Uiso   1.00
H249   H     0.33822   1.37192  -0.07922   0.00000  Uiso   1.00
H250   H     0.37544   1.33169   0.08212   0.00000  Uiso   1.00
H251   H     0.22345   1.10687   0.03216   0.00000  Uiso   1.00
H252   H     0.11310   1.21744  -0.03598   0.00000  Uiso   1.00
H253   H     0.30792   1.26249   0.08029   0.00000  Uiso   1.00
H254   H     0.29146   1.17550   0.03320   0.00000  Uiso   1.00
H255   H     0.26931   1.30414  -0.08014   0.00000  Uiso   1.00
H256   H     0.18144   1.28584  -0.03534   0.00000  Uiso   1.00
C257   C     0.28227   0.71133   0.00246   0.00000  Uiso   1.00
C258   C     0.29659   0.68646  -0.04505   0.00000  Uiso   1.00
C259   C     0.33622   0.64787  -0.04580   0.00000  Uiso   1.00
X260   C     0.36151   0.63253   0.00110   0.00000  Uiso   1.00
C261   C     0.34673   0.65680   0.04873   0.00000  Uiso   1.00
C262   C     0.30795   0.69629   0.04931   0.00000  Uiso   1.00
C263   C     0.24063   0.75278   0.00306   0.00000  Uiso   1.00
C264   C     0.24983   0.80184   0.02730   0.00000  Uiso   1.00
C265   C     0.21098   0.84127   0.02678   0.00000  Uiso   1.00
X266   C     0.16161   0.83204   0.00310   0.00000  Uiso   1.00
C267   C     0.15219   0.78264  -0.02044   0.00000  Uiso   1.00
C268   C     0.19146   0.74369  -0.02098   0.00000  Uiso   1.00
H269   H     0.34704   0.62966  -0.08293   0.00000  Uiso   1.00
H270   H     0.36559   0.64539   0.08536   0.00000  Uiso   1.00
H271   H     0.21937   0.87883   0.04538   0.00000  Uiso   1.00
H272   H     0.11468   0.77441  -0.03925   0.00000  Uiso   1.00
H273   H     0.29741   0.71458   0.08649   0.00000  Uiso   1.00
H274   H     0.28747   0.80995   0.04588   0.00000  Uiso   1.00
H275   H     0.27763   0.69751  -0.08173   0.00000  Uiso   1.00
H276   H     0.18327   0.70614  -0.03972   0.00000  Uiso   1.00
C277   C    -0.28328   0.71065  -0.00579   0.00000  Uiso   1.00
C278   C    -0.33010   0.71689  -0.03497   0.00000  Uiso   1.00
C279   C    -0.36944   0.67799  -0.03422   0.00000  Uiso   1.00
X280   C    -0.36342   0.63152  -0.00409   0.00000  Uiso   1.00
C281   C    -0.31605   0.62512   0.02451   0.00000  Uiso   1.00
C282   C    -0.27674   0.66407   0.02376   0.00000  Uiso   1.00
C283   C    -0.24162   0.75259  -0.00593   0.00000  Uiso   1.00
C284   C    -0.18770   0.73922  -0.00573   0.00000  Uiso   1.00
C285   C    -0.14870   0.77848  -0.00521   0.00000  Uiso   1.00
X286   C    -0.16243   0.83235  -0.00486   0.00000  Uiso   1.00
C287   C    -0.21637   0.84573  -0.00538   0.00000  Uiso   1.00
C288   C    -0.25536   0.80644  -0.00591   0.00000  Uiso   1.00
H289   H    -0.40432   0.68386  -0.05826   0.00000  Uiso   1.00
H290   H    -0.31001   0.59053   0.04891   0.00000  Uiso   1.00
H291   H    -0.10768   0.76645  -0.00505   0.00000  Uiso   1.00
H292   H    -0.22864   0.88667  -0.00505   0.00000  Uiso   1.00
H293   H    -0.24163   0.65814   0.04737   0.00000  Uiso   1.00
H294   H    -0.17552   0.69827  -0.00654   0.00000  Uiso   1.00
H295   H    -0.33609   0.75162  -0.05914   0.00000  Uiso   1.00
H296   H    -0.29640   0.81833  -0.00536   0.00000  Uiso   1.00
C297   C    -0.28275   1.27894   0.00158   0.00000  Uiso   1.00
C298   C    -0.32360   1.27801  -0.03610   0.00000  Uiso   1.00
C299   C    -0.36287   1.31699  -0.03623   0.00000  Uiso   1.00
X300   C    -0.36263   1.35746   0.00170   0.00000  Uiso   1.00
C301   C    -0.32167   1.35880   0.03905   0.00000  Uiso   1.00
C302   C    -0.28213   1.32007   0.03895   0.00000  Uiso   1.00
C303   C    -0.24115   1.23709   0.00199   0.00000  Uiso   1.00
C304   C    -0.18787   1.24996   0.01096   0.00000  Uiso   1.00
C305   C    -0.14884   1.21071   0.01091   0.00000  Uiso   1.00
X306   C    -0.16204   1.15741   0.00228   0.00000  Uiso   1.00
C307   C    -0.21544   1.14454  -0.00625   0.00000  Uiso   1.00
C308   C    -0.25438   1.18385  -0.00660   0.00000  Uiso   1.00
H309   H    -0.39368   1.31552  -0.06583   0.00000  Uiso   1.00
H310   H    -0.32061   1.38967   0.06860   0.00000  Uiso   1.00
H311   H    -0.10824   1.22224   0.01769   0.00000  Uiso   1.00
H312   H    -0.22724   1.10402  -0.01303   0.00000  Uiso   1.00
H313   H    -0.25156   1.32176   0.06877   0.00000  Uiso   1.00
H314   H    -0.17621   1.29059   0.01722   0.00000  Uiso   1.00
H315   H    -0.32484   1.24743  -0.06593   0.00000  Uiso   1.00
H316   H    -0.29507   1.17243  -0.01298   0.00000  Uiso   1.00
C317   C    -0.00245   1.27784   0.28430   0.00000  Uiso   1.00
C318   C     0.02212   1.26872   0.33329   0.00000  Uiso   1.00
C319   C     0.02308   1.30790   0.37239   0.00000  Uiso   1.00
X320   C    -0.00019   1.35779   0.36377   0.00000  Uiso   1.00
C321   C    -0.02513   1.36653   0.31470   0.00000  Uiso   1.00
C322   C    -0.02625   1.32727   0.27574   0.00000  Uiso   1.00
C323   C    -0.00308   1.23616   0.24229   0.00000  Uiso   1.00
C324   C     0.00166   1.24972   0.18859   0.00000  Uiso   1.00
C325   C     0.00140   1.21076   0.14927   0.00000  Uiso   1.00
X326   C    -0.00341   1.15699   0.16243   0.00000  Uiso   1.00
C327   C    -0.00831   1.14341   0.21611   0.00000  Uiso   1.00
C328   C    -0.00822   1.18240   0.25541   0.00000  Uiso   1.00
H329   H     0.04362   1.29961   0.40896   0.00000  Uiso   1.00
H330   H    -0.04523   1.40343   0.30682   0.00000  Uiso   1.00
H331   H     0.00552   1.22289   0.10849   0.00000  Uiso   1.00
H332   H    -0.01236   1.10253   0.22792   0.00000  Uiso   1.00
H333   H    -0.04667   1.33545   0.23911   0.00000  Uiso   1.00
H334   H     0.00652   1.29051   0.17685   0.00000  Uiso   1.00
H335   H     0.04169   1.23157   0.34115   0.00000  Uiso   1.00
H336   H    -0.01283   1.17035   0.29615   0.00000  Uiso   1.00
C337   C     0.00327   1.27858  -0.28399   0.00000  Uiso   1.00
C338   C     0.02598   1.26959  -0.33387   0.00000  Uiso   1.00
C339   C     0.02527   1.30877  -0.37297   0.00000  Uiso   1.00
X340   C     0.00203   1.35854  -0.36352   0.00000  Uiso   1.00
C341   C    -0.02088   1.36721  -0.31344   0.00000  Uiso   1.00
C342   C    -0.02028   1.32796  -0.27445   0.00000  Uiso   1.00
C343   C     0.00393   1.23670  -0.24219   0.00000  Uiso   1.00
C344   C     0.01056   1.24992  -0.18860   0.00000  Uiso   1.00
C345   C     0.01054   1.21080  -0.14943   0.00000  Uiso   1.00
X346   C     0.00404   1.15722  -0.16266   0.00000  Uiso   1.00
C347   C    -0.00222   1.14394  -0.21627   0.00000  Uiso   1.00
C348   C    -0.00235   1.18309  -0.25541   0.00000  Uiso   1.00
H349   H     0.04451   1.30055  -0.41026   0.00000  Uiso   1.00
H350   H    -0.04081   1.40402  -0.30474   0.00000  Uiso   1.00
H351   H     0.01583   1.22264  -0.10870   0.00000  Uiso   1.00
H352   H    -0.00766   1.10323  -0.22811   0.00000  Uiso   1.00
H353   H    -0.03927   1.33604  -0.23704   0.00000  Uiso   1.00
H354   H     0.01639   1.29058  -0.17686   0.00000  Uiso   1.00
H355   H     0.04533   1.23248  -0.34249   0.00000  Uiso   1.00
H356   H    -0.00835   1.17132  -0.29605   0.00000  Uiso   1.00
C357   C    -0.00273   0.71117  -0.28419   0.00000  Uiso   1.00
C358   C    -0.02615   0.66164  -0.27510   0.00000  Uiso   1.00
C359   C    -0.02565   0.62234  -0.31405   0.00000  Uiso   1.00
X360   C    -0.00191   0.63122  -0.36369   0.00000  Uiso   1.00
C361   C     0.02138   0.68104  -0.37264   0.00000  Uiso   1.00
C362   C     0.02105   0.72024  -0.33357   0.00000  Uiso   1.00
C363   C    -0.00292   0.75301  -0.24236   0.00000  Uiso   1.00
C364   C    -0.00866   0.80668  -0.25562   0.00000  Uiso   1.00
C365   C    -0.00851   0.84583  -0.21647   0.00000  Uiso   1.00
X366   C    -0.00279   0.83249  -0.16283   0.00000  Uiso   1.00
C367   C     0.00273   0.77881  -0.14953   0.00000  Uiso   1.00
C368   C     0.00276   0.73970  -0.18869   0.00000  Uiso   1.00
H369   H    -0.04534   0.58531  -0.30573   0.00000  Uiso   1.00
H370   H     0.04147   0.68930  -0.40946   0.00000  Uiso   1.00
H371   H    -0.01313   0.88663  -0.22835   0.00000  Uiso   1.00
H372   H     0.00758   0.76687  -0.10877   0.00000  Uiso   1.00
H373   H     0.04047   0.75741  -0.34177   0.00000  Uiso   1.00
H374   H    -0.01397   0.81852  -0.29633   0.00000  Uiso   1.00
H375   H    -0.04580   0.65341  -0.23807   0.00000  Uiso   1.00
H376   H     0.00813   0.69899  -0.17688   0.00000  Uiso   1.00
C377   C     0.00183   0.71108   0.28345   0.00000  Uiso   1.00
C378   C    -0.03080   0.66632   0.27862   0.00000  Uiso   1.00
C379   C    -0.03122   0.62720   0.31775   0.00000  Uiso   1.00
X380   C     0.00114   0.63163   0.36259   0.00000  Uiso   1.00
C381   C     0.03364   0.67630   0.36763   0.00000  Uiso   1.00
C382   C     0.03395   0.71556   0.32861   0.00000  Uiso   1.00
C383   C     0.00230   0.75281   0.24163   0.00000  Uiso   1.00
C384   C     0.00538   0.80662   0.25509   0.00000  Uiso   1.00
C385   C     0.00539   0.84574   0.21593   0.00000  Uiso   1.00
X386   C     0.00250   0.83220   0.16208   0.00000  Uiso   1.00
C387   C    -0.00029   0.77834   0.14863   0.00000  Uiso   1.00
C388   C    -0.00047   0.73926   0.18782   0.00000  Uiso   1.00
H389   H    -0.05701   0.59341   0.31315   0.00000  Uiso   1.00
H390   H     0.05912   0.68055   0.40169   0.00000  Uiso   1.00
H391   H     0.00748   0.88669   0.22799   0.00000  Uiso   1.00
H392   H    -0.00248   0.76621   0.10770   0.00000  Uiso   1.00
H393   H     0.06003   0.74907   0.33341   0.00000  Uiso   1.00
H394   H     0.00691   0.81862   0.29608   0.00000  Uiso   1.00
H395   H    -0.05664   0.66188   0.24488   0.00000  Uiso   1.00
H396   H    -0.00216   0.69825   0.17589   0.00000  Uiso   1.00
loop_
_geom_bond_atom_site_label_1
_geom_bond_atom_site_label_2
_geom_bond_distance
_geom_bond_site_symmetry_2
_ccdc_geom_bond_type
C1     C2      1.370   .     A
C1     C5      1.385   .     A
C1     H25     1.082   .     S
C2     C3      1.390   .     A
C2     H26     1.081   .     S
C3     N4      1.357   .     A
C3     X6      1.429   .     A
N4     C5      1.355   .     A
C5     X24     1.421   .     A
X6     C7      1.432   .     A
X6     X160    1.425   1_554 A
C7     C8      1.391   .     A
C7     N11     1.360   .     A
C8     C9      1.372   .     A
C8     H28     1.080   .     S
C9     C10     1.385   .     A
C9     H29     1.082   .     S
C10    N11     1.356   .     A
C10    X12     1.423   .     A
N11    H33     1.035   .     S
X12    C13     1.421   .     A
X12    X220    1.497   .     S
C13    C14     1.385   .     A
C13    N17     1.355   .     A
C14    C15     1.370   .     A
C14    H30     1.082   .     S
C15    C16     1.390   .     A
C15    H31     1.081   .     S
C16    N17     1.357   .     A
C16    X18     1.429   .     A
X18    C19     1.432   .     A
X18    X200    1.425   1_655 A
C19    C20     1.391   .     A
C19    N23     1.360   .     A
C20    H34     1.080   .     S
C20    C21     1.372   .     A
C21    C22     1.385   .     A
C21    H32     1.082   .     S
C22    N23     1.356   .     A
C22    X24     1.423   .     A
N23    H27     1.035   .     S
X24    X180    1.497   1_654 S
C35    C36     1.370   .     A
C35    C39     1.391   .     A
C35    H59     1.080   .     S
C36    C37     1.384   .     A
C36    H60     1.082   .     S
C37    N38     1.355   .     A
C37    X40     1.419   .     A
N38    C39     1.357   .     A
C39    X58     1.430   .     A
X40    C41     1.419   .     A
X40    X300    1.498   .     S
C41    C42     1.386   .     A
C41    N45     1.358   .     A
C42    C43     1.373   .     A
C42    H62     1.082   .     S
C43    C44     1.389   .     A
C43    H63     1.082   .     S
C44    N45     1.359   .     A
C44    X46     1.427   .     A
N45    H67     1.040   .     S
X46    C47     1.426   .     A
X46    X280    1.431   1_565 A
C47    C48     1.388   .     A
C47    N51     1.357   .     A
C48    C49     1.369   .     A
C48    H64     1.082   .     S
C49    C50     1.386   .     A
C49    H65     1.081   .     S
C50    N51     1.357   .     A
C50    X52     1.420   .     A
X52    C53     1.422   .     A
X52    X260    1.496   1_465 S
C53    C54     1.385   .     A
C53    N57     1.357   .     A
C54    H68     1.082   .     S
C54    C55     1.373   .     A
C55    C56     1.392   .     A
C55    H66     1.080   .     S
C56    N57     1.360   .     A
C56    X58     1.433   .     A
N57    H61     1.035   .     S
X58    X240    1.424   1_455 A
C69    C70     1.370   .     A
C69    C73     1.387   .     A
C69    H93     1.082   .     S
C70    C71     1.387   .     A
C70    H94     1.082   .     S
C71    N72     1.357   .     A
C71    X74     1.422   .     A
N72    C73     1.357   .     A
C73    X92     1.423   .     A
X74    C75     1.424   .     A
X74    X340    1.432   1_546 A
C75    C76     1.387   .     A
C75    N79     1.357   .     A
C76    C77     1.374   .     A
C76    H96     1.082   .     S
C77    C78     1.388   .     A
C77    H97     1.082   .     S
C78    N79     1.358   .     A
C78    X80     1.425   .     A
N79    H101    1.043   .     S
X80    C81     1.422   .     A
X80    X320    1.431   1_545 A
C81    C82     1.388   .     A
C81    N85     1.355   .     A
C82    C83     1.372   .     A
C82    H98     1.082   .     S
C83    C84     1.384   .     A
C83    H99     1.082   .     S
C84    N85     1.355   .     A
C84    X86     1.414   .     A
X86    C87     1.415   .     A
X86    X380    1.499   .     S
C87    C88     1.385   .     A
C87    N91     1.356   .     A
C88    H102    1.082   .     S
C88    C89     1.376   .     A
C89    C90     1.389   .     A
C89    H100    1.082   .     S
C90    N91     1.356   .     A
C90    X92     1.424   .     A
N91    H95     1.042   .     S
X92    X360    1.431   1_556 A
O103   Zr139   2.120   .     S
O103   X114    1.301   .     A
O104   Zr138   2.117   .     S
O104   X115    1.300   .     A
O105   Zr111   2.120   .     S
O105   X116    1.301   .     A
O106   Zr111   2.119   .     S
O106   X117    1.301   .     A
O107   Zr141   2.119   .     S
O107   X117    1.301   .     A
O108   Zr140   2.118   .     S
O108   X116    1.301   .     A
O109   Zr111   2.119   .     S
O109   X115    1.301   .     A
O110   Zr111   2.120   .     S
O110   X114    1.301   .     A
Zr111  O112    2.065   .     S
Zr111  O113    2.064   .     S
Zr111  O121    2.060   .     S
Zr111  O119    2.060   .     S
O112   Zr138   2.064   .     S
O112   Zr141   2.065   .     S
O113   Zr139   2.063   .     S
O113   Zr140   2.064   .     S
X114   X206    1.490   .     S
X115   X186    1.490   .     S
X116   X286    1.494   .     S
X117   X306    1.493   .     S
H118   O119    0.989   .     S
O119   Zr138   2.060   .     S
O119   Zr140   2.059   .     S
H120   O121    0.989   .     S
O121   Zr139   2.059   .     S
O121   Zr141   2.060   .     S
O122   Zr138   2.120   .     S
O122   X145    1.301   .     A
O123   Zr139   2.117   .     S
O123   X146    1.300   .     A
O124   Zr140   2.120   .     S
O124   X147    1.301   .     A
O125   Zr141   2.120   .     S
O125   X148    1.301   .     A
O126   Zr141   2.120   .     S
O126   X149    1.301   .     A
O127   Zr140   2.119   .     S
O127   X150    1.301   .     A
O128   Zr142   2.120   .     S
O128   X151    1.301   .     A
O129   Zr142   2.119   .     S
O129   X152    1.301   .     A
O130   Zr140   2.117   .     S
O130   X151    1.300   .     A
O131   Zr141   2.120   .     S
O131   X152    1.301   .     A
O132   Zr138   2.119   .     S
O132   X147    1.301   .     A
O133   Zr139   2.120   .     S
O133   X150    1.301   .     A
O134   Zr139   2.119   .     S
O134   X149    1.301   .     A
O135   Zr138   2.119   .     S
O135   X148    1.301   .     A
O136   Zr142   2.120   .     S
O136   X145    1.301   .     A
O137   Zr142   2.120   .     S
O137   X146    1.301   .     A
Zr138  O144    2.064   .     S
Zr138  O156    2.059   .     S
Zr139  O143    2.065   .     S
Zr139  O154    2.060   .     S
Zr140  O144    2.065   .     S
Zr140  O154    2.059   .     S
Zr141  O143    2.064   .     S
Zr141  O156    2.060   .     S
Zr142  O143    2.066   .     S
Zr142  O144    2.063   .     S
Zr142  O156    2.059   .     S
Zr142  O154    2.060   .     S
X145   X166    1.491   .     S
X146   X226    1.490   .     S
X147   X386    1.494   .     S
X148   X326    1.494   .     S
X149   X346    1.494   .     S
X150   X366    1.494   .     S
X151   X266    1.486   .     S
X152   X246    1.489   .     S
H153   O154    0.989   .     S
H155   O156    0.988   .     S
C157   C158    1.406   .     A
C157   C162    1.406   .     A
C157   C163    1.493   .     S
C158   C159    1.402   .     A
C158   H175    1.083   .     S
C159   X160    1.409   .     A
C159   H169    1.083   .     S
X160   C161    1.410   .     A
X160   X6      1.425   1_556 A
C161   C162    1.403   .     A
C161   H170    1.084   .     S
C162   H173    1.083   .     S
C163   C164    1.406   .     A
C163   C168    1.406   .     A
C164   C165    1.403   .     A
C164   H174    1.083   .     S
C165   X166    1.408   .     A
C165   H171    1.083   .     S
X166   C167    1.408   .     A
C167   C168    1.403   .     A
C167   H172    1.083   .     S
C168   H176    1.083   .     S
C177   C178    1.407   .     A
C177   C182    1.408   .     A
C177   C183    1.492   .     S
C178   C179    1.402   .     A
C178   H195    1.083   .     S
C179   X180    1.405   .     A
C179   H189    1.083   .     S
X180   C181    1.404   .     A
X180   X24     1.497   1_456 S
C181   C182    1.401   .     A
C181   H190    1.083   .     S
C182   H193    1.083   .     S
C183   C184    1.406   .     A
C183   C188    1.407   .     A
C184   C185    1.401   .     A
C184   H194    1.083   .     S
C185   X186    1.408   .     A
C185   H191    1.083   .     S
X186   C187    1.408   .     A
C187   C188    1.402   .     A
C187   H192    1.083   .     S
C188   H196    1.083   .     S
C197   C198    1.406   .     A
C197   C202    1.406   .     A
C197   C203    1.493   .     S
C198   C199    1.402   .     A
C198   H215    1.083   .     S
C199   X200    1.409   .     A
C199   H209    1.083   .     S
X200   C201    1.410   .     A
X200   X18     1.425   1_455 A
C201   C202    1.403   .     A
C201   H210    1.084   .     S
C202   H213    1.083   .     S
C203   C204    1.407   .     A
C203   C208    1.406   .     A
C204   C205    1.403   .     A
C204   H214    1.083   .     S
C205   X206    1.408   .     A
C205   H211    1.083   .     S
X206   C207    1.408   .     A
C207   C208    1.403   .     A
C207   H212    1.083   .     S
C208   H216    1.083   .     S
C217   C218    1.408   .     A
C217   C222    1.407   .     A
C217   C223    1.492   .     S
C218   C219    1.401   .     A
C218   H235    1.083   .     S
C219   X220    1.404   .     A
C219   H229    1.083   .     S
X220   C221    1.405   .     A
C221   C222    1.402   .     A
C221   H230    1.083   .     S
C222   H233    1.083   .     S
C223   C224    1.407   .     A
C223   C228    1.406   .     A
C224   C225    1.402   .     A
C224   H234    1.083   .     S
C225   X226    1.408   .     A
C225   H231    1.083   .     S
X226   C227    1.408   .     A
C227   C228    1.401   .     A
C227   H232    1.083   .     S
C228   H236    1.083   .     S
C237   C238    1.406   .     A
C237   C242    1.406   .     A
C237   C243    1.492   .     S
C238   C239    1.402   .     A
C238   H255    1.083   .     S
C239   X240    1.410   .     A
C239   H249    1.084   .     S
X240   C241    1.409   .     A
X240   X58     1.424   1_655 A
C241   C242    1.402   .     A
C241   H250    1.084   .     S
C242   H253    1.083   .     S
C243   C244    1.406   .     A
C243   C248    1.406   .     A
C244   C245    1.402   .     A
C244   H254    1.083   .     S
C245   X246    1.407   .     A
C245   H251    1.083   .     S
X246   C247    1.407   .     A
C247   C248    1.403   .     A
C247   H252    1.083   .     S
C248   H256    1.083   .     S
C257   C258    1.406   .     A
C257   C262    1.406   .     A
C257   C263    1.489   .     S
C258   C259    1.401   .     A
C258   H275    1.083   .     S
C259   X260    1.405   .     A
C259   H269    1.083   .     S
X260   C261    1.405   .     A
X260   X52     1.496   1_645 S
C261   C262    1.402   .     A
C261   H270    1.083   .     S
C262   H273    1.083   .     S
C263   C264    1.406   .     A
C263   C268    1.405   .     A
C264   C265    1.402   .     A
C264   H274    1.083   .     S
C265   X266    1.407   .     A
C265   H271    1.083   .     S
X266   C267    1.407   .     A
C267   C268    1.402   .     A
C267   H272    1.083   .     S
C268   H276    1.083   .     S
C277   C278    1.407   .     A
C277   C282    1.407   .     A
C277   C283    1.498   .     S
C278   C279    1.402   .     A
C278   H295    1.083   .     S
C279   X280    1.412   .     A
C279   H289    1.083   .     S
X280   C281    1.411   .     A
X280   X46     1.431   1_545 A
C281   C282    1.402   .     A
C281   H290    1.083   .     S
C282   H293    1.083   .     S
C283   C284    1.407   .     A
C283   C288    1.408   .     A
C284   C285    1.402   .     A
C284   H294    1.083   .     S
C285   X286    1.408   .     A
C285   H291    1.083   .     S
X286   C287    1.408   .     A
C287   C288    1.402   .     A
C287   H292    1.083   .     S
C288   H296    1.083   .     S
C297   C298    1.408   .     A
C297   C302    1.408   .     A
C297   C303    1.495   .     S
C298   C299    1.402   .     A
C298   H315    1.083   .     S
C299   X300    1.405   .     A
C299   H309    1.083   .     S
X300   C301    1.405   .     A
C301   C302    1.402   .     A
C301   H310    1.083   .     S
C302   H313    1.083   .     S
C303   C304    1.407   .     A
C303   C308    1.407   .     A
C304   C305    1.402   .     A
C304   H314    1.083   .     S
C305   X306    1.408   .     A
C305   H311    1.083   .     S
X306   C307    1.408   .     A
C307   C308    1.402   .     A
C307   H312    1.083   .     S
C308   H316    1.083   .     S
C317   C318    1.408   .     A
C317   C322    1.407   .     A
C317   C323    1.499   .     S
C318   C319    1.403   .     A
C318   H335    1.082   .     S
C319   X320    1.412   .     A
C319   H329    1.083   .     S
X320   C321    1.412   .     A
X320   X80     1.431   1_565 A
C321   C322    1.402   .     A
C321   H330    1.083   .     S
C322   H333    1.082   .     S
C323   C324    1.408   .     A
C323   C328    1.408   .     A
C324   C325    1.402   .     A
C324   H334    1.082   .     S
C325   X326    1.408   .     A
C325   H331    1.083   .     S
X326   C327    1.408   .     A
C327   C328    1.402   .     A
C327   H332    1.083   .     S
C328   H336    1.082   .     S
C337   C338    1.407   .     A
C337   C342    1.407   .     A
C337   C343    1.499   .     S
C338   C339    1.402   .     A
C338   H355    1.082   .     S
C339   X340    1.412   .     A
C339   H349    1.083   .     S
X340   C341    1.412   .     A
X340   X74     1.432   1_564 A
C341   C342    1.402   .     A
C341   H350    1.083   .     S
C342   H353    1.082   .     S
C343   C344    1.408   .     A
C343   C348    1.408   .     A
C344   C345    1.403   .     A
C344   H354    1.082   .     S
C345   X346    1.408   .     A
C345   H351    1.083   .     S
X346   C347    1.408   .     A
C347   C348    1.402   .     A
C347   H352    1.083   .     S
C348   H356    1.082   .     S
C357   C358    1.407   .     A
C357   C362    1.407   .     A
C357   C363    1.499   .     S
C358   C359    1.402   .     A
C358   H375    1.082   .     S
C359   X360    1.412   .     A
C359   H369    1.083   .     S
X360   C361    1.412   .     A
X360   X92     1.431   1_554 A
C361   C362    1.402   .     A
C361   H370    1.083   .     S
C362   H373    1.082   .     S
C363   C364    1.408   .     A
C363   C368    1.408   .     A
C364   C365    1.403   .     A
C364   H374    1.082   .     S
C365   X366    1.408   .     A
C365   H371    1.083   .     S
X366   C367    1.408   .     A
C367   C368    1.402   .     A
C367   H372    1.083   .     S
C368   H376    1.082   .     S
C377   C378    1.408   .     A
C377   C382    1.409   .     A
C377   C383    1.497   .     S
C378   C379    1.402   .     A
C378   H395    1.083   .     S
C379   X380    1.405   .     A
C379   H389    1.083   .     S
X380   C381    1.405   .     A
C381   C382    1.402   .     A
C381   H390    1.083   .     S
C382   H393    1.083   .     S
C383   C384    1.407   .     A
C383   C388    1.407   .     A
C384   C385    1.402   .     A
C384   H394    1.083   .     S
C385   X386    1.408   .     A
C385   H391    1.083   .     S
X386   C387    1.408   .     A
C387   C388    1.402   .     A
C387   H392    1.083   .     S
C388   H396    1.083   .     S
