data_image0
_cell_length_a       41.616
_cell_length_b       41.616
_cell_length_c       41.616
_cell_angle_alpha    90
_cell_angle_beta     90
_cell_angle_gamma    90

_symmetry_space_group_name_H-M    "P 1"
_symmetry_int_tables_number       1

loop_
  _symmetry_equiv_pos_as_xyz
  'x, y, z'

loop_
  _atom_site_label
  _atom_site_occupancy
  _atom_site_fract_x
  _atom_site_fract_y
  _atom_site_fract_z
  _atom_site_thermal_displace_type
  _atom_site_B_iso_or_equiv
  _atom_site_type_symbol
  O1       1.0000 0.43862  0.29568  0.05976  Biso   1.000  O
  O2       1.0000 0.47276  0.24779  0.09375  Biso   1.000  O
  O3       1.0000 0.46512  0.33535  0.03228  Biso   1.000  O
  C1       1.0000 0.47050  0.21820  0.18810  Biso   1.000  C
  C2       1.0000 0.47130  0.22750  0.15683  Biso   1.000  C
  C3       1.0000 0.42467  0.34965  0.06841  Biso   1.000  C
  C4       1.0000 0.40458  0.34059  0.09351  Biso   1.000  C
  C5       1.0000 0.38879  0.36389  0.11150  Biso   1.000  C
  C6       1.0000 0.39310  0.39624  0.10439  Biso   1.000  C
  C7       1.0000 0.41320  0.40529  0.07930  Biso   1.000  C
  C8       1.0000 0.42899  0.38200  0.06131  Biso   1.000  C
  C9       1.0000 0.44440  0.32490  0.05298  Biso   1.000  C
  C10      1.0000 0.47500  0.20020  0.25660  Biso   1.000  C
  C11      1.0000 0.41580  0.52690  0.36300  Biso   1.000  C
  C12      1.0000 0.34810  0.47710  0.24140  Biso   1.000  C
  O4       1.0000 0.44810  0.52440  0.41980  Biso   1.000  O
  C13      1.0000 0.40190  0.52990  0.33060  Biso   1.000  C
  C14      1.0000 0.47610  0.19590  0.28970  Biso   1.000  C
  C15      1.0000 0.36190  0.47720  0.27290  Biso   1.000  C
  C16      1.0000 0.37517  0.41875  0.12602  Biso   1.000  C
  C17      1.0000 0.35696  0.44326  0.11247  Biso   1.000  C
  C18      1.0000 0.34534  0.46800  0.13167  Biso   1.000  C
  C19      1.0000 0.35193  0.46823  0.16442  Biso   1.000  C
  C20      1.0000 0.37013  0.44372  0.17796  Biso   1.000  C
  C21      1.0000 0.38175  0.41898  0.15876  Biso   1.000  C
  O5       1.0000 0.56138  0.70432  0.05976  Biso   1.000  O
  O6       1.0000 0.52724  0.75221  0.09375  Biso   1.000  O
  O7       1.0000 0.53488  0.66465  0.03228  Biso   1.000  O
  C22      1.0000 0.52950  0.78180  0.18810  Biso   1.000  C
  C23      1.0000 0.52870  0.77250  0.15683  Biso   1.000  C
  C24      1.0000 0.57533  0.65035  0.06841  Biso   1.000  C
  C25      1.0000 0.59542  0.65941  0.09351  Biso   1.000  C
  C26      1.0000 0.61121  0.63611  0.11150  Biso   1.000  C
  C27      1.0000 0.60690  0.60376  0.10439  Biso   1.000  C
  C28      1.0000 0.58680  0.59471  0.07930  Biso   1.000  C
  C29      1.0000 0.57101  0.61800  0.06131  Biso   1.000  C
  C30      1.0000 0.55560  0.67510  0.05298  Biso   1.000  C
  C31      1.0000 0.52500  0.79980  0.25660  Biso   1.000  C
  C32      1.0000 0.58420  0.47310  0.36300  Biso   1.000  C
  C33      1.0000 0.65190  0.52290  0.24140  Biso   1.000  C
  O8       1.0000 0.55190  0.47560  0.41980  Biso   1.000  O
  C34      1.0000 0.59810  0.47010  0.33060  Biso   1.000  C
  C35      1.0000 0.52390  0.80410  0.28970  Biso   1.000  C
  C36      1.0000 0.63810  0.52280  0.27290  Biso   1.000  C
  C37      1.0000 0.62483  0.58125  0.12602  Biso   1.000  C
  C38      1.0000 0.64304  0.55674  0.11247  Biso   1.000  C
  C39      1.0000 0.65466  0.53200  0.13167  Biso   1.000  C
  C40      1.0000 0.64807  0.53177  0.16442  Biso   1.000  C
  C41      1.0000 0.62987  0.55628  0.17796  Biso   1.000  C
  C42      1.0000 0.61825  0.58102  0.15876  Biso   1.000  C
  O9       1.0000 0.56138  0.29568  0.94024  Biso   1.000  O
  O10      1.0000 0.52724  0.24779  0.90625  Biso   1.000  O
  O11      1.0000 0.53488  0.33535  0.96772  Biso   1.000  O
  C43      1.0000 0.52950  0.21820  0.81190  Biso   1.000  C
  C44      1.0000 0.52870  0.22750  0.84317  Biso   1.000  C
  C45      1.0000 0.57533  0.34965  0.93159  Biso   1.000  C
  C46      1.0000 0.59542  0.34059  0.90649  Biso   1.000  C
  C47      1.0000 0.61121  0.36389  0.88850  Biso   1.000  C
  C48      1.0000 0.60690  0.39624  0.89561  Biso   1.000  C
  C49      1.0000 0.58680  0.40529  0.92070  Biso   1.000  C
  C50      1.0000 0.57101  0.38200  0.93869  Biso   1.000  C
  C51      1.0000 0.55560  0.32490  0.94702  Biso   1.000  C
  C52      1.0000 0.52500  0.20020  0.74340  Biso   1.000  C
  C53      1.0000 0.58420  0.52690  0.63700  Biso   1.000  C
  C54      1.0000 0.65190  0.47710  0.75860  Biso   1.000  C
  O12      1.0000 0.55190  0.52440  0.58020  Biso   1.000  O
  C55      1.0000 0.59810  0.52990  0.66940  Biso   1.000  C
  C56      1.0000 0.52390  0.19590  0.71030  Biso   1.000  C
  C57      1.0000 0.63810  0.47720  0.72710  Biso   1.000  C
  C58      1.0000 0.62483  0.41875  0.87398  Biso   1.000  C
  C59      1.0000 0.64304  0.44326  0.88753  Biso   1.000  C
  C60      1.0000 0.65466  0.46800  0.86833  Biso   1.000  C
  C61      1.0000 0.64807  0.46823  0.83558  Biso   1.000  C
  C62      1.0000 0.62987  0.44372  0.82204  Biso   1.000  C
  C63      1.0000 0.61825  0.41898  0.84124  Biso   1.000  C
  O13      1.0000 0.43862  0.70432  0.94024  Biso   1.000  O
  O14      1.0000 0.47276  0.75221  0.90625  Biso   1.000  O
  O15      1.0000 0.46512  0.66465  0.96772  Biso   1.000  O
  C64      1.0000 0.47050  0.78180  0.81190  Biso   1.000  C
  C65      1.0000 0.47130  0.77250  0.84317  Biso   1.000  C
  C66      1.0000 0.42467  0.65035  0.93159  Biso   1.000  C
  C67      1.0000 0.40458  0.65941  0.90649  Biso   1.000  C
  C68      1.0000 0.38879  0.63611  0.88850  Biso   1.000  C
  C69      1.0000 0.39310  0.60376  0.89561  Biso   1.000  C
  C70      1.0000 0.41320  0.59471  0.92070  Biso   1.000  C
  C71      1.0000 0.42899  0.61800  0.93869  Biso   1.000  C
  C72      1.0000 0.44440  0.67510  0.94702  Biso   1.000  C
  C73      1.0000 0.47500  0.79980  0.74340  Biso   1.000  C
  C74      1.0000 0.41580  0.47310  0.63700  Biso   1.000  C
  C75      1.0000 0.34810  0.52290  0.75860  Biso   1.000  C
  O16      1.0000 0.44810  0.47560  0.58020  Biso   1.000  O
  C76      1.0000 0.40190  0.47010  0.66940  Biso   1.000  C
  C77      1.0000 0.47610  0.80410  0.71030  Biso   1.000  C
  C78      1.0000 0.36190  0.52280  0.72710  Biso   1.000  C
  C79      1.0000 0.37517  0.58125  0.87398  Biso   1.000  C
  C80      1.0000 0.35696  0.55674  0.88753  Biso   1.000  C
  C81      1.0000 0.34534  0.53200  0.86833  Biso   1.000  C
  C82      1.0000 0.35193  0.53177  0.83558  Biso   1.000  C
  C83      1.0000 0.37013  0.55628  0.82204  Biso   1.000  C
  C84      1.0000 0.38175  0.58102  0.84124  Biso   1.000  C
  O17      1.0000 0.05976  0.43862  0.29568  Biso   1.000  O
  O18      1.0000 0.09375  0.47276  0.24779  Biso   1.000  O
  O19      1.0000 0.03228  0.46512  0.33535  Biso   1.000  O
  C85      1.0000 0.18810  0.47050  0.21820  Biso   1.000  C
  C86      1.0000 0.15683  0.47130  0.22750  Biso   1.000  C
  C87      1.0000 0.06841  0.42467  0.34965  Biso   1.000  C
  C88      1.0000 0.09351  0.40458  0.34059  Biso   1.000  C
  C89      1.0000 0.11150  0.38879  0.36389  Biso   1.000  C
  C90      1.0000 0.10439  0.39310  0.39624  Biso   1.000  C
  C91      1.0000 0.07930  0.41320  0.40529  Biso   1.000  C
  C92      1.0000 0.06131  0.42899  0.38200  Biso   1.000  C
  C93      1.0000 0.05298  0.44440  0.32490  Biso   1.000  C
  C94      1.0000 0.25660  0.47500  0.20020  Biso   1.000  C
  C95      1.0000 0.36300  0.41580  0.52690  Biso   1.000  C
  C96      1.0000 0.24140  0.34810  0.47710  Biso   1.000  C
  O20      1.0000 0.41980  0.44810  0.52440  Biso   1.000  O
  C97      1.0000 0.33060  0.40190  0.52990  Biso   1.000  C
  C98      1.0000 0.28970  0.47610  0.19590  Biso   1.000  C
  C99      1.0000 0.27290  0.36190  0.47720  Biso   1.000  C
  C100     1.0000 0.12602  0.37517  0.41875  Biso   1.000  C
  C101     1.0000 0.11247  0.35696  0.44326  Biso   1.000  C
  C102     1.0000 0.13167  0.34534  0.46800  Biso   1.000  C
  C103     1.0000 0.16442  0.35193  0.46823  Biso   1.000  C
  C104     1.0000 0.17796  0.37013  0.44372  Biso   1.000  C
  C105     1.0000 0.15876  0.38175  0.41898  Biso   1.000  C
  O21      1.0000 0.05976  0.56138  0.70432  Biso   1.000  O
  O22      1.0000 0.09375  0.52724  0.75221  Biso   1.000  O
  O23      1.0000 0.03228  0.53488  0.66465  Biso   1.000  O
  C106     1.0000 0.18810  0.52950  0.78180  Biso   1.000  C
  C107     1.0000 0.15683  0.52870  0.77250  Biso   1.000  C
  C108     1.0000 0.06841  0.57533  0.65035  Biso   1.000  C
  C109     1.0000 0.09351  0.59542  0.65941  Biso   1.000  C
  C110     1.0000 0.11150  0.61121  0.63611  Biso   1.000  C
  C111     1.0000 0.10439  0.60690  0.60376  Biso   1.000  C
  C112     1.0000 0.07930  0.58680  0.59471  Biso   1.000  C
  C113     1.0000 0.06131  0.57101  0.61800  Biso   1.000  C
  C114     1.0000 0.05298  0.55560  0.67510  Biso   1.000  C
  C115     1.0000 0.25660  0.52500  0.79980  Biso   1.000  C
  C116     1.0000 0.36300  0.58420  0.47310  Biso   1.000  C
  C117     1.0000 0.24140  0.65190  0.52290  Biso   1.000  C
  O24      1.0000 0.41980  0.55190  0.47560  Biso   1.000  O
  C118     1.0000 0.33060  0.59810  0.47010  Biso   1.000  C
  C119     1.0000 0.28970  0.52390  0.80410  Biso   1.000  C
  C120     1.0000 0.27290  0.63810  0.52280  Biso   1.000  C
  C121     1.0000 0.12602  0.62483  0.58125  Biso   1.000  C
  C122     1.0000 0.11247  0.64304  0.55674  Biso   1.000  C
  C123     1.0000 0.13167  0.65466  0.53200  Biso   1.000  C
  C124     1.0000 0.16442  0.64807  0.53177  Biso   1.000  C
  C125     1.0000 0.17796  0.62987  0.55628  Biso   1.000  C
  C126     1.0000 0.15876  0.61825  0.58102  Biso   1.000  C
  O25      1.0000 0.94024  0.56138  0.29568  Biso   1.000  O
  O26      1.0000 0.90625  0.52724  0.24779  Biso   1.000  O
  O27      1.0000 0.96772  0.53488  0.33535  Biso   1.000  O
  C127     1.0000 0.81190  0.52950  0.21820  Biso   1.000  C
  C128     1.0000 0.84317  0.52870  0.22750  Biso   1.000  C
  C129     1.0000 0.93159  0.57533  0.34965  Biso   1.000  C
  C130     1.0000 0.90649  0.59542  0.34059  Biso   1.000  C
  C131     1.0000 0.88850  0.61121  0.36389  Biso   1.000  C
  C132     1.0000 0.89561  0.60690  0.39624  Biso   1.000  C
  C133     1.0000 0.92070  0.58680  0.40529  Biso   1.000  C
  C134     1.0000 0.93869  0.57101  0.38200  Biso   1.000  C
  C135     1.0000 0.94702  0.55560  0.32490  Biso   1.000  C
  C136     1.0000 0.74340  0.52500  0.20020  Biso   1.000  C
  C137     1.0000 0.63700  0.58420  0.52690  Biso   1.000  C
  C138     1.0000 0.75860  0.65190  0.47710  Biso   1.000  C
  O28      1.0000 0.58020  0.55190  0.52440  Biso   1.000  O
  C139     1.0000 0.66940  0.59810  0.52990  Biso   1.000  C
  C140     1.0000 0.71030  0.52390  0.19590  Biso   1.000  C
  C141     1.0000 0.72710  0.63810  0.47720  Biso   1.000  C
  C142     1.0000 0.87398  0.62483  0.41875  Biso   1.000  C
  C143     1.0000 0.88753  0.64304  0.44326  Biso   1.000  C
  C144     1.0000 0.86833  0.65466  0.46800  Biso   1.000  C
  C145     1.0000 0.83558  0.64807  0.46823  Biso   1.000  C
  C146     1.0000 0.82204  0.62987  0.44372  Biso   1.000  C
  C147     1.0000 0.84124  0.61825  0.41898  Biso   1.000  C
  O29      1.0000 0.94024  0.43862  0.70432  Biso   1.000  O
  O30      1.0000 0.90625  0.47276  0.75221  Biso   1.000  O
  O31      1.0000 0.96772  0.46512  0.66465  Biso   1.000  O
  C148     1.0000 0.81190  0.47050  0.78180  Biso   1.000  C
  C149     1.0000 0.84317  0.47130  0.77250  Biso   1.000  C
  C150     1.0000 0.93159  0.42467  0.65035  Biso   1.000  C
  C151     1.0000 0.90649  0.40458  0.65941  Biso   1.000  C
  C152     1.0000 0.88850  0.38879  0.63611  Biso   1.000  C
  C153     1.0000 0.89561  0.39310  0.60376  Biso   1.000  C
  C154     1.0000 0.92070  0.41320  0.59471  Biso   1.000  C
  C155     1.0000 0.93869  0.42899  0.61800  Biso   1.000  C
  C156     1.0000 0.94702  0.44440  0.67510  Biso   1.000  C
  C157     1.0000 0.74340  0.47500  0.79980  Biso   1.000  C
  C158     1.0000 0.63700  0.41580  0.47310  Biso   1.000  C
  C159     1.0000 0.75860  0.34810  0.52290  Biso   1.000  C
  O32      1.0000 0.58020  0.44810  0.47560  Biso   1.000  O
  C160     1.0000 0.66940  0.40190  0.47010  Biso   1.000  C
  C161     1.0000 0.71030  0.47610  0.80410  Biso   1.000  C
  C162     1.0000 0.72710  0.36190  0.52280  Biso   1.000  C
  C163     1.0000 0.87398  0.37517  0.58125  Biso   1.000  C
  C164     1.0000 0.88753  0.35696  0.55674  Biso   1.000  C
  C165     1.0000 0.86833  0.34534  0.53200  Biso   1.000  C
  C166     1.0000 0.83558  0.35193  0.53177  Biso   1.000  C
  C167     1.0000 0.82204  0.37013  0.55628  Biso   1.000  C
  C168     1.0000 0.84124  0.38175  0.58102  Biso   1.000  C
  O33      1.0000 0.29568  0.05976  0.43862  Biso   1.000  O
  O34      1.0000 0.24779  0.09375  0.47276  Biso   1.000  O
  O35      1.0000 0.33535  0.03228  0.46512  Biso   1.000  O
  C169     1.0000 0.21820  0.18810  0.47050  Biso   1.000  C
  C170     1.0000 0.22750  0.15683  0.47130  Biso   1.000  C
  C171     1.0000 0.34965  0.06841  0.42467  Biso   1.000  C
  C172     1.0000 0.34059  0.09351  0.40458  Biso   1.000  C
  C173     1.0000 0.36389  0.11150  0.38879  Biso   1.000  C
  C174     1.0000 0.39624  0.10439  0.39310  Biso   1.000  C
  C175     1.0000 0.40529  0.07930  0.41320  Biso   1.000  C
  C176     1.0000 0.38200  0.06131  0.42899  Biso   1.000  C
  C177     1.0000 0.32490  0.05298  0.44440  Biso   1.000  C
  C178     1.0000 0.20020  0.25660  0.47500  Biso   1.000  C
  C179     1.0000 0.52690  0.36300  0.41580  Biso   1.000  C
  C180     1.0000 0.47710  0.24140  0.34810  Biso   1.000  C
  O36      1.0000 0.52440  0.41980  0.44810  Biso   1.000  O
  C181     1.0000 0.52990  0.33060  0.40190  Biso   1.000  C
  C182     1.0000 0.19590  0.28970  0.47610  Biso   1.000  C
  C183     1.0000 0.47720  0.27290  0.36190  Biso   1.000  C
  C184     1.0000 0.41875  0.12602  0.37517  Biso   1.000  C
  C185     1.0000 0.44326  0.11247  0.35696  Biso   1.000  C
  C186     1.0000 0.46800  0.13167  0.34534  Biso   1.000  C
  C187     1.0000 0.46823  0.16442  0.35193  Biso   1.000  C
  C188     1.0000 0.44372  0.17796  0.37013  Biso   1.000  C
  C189     1.0000 0.41898  0.15876  0.38175  Biso   1.000  C
  O37      1.0000 0.70432  0.05976  0.56138  Biso   1.000  O
  O38      1.0000 0.75221  0.09375  0.52724  Biso   1.000  O
  O39      1.0000 0.66465  0.03228  0.53488  Biso   1.000  O
  C190     1.0000 0.78180  0.18810  0.52950  Biso   1.000  C
  C191     1.0000 0.77250  0.15683  0.52870  Biso   1.000  C
  C192     1.0000 0.65035  0.06841  0.57533  Biso   1.000  C
  C193     1.0000 0.65941  0.09351  0.59542  Biso   1.000  C
  C194     1.0000 0.63611  0.11150  0.61121  Biso   1.000  C
  C195     1.0000 0.60376  0.10439  0.60690  Biso   1.000  C
  C196     1.0000 0.59471  0.07930  0.58680  Biso   1.000  C
  C197     1.0000 0.61800  0.06131  0.57101  Biso   1.000  C
  C198     1.0000 0.67510  0.05298  0.55560  Biso   1.000  C
  C199     1.0000 0.79980  0.25660  0.52500  Biso   1.000  C
  C200     1.0000 0.47310  0.36300  0.58420  Biso   1.000  C
  C201     1.0000 0.52290  0.24140  0.65190  Biso   1.000  C
  O40      1.0000 0.47560  0.41980  0.55190  Biso   1.000  O
  C202     1.0000 0.47010  0.33060  0.59810  Biso   1.000  C
  C203     1.0000 0.80410  0.28970  0.52390  Biso   1.000  C
  C204     1.0000 0.52280  0.27290  0.63810  Biso   1.000  C
  C205     1.0000 0.58125  0.12602  0.62483  Biso   1.000  C
  C206     1.0000 0.55674  0.11247  0.64304  Biso   1.000  C
  C207     1.0000 0.53200  0.13167  0.65466  Biso   1.000  C
  C208     1.0000 0.53177  0.16442  0.64807  Biso   1.000  C
  C209     1.0000 0.55628  0.17796  0.62987  Biso   1.000  C
  C210     1.0000 0.58102  0.15876  0.61825  Biso   1.000  C
  O41      1.0000 0.29568  0.94024  0.56138  Biso   1.000  O
  O42      1.0000 0.24779  0.90625  0.52724  Biso   1.000  O
  O43      1.0000 0.33535  0.96772  0.53488  Biso   1.000  O
  C211     1.0000 0.21820  0.81190  0.52950  Biso   1.000  C
  C212     1.0000 0.22750  0.84317  0.52870  Biso   1.000  C
  C213     1.0000 0.34965  0.93159  0.57533  Biso   1.000  C
  C214     1.0000 0.34059  0.90649  0.59542  Biso   1.000  C
  C215     1.0000 0.36389  0.88850  0.61121  Biso   1.000  C
  C216     1.0000 0.39624  0.89561  0.60690  Biso   1.000  C
  C217     1.0000 0.40529  0.92070  0.58680  Biso   1.000  C
  C218     1.0000 0.38200  0.93869  0.57101  Biso   1.000  C
  C219     1.0000 0.32490  0.94702  0.55560  Biso   1.000  C
  C220     1.0000 0.20020  0.74340  0.52500  Biso   1.000  C
  C221     1.0000 0.52690  0.63700  0.58420  Biso   1.000  C
  C222     1.0000 0.47710  0.75860  0.65190  Biso   1.000  C
  O44      1.0000 0.52440  0.58020  0.55190  Biso   1.000  O
  C223     1.0000 0.52990  0.66940  0.59810  Biso   1.000  C
  C224     1.0000 0.19590  0.71030  0.52390  Biso   1.000  C
  C225     1.0000 0.47720  0.72710  0.63810  Biso   1.000  C
  C226     1.0000 0.41875  0.87398  0.62483  Biso   1.000  C
  C227     1.0000 0.44326  0.88753  0.64304  Biso   1.000  C
  C228     1.0000 0.46800  0.86833  0.65466  Biso   1.000  C
  C229     1.0000 0.46823  0.83558  0.64807  Biso   1.000  C
  C230     1.0000 0.44372  0.82204  0.62987  Biso   1.000  C
  C231     1.0000 0.41898  0.84124  0.61825  Biso   1.000  C
  O45      1.0000 0.70432  0.94024  0.43862  Biso   1.000  O
  O46      1.0000 0.75221  0.90625  0.47276  Biso   1.000  O
  O47      1.0000 0.66465  0.96772  0.46512  Biso   1.000  O
  C232     1.0000 0.78180  0.81190  0.47050  Biso   1.000  C
  C233     1.0000 0.77250  0.84317  0.47130  Biso   1.000  C
  C234     1.0000 0.65035  0.93159  0.42467  Biso   1.000  C
  C235     1.0000 0.65941  0.90649  0.40458  Biso   1.000  C
  C236     1.0000 0.63611  0.88850  0.38879  Biso   1.000  C
  C237     1.0000 0.60376  0.89561  0.39310  Biso   1.000  C
  C238     1.0000 0.59471  0.92070  0.41320  Biso   1.000  C
  C239     1.0000 0.61800  0.93869  0.42899  Biso   1.000  C
  C240     1.0000 0.67510  0.94702  0.44440  Biso   1.000  C
  C241     1.0000 0.79980  0.74340  0.47500  Biso   1.000  C
  C242     1.0000 0.47310  0.63700  0.41580  Biso   1.000  C
  C243     1.0000 0.52290  0.75860  0.34810  Biso   1.000  C
  O48      1.0000 0.47560  0.58020  0.44810  Biso   1.000  O
  C244     1.0000 0.47010  0.66940  0.40190  Biso   1.000  C
  C245     1.0000 0.80410  0.71030  0.47610  Biso   1.000  C
  C246     1.0000 0.52280  0.72710  0.36190  Biso   1.000  C
  C247     1.0000 0.58125  0.87398  0.37517  Biso   1.000  C
  C248     1.0000 0.55674  0.88753  0.35696  Biso   1.000  C
  C249     1.0000 0.53200  0.86833  0.34534  Biso   1.000  C
  C250     1.0000 0.53177  0.83558  0.35193  Biso   1.000  C
  C251     1.0000 0.55628  0.82204  0.37013  Biso   1.000  C
  C252     1.0000 0.58102  0.84124  0.38175  Biso   1.000  C
  O49      1.0000 0.79568  0.93862  0.44024  Biso   1.000  O
  O50      1.0000 0.74779  0.97276  0.40625  Biso   1.000  O
  O51      1.0000 0.83535  0.96512  0.46772  Biso   1.000  O
  C253     1.0000 0.71820  0.97050  0.31190  Biso   1.000  C
  C254     1.0000 0.72750  0.97130  0.34317  Biso   1.000  C
  C255     1.0000 0.84965  0.92467  0.43159  Biso   1.000  C
  C256     1.0000 0.84059  0.90458  0.40649  Biso   1.000  C
  C257     1.0000 0.86389  0.88879  0.38850  Biso   1.000  C
  C258     1.0000 0.89624  0.89310  0.39561  Biso   1.000  C
  C259     1.0000 0.90529  0.91320  0.42070  Biso   1.000  C
  C260     1.0000 0.88200  0.92899  0.43869  Biso   1.000  C
  C261     1.0000 0.82490  0.94440  0.44702  Biso   1.000  C
  C262     1.0000 0.70020  0.97500  0.24340  Biso   1.000  C
  C263     1.0000 0.02690  0.91580  0.13700  Biso   1.000  C
  C264     1.0000 0.97710  0.84810  0.25860  Biso   1.000  C
  O52      1.0000 0.02440  0.94810  0.08020  Biso   1.000  O
  C265     1.0000 0.02990  0.90190  0.16940  Biso   1.000  C
  C266     1.0000 0.69590  0.97610  0.21030  Biso   1.000  C
  C267     1.0000 0.97720  0.86190  0.22710  Biso   1.000  C
  C268     1.0000 0.91875  0.87517  0.37398  Biso   1.000  C
  C269     1.0000 0.94326  0.85696  0.38753  Biso   1.000  C
  C270     1.0000 0.96800  0.84534  0.36833  Biso   1.000  C
  C271     1.0000 0.96823  0.85193  0.33558  Biso   1.000  C
  C272     1.0000 0.94372  0.87013  0.32204  Biso   1.000  C
  C273     1.0000 0.91898  0.88175  0.34124  Biso   1.000  C
  O53      1.0000 0.20432  0.06138  0.44024  Biso   1.000  O
  O54      1.0000 0.25221  0.02724  0.40625  Biso   1.000  O
  O55      1.0000 0.16465  0.03488  0.46772  Biso   1.000  O
  C274     1.0000 0.28180  0.02950  0.31190  Biso   1.000  C
  C275     1.0000 0.27250  0.02870  0.34317  Biso   1.000  C
  C276     1.0000 0.15035  0.07533  0.43159  Biso   1.000  C
  C277     1.0000 0.15941  0.09542  0.40649  Biso   1.000  C
  C278     1.0000 0.13611  0.11121  0.38850  Biso   1.000  C
  C279     1.0000 0.10376  0.10690  0.39561  Biso   1.000  C
  C280     1.0000 0.09471  0.08680  0.42070  Biso   1.000  C
  C281     1.0000 0.11800  0.07101  0.43869  Biso   1.000  C
  C282     1.0000 0.17510  0.05560  0.44702  Biso   1.000  C
  C283     1.0000 0.29980  0.02500  0.24340  Biso   1.000  C
  C284     1.0000 0.97310  0.08420  0.13700  Biso   1.000  C
  C285     1.0000 0.02290  0.15190  0.25860  Biso   1.000  C
  O56      1.0000 0.97560  0.05190  0.08020  Biso   1.000  O
  C286     1.0000 0.97010  0.09810  0.16940  Biso   1.000  C
  C287     1.0000 0.30410  0.02390  0.21030  Biso   1.000  C
  C288     1.0000 0.02280  0.13810  0.22710  Biso   1.000  C
  C289     1.0000 0.08125  0.12483  0.37398  Biso   1.000  C
  C290     1.0000 0.05674  0.14304  0.38753  Biso   1.000  C
  C291     1.0000 0.03200  0.15466  0.36833  Biso   1.000  C
  C292     1.0000 0.03177  0.14807  0.33558  Biso   1.000  C
  C293     1.0000 0.05628  0.12987  0.32204  Biso   1.000  C
  C294     1.0000 0.08102  0.11825  0.34124  Biso   1.000  C
  O57      1.0000 0.79568  0.06138  0.55976  Biso   1.000  O
  O58      1.0000 0.74779  0.02724  0.59375  Biso   1.000  O
  O59      1.0000 0.83535  0.03488  0.53228  Biso   1.000  O
  C295     1.0000 0.71820  0.02950  0.68810  Biso   1.000  C
  C296     1.0000 0.72750  0.02870  0.65683  Biso   1.000  C
  C297     1.0000 0.84965  0.07533  0.56841  Biso   1.000  C
  C298     1.0000 0.84059  0.09542  0.59351  Biso   1.000  C
  C299     1.0000 0.86389  0.11121  0.61150  Biso   1.000  C
  C300     1.0000 0.89624  0.10690  0.60439  Biso   1.000  C
  C301     1.0000 0.90529  0.08680  0.57930  Biso   1.000  C
  C302     1.0000 0.88200  0.07101  0.56131  Biso   1.000  C
  C303     1.0000 0.82490  0.05560  0.55298  Biso   1.000  C
  C304     1.0000 0.70020  0.02500  0.75660  Biso   1.000  C
  C305     1.0000 0.02690  0.08420  0.86300  Biso   1.000  C
  C306     1.0000 0.97710  0.15190  0.74140  Biso   1.000  C
  O60      1.0000 0.02440  0.05190  0.91980  Biso   1.000  O
  C307     1.0000 0.02990  0.09810  0.83060  Biso   1.000  C
  C308     1.0000 0.69590  0.02390  0.78970  Biso   1.000  C
  C309     1.0000 0.97720  0.13810  0.77290  Biso   1.000  C
  C310     1.0000 0.91875  0.12483  0.62602  Biso   1.000  C
  C311     1.0000 0.94326  0.14304  0.61247  Biso   1.000  C
  C312     1.0000 0.96800  0.15466  0.63167  Biso   1.000  C
  C313     1.0000 0.96823  0.14807  0.66442  Biso   1.000  C
  C314     1.0000 0.94372  0.12987  0.67796  Biso   1.000  C
  C315     1.0000 0.91898  0.11825  0.65876  Biso   1.000  C
  O61      1.0000 0.20432  0.93862  0.55976  Biso   1.000  O
  O62      1.0000 0.25221  0.97276  0.59375  Biso   1.000  O
  O63      1.0000 0.16465  0.96512  0.53228  Biso   1.000  O
  C316     1.0000 0.28180  0.97050  0.68810  Biso   1.000  C
  C317     1.0000 0.27250  0.97130  0.65683  Biso   1.000  C
  C318     1.0000 0.15035  0.92467  0.56841  Biso   1.000  C
  C319     1.0000 0.15941  0.90458  0.59351  Biso   1.000  C
  C320     1.0000 0.13611  0.88879  0.61150  Biso   1.000  C
  C321     1.0000 0.10376  0.89310  0.60439  Biso   1.000  C
  C322     1.0000 0.09471  0.91320  0.57930  Biso   1.000  C
  C323     1.0000 0.11800  0.92899  0.56131  Biso   1.000  C
  C324     1.0000 0.17510  0.94440  0.55298  Biso   1.000  C
  C325     1.0000 0.29980  0.97500  0.75660  Biso   1.000  C
  C326     1.0000 0.97310  0.91580  0.86300  Biso   1.000  C
  C327     1.0000 0.02290  0.84810  0.74140  Biso   1.000  C
  O64      1.0000 0.97560  0.94810  0.91980  Biso   1.000  O
  C328     1.0000 0.97010  0.90190  0.83060  Biso   1.000  C
  C329     1.0000 0.30410  0.97610  0.78970  Biso   1.000  C
  C330     1.0000 0.02280  0.86190  0.77290  Biso   1.000  C
  C331     1.0000 0.08125  0.87517  0.62602  Biso   1.000  C
  C332     1.0000 0.05674  0.85696  0.61247  Biso   1.000  C
  C333     1.0000 0.03200  0.84534  0.63167  Biso   1.000  C
  C334     1.0000 0.03177  0.85193  0.66442  Biso   1.000  C
  C335     1.0000 0.05628  0.87013  0.67796  Biso   1.000  C
  C336     1.0000 0.08102  0.88175  0.65876  Biso   1.000  C
  O65      1.0000 0.93862  0.55976  0.20432  Biso   1.000  O
  O66      1.0000 0.97276  0.59375  0.25221  Biso   1.000  O
  O67      1.0000 0.96512  0.53228  0.16465  Biso   1.000  O
  C337     1.0000 0.97050  0.68810  0.28180  Biso   1.000  C
  C338     1.0000 0.97130  0.65683  0.27250  Biso   1.000  C
  C339     1.0000 0.92467  0.56841  0.15035  Biso   1.000  C
  C340     1.0000 0.90458  0.59351  0.15941  Biso   1.000  C
  C341     1.0000 0.88879  0.61150  0.13611  Biso   1.000  C
  C342     1.0000 0.89310  0.60439  0.10376  Biso   1.000  C
  C343     1.0000 0.91320  0.57930  0.09471  Biso   1.000  C
  C344     1.0000 0.92899  0.56131  0.11800  Biso   1.000  C
  C345     1.0000 0.94440  0.55298  0.17510  Biso   1.000  C
  C346     1.0000 0.97500  0.75660  0.29980  Biso   1.000  C
  C347     1.0000 0.91580  0.86300  0.97310  Biso   1.000  C
  C348     1.0000 0.84810  0.74140  0.02290  Biso   1.000  C
  O68      1.0000 0.94810  0.91980  0.97560  Biso   1.000  O
  C349     1.0000 0.90190  0.83060  0.97010  Biso   1.000  C
  C350     1.0000 0.97610  0.78970  0.30410  Biso   1.000  C
  C351     1.0000 0.86190  0.77290  0.02280  Biso   1.000  C
  C352     1.0000 0.87517  0.62602  0.08125  Biso   1.000  C
  C353     1.0000 0.85696  0.61247  0.05674  Biso   1.000  C
  C354     1.0000 0.84534  0.63167  0.03200  Biso   1.000  C
  C355     1.0000 0.85193  0.66442  0.03177  Biso   1.000  C
  C356     1.0000 0.87013  0.67796  0.05628  Biso   1.000  C
  C357     1.0000 0.88175  0.65876  0.08102  Biso   1.000  C
  O69      1.0000 0.06138  0.55976  0.79568  Biso   1.000  O
  O70      1.0000 0.02724  0.59375  0.74779  Biso   1.000  O
  O71      1.0000 0.03488  0.53228  0.83535  Biso   1.000  O
  C358     1.0000 0.02950  0.68810  0.71820  Biso   1.000  C
  C359     1.0000 0.02870  0.65683  0.72750  Biso   1.000  C
  C360     1.0000 0.07533  0.56841  0.84965  Biso   1.000  C
  C361     1.0000 0.09542  0.59351  0.84059  Biso   1.000  C
  C362     1.0000 0.11121  0.61150  0.86389  Biso   1.000  C
  C363     1.0000 0.10690  0.60439  0.89624  Biso   1.000  C
  C364     1.0000 0.08680  0.57930  0.90529  Biso   1.000  C
  C365     1.0000 0.07101  0.56131  0.88200  Biso   1.000  C
  C366     1.0000 0.05560  0.55298  0.82490  Biso   1.000  C
  C367     1.0000 0.02500  0.75660  0.70020  Biso   1.000  C
  C368     1.0000 0.08420  0.86300  0.02690  Biso   1.000  C
  C369     1.0000 0.15190  0.74140  0.97710  Biso   1.000  C
  O72      1.0000 0.05190  0.91980  0.02440  Biso   1.000  O
  C370     1.0000 0.09810  0.83060  0.02990  Biso   1.000  C
  C371     1.0000 0.02390  0.78970  0.69590  Biso   1.000  C
  C372     1.0000 0.13810  0.77290  0.97720  Biso   1.000  C
  C373     1.0000 0.12483  0.62602  0.91875  Biso   1.000  C
  C374     1.0000 0.14304  0.61247  0.94326  Biso   1.000  C
  C375     1.0000 0.15466  0.63167  0.96800  Biso   1.000  C
  C376     1.0000 0.14807  0.66442  0.96823  Biso   1.000  C
  C377     1.0000 0.12987  0.67796  0.94372  Biso   1.000  C
  C378     1.0000 0.11825  0.65876  0.91898  Biso   1.000  C
  O73      1.0000 0.06138  0.44024  0.20432  Biso   1.000  O
  O74      1.0000 0.02724  0.40625  0.25221  Biso   1.000  O
  O75      1.0000 0.03488  0.46772  0.16465  Biso   1.000  O
  C379     1.0000 0.02950  0.31190  0.28180  Biso   1.000  C
  C380     1.0000 0.02870  0.34317  0.27250  Biso   1.000  C
  C381     1.0000 0.07533  0.43159  0.15035  Biso   1.000  C
  C382     1.0000 0.09542  0.40649  0.15941  Biso   1.000  C
  C383     1.0000 0.11121  0.38850  0.13611  Biso   1.000  C
  C384     1.0000 0.10690  0.39561  0.10376  Biso   1.000  C
  C385     1.0000 0.08680  0.42070  0.09471  Biso   1.000  C
  C386     1.0000 0.07101  0.43869  0.11800  Biso   1.000  C
  C387     1.0000 0.05560  0.44702  0.17510  Biso   1.000  C
  C388     1.0000 0.02500  0.24340  0.29980  Biso   1.000  C
  C389     1.0000 0.08420  0.13700  0.97310  Biso   1.000  C
  C390     1.0000 0.15190  0.25860  0.02290  Biso   1.000  C
  O76      1.0000 0.05190  0.08020  0.97560  Biso   1.000  O
  C391     1.0000 0.09810  0.16940  0.97010  Biso   1.000  C
  C392     1.0000 0.02390  0.21030  0.30410  Biso   1.000  C
  C393     1.0000 0.13810  0.22710  0.02280  Biso   1.000  C
  C394     1.0000 0.12483  0.37398  0.08125  Biso   1.000  C
  C395     1.0000 0.14304  0.38753  0.05674  Biso   1.000  C
  C396     1.0000 0.15466  0.36833  0.03200  Biso   1.000  C
  C397     1.0000 0.14807  0.33558  0.03177  Biso   1.000  C
  C398     1.0000 0.12987  0.32204  0.05628  Biso   1.000  C
  C399     1.0000 0.11825  0.34124  0.08102  Biso   1.000  C
  O77      1.0000 0.93862  0.44024  0.79568  Biso   1.000  O
  O78      1.0000 0.97276  0.40625  0.74779  Biso   1.000  O
  O79      1.0000 0.96512  0.46772  0.83535  Biso   1.000  O
  C400     1.0000 0.97050  0.31190  0.71820  Biso   1.000  C
  C401     1.0000 0.97130  0.34317  0.72750  Biso   1.000  C
  C402     1.0000 0.92467  0.43159  0.84965  Biso   1.000  C
  C403     1.0000 0.90458  0.40649  0.84059  Biso   1.000  C
  C404     1.0000 0.88879  0.38850  0.86389  Biso   1.000  C
  C405     1.0000 0.89310  0.39561  0.89624  Biso   1.000  C
  C406     1.0000 0.91320  0.42070  0.90529  Biso   1.000  C
  C407     1.0000 0.92899  0.43869  0.88200  Biso   1.000  C
  C408     1.0000 0.94440  0.44702  0.82490  Biso   1.000  C
  C409     1.0000 0.97500  0.24340  0.70020  Biso   1.000  C
  C410     1.0000 0.91580  0.13700  0.02690  Biso   1.000  C
  C411     1.0000 0.84810  0.25860  0.97710  Biso   1.000  C
  O80      1.0000 0.94810  0.08020  0.02440  Biso   1.000  O
  C412     1.0000 0.90190  0.16940  0.02990  Biso   1.000  C
  C413     1.0000 0.97610  0.21030  0.69590  Biso   1.000  C
  C414     1.0000 0.86190  0.22710  0.97720  Biso   1.000  C
  C415     1.0000 0.87517  0.37398  0.91875  Biso   1.000  C
  C416     1.0000 0.85696  0.38753  0.94326  Biso   1.000  C
  C417     1.0000 0.84534  0.36833  0.96800  Biso   1.000  C
  C418     1.0000 0.85193  0.33558  0.96823  Biso   1.000  C
  C419     1.0000 0.87013  0.32204  0.94372  Biso   1.000  C
  C420     1.0000 0.88175  0.34124  0.91898  Biso   1.000  C
  O81      1.0000 0.55976  0.79568  0.06138  Biso   1.000  O
  O82      1.0000 0.59375  0.74779  0.02724  Biso   1.000  O
  O83      1.0000 0.53228  0.83535  0.03488  Biso   1.000  O
  C421     1.0000 0.68810  0.71820  0.02950  Biso   1.000  C
  C422     1.0000 0.65683  0.72750  0.02870  Biso   1.000  C
  C423     1.0000 0.56841  0.84965  0.07533  Biso   1.000  C
  C424     1.0000 0.59351  0.84059  0.09542  Biso   1.000  C
  C425     1.0000 0.61150  0.86389  0.11121  Biso   1.000  C
  C426     1.0000 0.60439  0.89624  0.10690  Biso   1.000  C
  C427     1.0000 0.57930  0.90529  0.08680  Biso   1.000  C
  C428     1.0000 0.56131  0.88200  0.07101  Biso   1.000  C
  C429     1.0000 0.55298  0.82490  0.05560  Biso   1.000  C
  C430     1.0000 0.75660  0.70020  0.02500  Biso   1.000  C
  C431     1.0000 0.86300  0.02690  0.08420  Biso   1.000  C
  C432     1.0000 0.74140  0.97710  0.15190  Biso   1.000  C
  O84      1.0000 0.91980  0.02440  0.05190  Biso   1.000  O
  C433     1.0000 0.83060  0.02990  0.09810  Biso   1.000  C
  C434     1.0000 0.78970  0.69590  0.02390  Biso   1.000  C
  C435     1.0000 0.77290  0.97720  0.13810  Biso   1.000  C
  C436     1.0000 0.62602  0.91875  0.12483  Biso   1.000  C
  C437     1.0000 0.61247  0.94326  0.14304  Biso   1.000  C
  C438     1.0000 0.63167  0.96800  0.15466  Biso   1.000  C
  C439     1.0000 0.66442  0.96823  0.14807  Biso   1.000  C
  C440     1.0000 0.67796  0.94372  0.12987  Biso   1.000  C
  C441     1.0000 0.65876  0.91898  0.11825  Biso   1.000  C
  O85      1.0000 0.55976  0.20432  0.93862  Biso   1.000  O
  O86      1.0000 0.59375  0.25221  0.97276  Biso   1.000  O
  O87      1.0000 0.53228  0.16465  0.96512  Biso   1.000  O
  C442     1.0000 0.68810  0.28180  0.97050  Biso   1.000  C
  C443     1.0000 0.65683  0.27250  0.97130  Biso   1.000  C
  C444     1.0000 0.56841  0.15035  0.92467  Biso   1.000  C
  C445     1.0000 0.59351  0.15941  0.90458  Biso   1.000  C
  C446     1.0000 0.61150  0.13611  0.88879  Biso   1.000  C
  C447     1.0000 0.60439  0.10376  0.89310  Biso   1.000  C
  C448     1.0000 0.57930  0.09471  0.91320  Biso   1.000  C
  C449     1.0000 0.56131  0.11800  0.92899  Biso   1.000  C
  C450     1.0000 0.55298  0.17510  0.94440  Biso   1.000  C
  C451     1.0000 0.75660  0.29980  0.97500  Biso   1.000  C
  C452     1.0000 0.86300  0.97310  0.91580  Biso   1.000  C
  C453     1.0000 0.74140  0.02290  0.84810  Biso   1.000  C
  O88      1.0000 0.91980  0.97560  0.94810  Biso   1.000  O
  C454     1.0000 0.83060  0.97010  0.90190  Biso   1.000  C
  C455     1.0000 0.78970  0.30410  0.97610  Biso   1.000  C
  C456     1.0000 0.77290  0.02280  0.86190  Biso   1.000  C
  C457     1.0000 0.62602  0.08125  0.87517  Biso   1.000  C
  C458     1.0000 0.61247  0.05674  0.85696  Biso   1.000  C
  C459     1.0000 0.63167  0.03200  0.84534  Biso   1.000  C
  C460     1.0000 0.66442  0.03177  0.85193  Biso   1.000  C
  C461     1.0000 0.67796  0.05628  0.87013  Biso   1.000  C
  C462     1.0000 0.65876  0.08102  0.88175  Biso   1.000  C
  O89      1.0000 0.44024  0.79568  0.93862  Biso   1.000  O
  O90      1.0000 0.40625  0.74779  0.97276  Biso   1.000  O
  O91      1.0000 0.46772  0.83535  0.96512  Biso   1.000  O
  C463     1.0000 0.31190  0.71820  0.97050  Biso   1.000  C
  C464     1.0000 0.34317  0.72750  0.97130  Biso   1.000  C
  C465     1.0000 0.43159  0.84965  0.92467  Biso   1.000  C
  C466     1.0000 0.40649  0.84059  0.90458  Biso   1.000  C
  C467     1.0000 0.38850  0.86389  0.88879  Biso   1.000  C
  C468     1.0000 0.39561  0.89624  0.89310  Biso   1.000  C
  C469     1.0000 0.42070  0.90529  0.91320  Biso   1.000  C
  C470     1.0000 0.43869  0.88200  0.92899  Biso   1.000  C
  C471     1.0000 0.44702  0.82490  0.94440  Biso   1.000  C
  C472     1.0000 0.24340  0.70020  0.97500  Biso   1.000  C
  C473     1.0000 0.13700  0.02690  0.91580  Biso   1.000  C
  C474     1.0000 0.25860  0.97710  0.84810  Biso   1.000  C
  O92      1.0000 0.08020  0.02440  0.94810  Biso   1.000  O
  C475     1.0000 0.16940  0.02990  0.90190  Biso   1.000  C
  C476     1.0000 0.21030  0.69590  0.97610  Biso   1.000  C
  C477     1.0000 0.22710  0.97720  0.86190  Biso   1.000  C
  C478     1.0000 0.37398  0.91875  0.87517  Biso   1.000  C
  C479     1.0000 0.38753  0.94326  0.85696  Biso   1.000  C
  C480     1.0000 0.36833  0.96800  0.84534  Biso   1.000  C
  C481     1.0000 0.33558  0.96823  0.85193  Biso   1.000  C
  C482     1.0000 0.32204  0.94372  0.87013  Biso   1.000  C
  C483     1.0000 0.34124  0.91898  0.88175  Biso   1.000  C
  O93      1.0000 0.44024  0.20432  0.06138  Biso   1.000  O
  O94      1.0000 0.40625  0.25221  0.02724  Biso   1.000  O
  O95      1.0000 0.46772  0.16465  0.03488  Biso   1.000  O
  C484     1.0000 0.31190  0.28180  0.02950  Biso   1.000  C
  C485     1.0000 0.34317  0.27250  0.02870  Biso   1.000  C
  C486     1.0000 0.43159  0.15035  0.07533  Biso   1.000  C
  C487     1.0000 0.40649  0.15941  0.09542  Biso   1.000  C
  C488     1.0000 0.38850  0.13611  0.11121  Biso   1.000  C
  C489     1.0000 0.39561  0.10376  0.10690  Biso   1.000  C
  C490     1.0000 0.42070  0.09471  0.08680  Biso   1.000  C
  C491     1.0000 0.43869  0.11800  0.07101  Biso   1.000  C
  C492     1.0000 0.44702  0.17510  0.05560  Biso   1.000  C
  C493     1.0000 0.24340  0.29980  0.02500  Biso   1.000  C
  C494     1.0000 0.13700  0.97310  0.08420  Biso   1.000  C
  C495     1.0000 0.25860  0.02290  0.15190  Biso   1.000  C
  O96      1.0000 0.08020  0.97560  0.05190  Biso   1.000  O
  C496     1.0000 0.16940  0.97010  0.09810  Biso   1.000  C
  C497     1.0000 0.21030  0.30410  0.02390  Biso   1.000  C
  C498     1.0000 0.22710  0.02280  0.13810  Biso   1.000  C
  C499     1.0000 0.37398  0.08125  0.12483  Biso   1.000  C
  C500     1.0000 0.38753  0.05674  0.14304  Biso   1.000  C
  C501     1.0000 0.36833  0.03200  0.15466  Biso   1.000  C
  C502     1.0000 0.33558  0.03177  0.14807  Biso   1.000  C
  C503     1.0000 0.32204  0.05628  0.12987  Biso   1.000  C
  C504     1.0000 0.34124  0.08102  0.11825  Biso   1.000  C
  O97      1.0000 0.56138  0.70432  0.94024  Biso   1.000  O
  O98      1.0000 0.52724  0.75221  0.90625  Biso   1.000  O
  O99      1.0000 0.53488  0.66465  0.96772  Biso   1.000  O
  C505     1.0000 0.52950  0.78180  0.81190  Biso   1.000  C
  C506     1.0000 0.52870  0.77250  0.84317  Biso   1.000  C
  C507     1.0000 0.57533  0.65035  0.93159  Biso   1.000  C
  C508     1.0000 0.59542  0.65941  0.90649  Biso   1.000  C
  C509     1.0000 0.61121  0.63611  0.88850  Biso   1.000  C
  C510     1.0000 0.60690  0.60376  0.89561  Biso   1.000  C
  C511     1.0000 0.58680  0.59471  0.92070  Biso   1.000  C
  C512     1.0000 0.57101  0.61800  0.93869  Biso   1.000  C
  C513     1.0000 0.55560  0.67510  0.94702  Biso   1.000  C
  C514     1.0000 0.52500  0.79980  0.74340  Biso   1.000  C
  C515     1.0000 0.58420  0.47310  0.63700  Biso   1.000  C
  C516     1.0000 0.65190  0.52290  0.75860  Biso   1.000  C
  O100     1.0000 0.55190  0.47560  0.58020  Biso   1.000  O
  C517     1.0000 0.59810  0.47010  0.66940  Biso   1.000  C
  C518     1.0000 0.52390  0.80410  0.71030  Biso   1.000  C
  C519     1.0000 0.63810  0.52280  0.72710  Biso   1.000  C
  C520     1.0000 0.62483  0.58125  0.87398  Biso   1.000  C
  C521     1.0000 0.64304  0.55674  0.88753  Biso   1.000  C
  C522     1.0000 0.65466  0.53200  0.86833  Biso   1.000  C
  C523     1.0000 0.64807  0.53177  0.83558  Biso   1.000  C
  C524     1.0000 0.62987  0.55628  0.82204  Biso   1.000  C
  C525     1.0000 0.61825  0.58102  0.84124  Biso   1.000  C
  O101     1.0000 0.43862  0.29568  0.94024  Biso   1.000  O
  O102     1.0000 0.47276  0.24779  0.90625  Biso   1.000  O
  O103     1.0000 0.46512  0.33535  0.96772  Biso   1.000  O
  C526     1.0000 0.47050  0.21820  0.81190  Biso   1.000  C
  C527     1.0000 0.47130  0.22750  0.84317  Biso   1.000  C
  C528     1.0000 0.42467  0.34965  0.93159  Biso   1.000  C
  C529     1.0000 0.40458  0.34059  0.90649  Biso   1.000  C
  C530     1.0000 0.38879  0.36389  0.88850  Biso   1.000  C
  C531     1.0000 0.39310  0.39624  0.89561  Biso   1.000  C
  C532     1.0000 0.41320  0.40529  0.92070  Biso   1.000  C
  C533     1.0000 0.42899  0.38200  0.93869  Biso   1.000  C
  C534     1.0000 0.44440  0.32490  0.94702  Biso   1.000  C
  C535     1.0000 0.47500  0.20020  0.74340  Biso   1.000  C
  C536     1.0000 0.41580  0.52690  0.63700  Biso   1.000  C
  C537     1.0000 0.34810  0.47710  0.75860  Biso   1.000  C
  O104     1.0000 0.44810  0.52440  0.58020  Biso   1.000  O
  C538     1.0000 0.40190  0.52990  0.66940  Biso   1.000  C
  C539     1.0000 0.47610  0.19590  0.71030  Biso   1.000  C
  C540     1.0000 0.36190  0.47720  0.72710  Biso   1.000  C
  C541     1.0000 0.37517  0.41875  0.87398  Biso   1.000  C
  C542     1.0000 0.35696  0.44326  0.88753  Biso   1.000  C
  C543     1.0000 0.34534  0.46800  0.86833  Biso   1.000  C
  C544     1.0000 0.35193  0.46823  0.83558  Biso   1.000  C
  C545     1.0000 0.37013  0.44372  0.82204  Biso   1.000  C
  C546     1.0000 0.38175  0.41898  0.84124  Biso   1.000  C
  O105     1.0000 0.43862  0.70432  0.05976  Biso   1.000  O
  O106     1.0000 0.47276  0.75221  0.09375  Biso   1.000  O
  O107     1.0000 0.46512  0.66465  0.03228  Biso   1.000  O
  C547     1.0000 0.47050  0.78180  0.18810  Biso   1.000  C
  C548     1.0000 0.47130  0.77250  0.15683  Biso   1.000  C
  C549     1.0000 0.42467  0.65035  0.06841  Biso   1.000  C
  C550     1.0000 0.40458  0.65941  0.09351  Biso   1.000  C
  C551     1.0000 0.38879  0.63611  0.11150  Biso   1.000  C
  C552     1.0000 0.39310  0.60376  0.10439  Biso   1.000  C
  C553     1.0000 0.41320  0.59471  0.07930  Biso   1.000  C
  C554     1.0000 0.42899  0.61800  0.06131  Biso   1.000  C
  C555     1.0000 0.44440  0.67510  0.05298  Biso   1.000  C
  C556     1.0000 0.47500  0.79980  0.25660  Biso   1.000  C
  C557     1.0000 0.41580  0.47310  0.36300  Biso   1.000  C
  C558     1.0000 0.34810  0.52290  0.24140  Biso   1.000  C
  O108     1.0000 0.44810  0.47560  0.41980  Biso   1.000  O
  C559     1.0000 0.40190  0.47010  0.33060  Biso   1.000  C
  C560     1.0000 0.47610  0.80410  0.28970  Biso   1.000  C
  C561     1.0000 0.36190  0.52280  0.27290  Biso   1.000  C
  C562     1.0000 0.37517  0.58125  0.12602  Biso   1.000  C
  C563     1.0000 0.35696  0.55674  0.11247  Biso   1.000  C
  C564     1.0000 0.34534  0.53200  0.13167  Biso   1.000  C
  C565     1.0000 0.35193  0.53177  0.16442  Biso   1.000  C
  C566     1.0000 0.37013  0.55628  0.17796  Biso   1.000  C
  C567     1.0000 0.38175  0.58102  0.15876  Biso   1.000  C
  O109     1.0000 0.56138  0.29568  0.05976  Biso   1.000  O
  O110     1.0000 0.52724  0.24779  0.09375  Biso   1.000  O
  O111     1.0000 0.53488  0.33535  0.03228  Biso   1.000  O
  C568     1.0000 0.52950  0.21820  0.18810  Biso   1.000  C
  C569     1.0000 0.52870  0.22750  0.15683  Biso   1.000  C
  C570     1.0000 0.57533  0.34965  0.06841  Biso   1.000  C
  C571     1.0000 0.59542  0.34059  0.09351  Biso   1.000  C
  C572     1.0000 0.61121  0.36389  0.11150  Biso   1.000  C
  C573     1.0000 0.60690  0.39624  0.10439  Biso   1.000  C
  C574     1.0000 0.58680  0.40529  0.07930  Biso   1.000  C
  C575     1.0000 0.57101  0.38200  0.06131  Biso   1.000  C
  C576     1.0000 0.55560  0.32490  0.05298  Biso   1.000  C
  C577     1.0000 0.52500  0.20020  0.25660  Biso   1.000  C
  C578     1.0000 0.58420  0.52690  0.36300  Biso   1.000  C
  C579     1.0000 0.65190  0.47710  0.24140  Biso   1.000  C
  O112     1.0000 0.55190  0.52440  0.41980  Biso   1.000  O
  C580     1.0000 0.59810  0.52990  0.33060  Biso   1.000  C
  C581     1.0000 0.52390  0.19590  0.28970  Biso   1.000  C
  C582     1.0000 0.63810  0.47720  0.27290  Biso   1.000  C
  C583     1.0000 0.62483  0.41875  0.12602  Biso   1.000  C
  C584     1.0000 0.64304  0.44326  0.11247  Biso   1.000  C
  C585     1.0000 0.65466  0.46800  0.13167  Biso   1.000  C
  C586     1.0000 0.64807  0.46823  0.16442  Biso   1.000  C
  C587     1.0000 0.62987  0.44372  0.17796  Biso   1.000  C
  C588     1.0000 0.61825  0.41898  0.15876  Biso   1.000  C
  O113     1.0000 0.94024  0.56138  0.70432  Biso   1.000  O
  O114     1.0000 0.90625  0.52724  0.75221  Biso   1.000  O
  O115     1.0000 0.96772  0.53488  0.66465  Biso   1.000  O
  C589     1.0000 0.81190  0.52950  0.78180  Biso   1.000  C
  C590     1.0000 0.84317  0.52870  0.77250  Biso   1.000  C
  C591     1.0000 0.93159  0.57533  0.65035  Biso   1.000  C
  C592     1.0000 0.90649  0.59542  0.65941  Biso   1.000  C
  C593     1.0000 0.88850  0.61121  0.63611  Biso   1.000  C
  C594     1.0000 0.89561  0.60690  0.60376  Biso   1.000  C
  C595     1.0000 0.92070  0.58680  0.59471  Biso   1.000  C
  C596     1.0000 0.93869  0.57101  0.61800  Biso   1.000  C
  C597     1.0000 0.94702  0.55560  0.67510  Biso   1.000  C
  C598     1.0000 0.74340  0.52500  0.79980  Biso   1.000  C
  C599     1.0000 0.63700  0.58420  0.47310  Biso   1.000  C
  C600     1.0000 0.75860  0.65190  0.52290  Biso   1.000  C
  O116     1.0000 0.58020  0.55190  0.47560  Biso   1.000  O
  C601     1.0000 0.66940  0.59810  0.47010  Biso   1.000  C
  C602     1.0000 0.71030  0.52390  0.80410  Biso   1.000  C
  C603     1.0000 0.72710  0.63810  0.52280  Biso   1.000  C
  C604     1.0000 0.87398  0.62483  0.58125  Biso   1.000  C
  C605     1.0000 0.88753  0.64304  0.55674  Biso   1.000  C
  C606     1.0000 0.86833  0.65466  0.53200  Biso   1.000  C
  C607     1.0000 0.83558  0.64807  0.53177  Biso   1.000  C
  C608     1.0000 0.82204  0.62987  0.55628  Biso   1.000  C
  C609     1.0000 0.84124  0.61825  0.58102  Biso   1.000  C
  O117     1.0000 0.94024  0.43862  0.29568  Biso   1.000  O
  O118     1.0000 0.90625  0.47276  0.24779  Biso   1.000  O
  O119     1.0000 0.96772  0.46512  0.33535  Biso   1.000  O
  C610     1.0000 0.81190  0.47050  0.21820  Biso   1.000  C
  C611     1.0000 0.84317  0.47130  0.22750  Biso   1.000  C
  C612     1.0000 0.93159  0.42467  0.34965  Biso   1.000  C
  C613     1.0000 0.90649  0.40458  0.34059  Biso   1.000  C
  C614     1.0000 0.88850  0.38879  0.36389  Biso   1.000  C
  C615     1.0000 0.89561  0.39310  0.39624  Biso   1.000  C
  C616     1.0000 0.92070  0.41320  0.40529  Biso   1.000  C
  C617     1.0000 0.93869  0.42899  0.38200  Biso   1.000  C
  C618     1.0000 0.94702  0.44440  0.32490  Biso   1.000  C
  C619     1.0000 0.74340  0.47500  0.20020  Biso   1.000  C
  C620     1.0000 0.63700  0.41580  0.52690  Biso   1.000  C
  C621     1.0000 0.75860  0.34810  0.47710  Biso   1.000  C
  O120     1.0000 0.58020  0.44810  0.52440  Biso   1.000  O
  C622     1.0000 0.66940  0.40190  0.52990  Biso   1.000  C
  C623     1.0000 0.71030  0.47610  0.19590  Biso   1.000  C
  C624     1.0000 0.72710  0.36190  0.47720  Biso   1.000  C
  C625     1.0000 0.87398  0.37517  0.41875  Biso   1.000  C
  C626     1.0000 0.88753  0.35696  0.44326  Biso   1.000  C
  C627     1.0000 0.86833  0.34534  0.46800  Biso   1.000  C
  C628     1.0000 0.83558  0.35193  0.46823  Biso   1.000  C
  C629     1.0000 0.82204  0.37013  0.44372  Biso   1.000  C
  C630     1.0000 0.84124  0.38175  0.41898  Biso   1.000  C
  O121     1.0000 0.05976  0.43862  0.70432  Biso   1.000  O
  O122     1.0000 0.09375  0.47276  0.75221  Biso   1.000  O
  O123     1.0000 0.03228  0.46512  0.66465  Biso   1.000  O
  C631     1.0000 0.18810  0.47050  0.78180  Biso   1.000  C
  C632     1.0000 0.15683  0.47130  0.77250  Biso   1.000  C
  C633     1.0000 0.06841  0.42467  0.65035  Biso   1.000  C
  C634     1.0000 0.09351  0.40458  0.65941  Biso   1.000  C
  C635     1.0000 0.11150  0.38879  0.63611  Biso   1.000  C
  C636     1.0000 0.10439  0.39310  0.60376  Biso   1.000  C
  C637     1.0000 0.07930  0.41320  0.59471  Biso   1.000  C
  C638     1.0000 0.06131  0.42899  0.61800  Biso   1.000  C
  C639     1.0000 0.05298  0.44440  0.67510  Biso   1.000  C
  C640     1.0000 0.25660  0.47500  0.79980  Biso   1.000  C
  C641     1.0000 0.36300  0.41580  0.47310  Biso   1.000  C
  C642     1.0000 0.24140  0.34810  0.52290  Biso   1.000  C
  O124     1.0000 0.41980  0.44810  0.47560  Biso   1.000  O
  C643     1.0000 0.33060  0.40190  0.47010  Biso   1.000  C
  C644     1.0000 0.28970  0.47610  0.80410  Biso   1.000  C
  C645     1.0000 0.27290  0.36190  0.52280  Biso   1.000  C
  C646     1.0000 0.12602  0.37517  0.58125  Biso   1.000  C
  C647     1.0000 0.11247  0.35696  0.55674  Biso   1.000  C
  C648     1.0000 0.13167  0.34534  0.53200  Biso   1.000  C
  C649     1.0000 0.16442  0.35193  0.53177  Biso   1.000  C
  C650     1.0000 0.17796  0.37013  0.55628  Biso   1.000  C
  C651     1.0000 0.15876  0.38175  0.58102  Biso   1.000  C
  O125     1.0000 0.05976  0.56138  0.29568  Biso   1.000  O
  O126     1.0000 0.09375  0.52724  0.24779  Biso   1.000  O
  O127     1.0000 0.03228  0.53488  0.33535  Biso   1.000  O
  C652     1.0000 0.18810  0.52950  0.21820  Biso   1.000  C
  C653     1.0000 0.15683  0.52870  0.22750  Biso   1.000  C
  C654     1.0000 0.06841  0.57533  0.34965  Biso   1.000  C
  C655     1.0000 0.09351  0.59542  0.34059  Biso   1.000  C
  C656     1.0000 0.11150  0.61121  0.36389  Biso   1.000  C
  C657     1.0000 0.10439  0.60690  0.39624  Biso   1.000  C
  C658     1.0000 0.07930  0.58680  0.40529  Biso   1.000  C
  C659     1.0000 0.06131  0.57101  0.38200  Biso   1.000  C
  C660     1.0000 0.05298  0.55560  0.32490  Biso   1.000  C
  C661     1.0000 0.25660  0.52500  0.20020  Biso   1.000  C
  C662     1.0000 0.36300  0.58420  0.52690  Biso   1.000  C
  C663     1.0000 0.24140  0.65190  0.47710  Biso   1.000  C
  O128     1.0000 0.41980  0.55190  0.52440  Biso   1.000  O
  C664     1.0000 0.33060  0.59810  0.52990  Biso   1.000  C
  C665     1.0000 0.28970  0.52390  0.19590  Biso   1.000  C
  C666     1.0000 0.27290  0.63810  0.47720  Biso   1.000  C
  C667     1.0000 0.12602  0.62483  0.41875  Biso   1.000  C
  C668     1.0000 0.11247  0.64304  0.44326  Biso   1.000  C
  C669     1.0000 0.13167  0.65466  0.46800  Biso   1.000  C
  C670     1.0000 0.16442  0.64807  0.46823  Biso   1.000  C
  C671     1.0000 0.17796  0.62987  0.44372  Biso   1.000  C
  C672     1.0000 0.15876  0.61825  0.41898  Biso   1.000  C
  O129     1.0000 0.70432  0.94024  0.56138  Biso   1.000  O
  O130     1.0000 0.75221  0.90625  0.52724  Biso   1.000  O
  O131     1.0000 0.66465  0.96772  0.53488  Biso   1.000  O
  C673     1.0000 0.78180  0.81190  0.52950  Biso   1.000  C
  C674     1.0000 0.77250  0.84317  0.52870  Biso   1.000  C
  C675     1.0000 0.65035  0.93159  0.57533  Biso   1.000  C
  C676     1.0000 0.65941  0.90649  0.59542  Biso   1.000  C
  C677     1.0000 0.63611  0.88850  0.61121  Biso   1.000  C
  C678     1.0000 0.60376  0.89561  0.60690  Biso   1.000  C
  C679     1.0000 0.59471  0.92070  0.58680  Biso   1.000  C
  C680     1.0000 0.61800  0.93869  0.57101  Biso   1.000  C
  C681     1.0000 0.67510  0.94702  0.55560  Biso   1.000  C
  C682     1.0000 0.79980  0.74340  0.52500  Biso   1.000  C
  C683     1.0000 0.47310  0.63700  0.58420  Biso   1.000  C
  C684     1.0000 0.52290  0.75860  0.65190  Biso   1.000  C
  O132     1.0000 0.47560  0.58020  0.55190  Biso   1.000  O
  C685     1.0000 0.47010  0.66940  0.59810  Biso   1.000  C
  C686     1.0000 0.80410  0.71030  0.52390  Biso   1.000  C
  C687     1.0000 0.52280  0.72710  0.63810  Biso   1.000  C
  C688     1.0000 0.58125  0.87398  0.62483  Biso   1.000  C
  C689     1.0000 0.55674  0.88753  0.64304  Biso   1.000  C
  C690     1.0000 0.53200  0.86833  0.65466  Biso   1.000  C
  C691     1.0000 0.53177  0.83558  0.64807  Biso   1.000  C
  C692     1.0000 0.55628  0.82204  0.62987  Biso   1.000  C
  C693     1.0000 0.58102  0.84124  0.61825  Biso   1.000  C
  O133     1.0000 0.29568  0.94024  0.43862  Biso   1.000  O
  O134     1.0000 0.24779  0.90625  0.47276  Biso   1.000  O
  O135     1.0000 0.33535  0.96772  0.46512  Biso   1.000  O
  C694     1.0000 0.21820  0.81190  0.47050  Biso   1.000  C
  C695     1.0000 0.22750  0.84317  0.47130  Biso   1.000  C
  C696     1.0000 0.34965  0.93159  0.42467  Biso   1.000  C
  C697     1.0000 0.34059  0.90649  0.40458  Biso   1.000  C
  C698     1.0000 0.36389  0.88850  0.38879  Biso   1.000  C
  C699     1.0000 0.39624  0.89561  0.39310  Biso   1.000  C
  C700     1.0000 0.40529  0.92070  0.41320  Biso   1.000  C
  C701     1.0000 0.38200  0.93869  0.42899  Biso   1.000  C
  C702     1.0000 0.32490  0.94702  0.44440  Biso   1.000  C
  C703     1.0000 0.20020  0.74340  0.47500  Biso   1.000  C
  C704     1.0000 0.52690  0.63700  0.41580  Biso   1.000  C
  C705     1.0000 0.47710  0.75860  0.34810  Biso   1.000  C
  O136     1.0000 0.52440  0.58020  0.44810  Biso   1.000  O
  C706     1.0000 0.52990  0.66940  0.40190  Biso   1.000  C
  C707     1.0000 0.19590  0.71030  0.47610  Biso   1.000  C
  C708     1.0000 0.47720  0.72710  0.36190  Biso   1.000  C
  C709     1.0000 0.41875  0.87398  0.37517  Biso   1.000  C
  C710     1.0000 0.44326  0.88753  0.35696  Biso   1.000  C
  C711     1.0000 0.46800  0.86833  0.34534  Biso   1.000  C
  C712     1.0000 0.46823  0.83558  0.35193  Biso   1.000  C
  C713     1.0000 0.44372  0.82204  0.37013  Biso   1.000  C
  C714     1.0000 0.41898  0.84124  0.38175  Biso   1.000  C
  O137     1.0000 0.70432  0.05976  0.43862  Biso   1.000  O
  O138     1.0000 0.75221  0.09375  0.47276  Biso   1.000  O
  O139     1.0000 0.66465  0.03228  0.46512  Biso   1.000  O
  C715     1.0000 0.78180  0.18810  0.47050  Biso   1.000  C
  C716     1.0000 0.77250  0.15683  0.47130  Biso   1.000  C
  C717     1.0000 0.65035  0.06841  0.42467  Biso   1.000  C
  C718     1.0000 0.65941  0.09351  0.40458  Biso   1.000  C
  C719     1.0000 0.63611  0.11150  0.38879  Biso   1.000  C
  C720     1.0000 0.60376  0.10439  0.39310  Biso   1.000  C
  C721     1.0000 0.59471  0.07930  0.41320  Biso   1.000  C
  C722     1.0000 0.61800  0.06131  0.42899  Biso   1.000  C
  C723     1.0000 0.67510  0.05298  0.44440  Biso   1.000  C
  C724     1.0000 0.79980  0.25660  0.47500  Biso   1.000  C
  C725     1.0000 0.47310  0.36300  0.41580  Biso   1.000  C
  C726     1.0000 0.52290  0.24140  0.34810  Biso   1.000  C
  O140     1.0000 0.47560  0.41980  0.44810  Biso   1.000  O
  C727     1.0000 0.47010  0.33060  0.40190  Biso   1.000  C
  C728     1.0000 0.80410  0.28970  0.47610  Biso   1.000  C
  C729     1.0000 0.52280  0.27290  0.36190  Biso   1.000  C
  C730     1.0000 0.58125  0.12602  0.37517  Biso   1.000  C
  C731     1.0000 0.55674  0.11247  0.35696  Biso   1.000  C
  C732     1.0000 0.53200  0.13167  0.34534  Biso   1.000  C
  C733     1.0000 0.53177  0.16442  0.35193  Biso   1.000  C
  C734     1.0000 0.55628  0.17796  0.37013  Biso   1.000  C
  C735     1.0000 0.58102  0.15876  0.38175  Biso   1.000  C
  O141     1.0000 0.29568  0.05976  0.56138  Biso   1.000  O
  O142     1.0000 0.24779  0.09375  0.52724  Biso   1.000  O
  O143     1.0000 0.33535  0.03228  0.53488  Biso   1.000  O
  C736     1.0000 0.21820  0.18810  0.52950  Biso   1.000  C
  C737     1.0000 0.22750  0.15683  0.52870  Biso   1.000  C
  C738     1.0000 0.34965  0.06841  0.57533  Biso   1.000  C
  C739     1.0000 0.34059  0.09351  0.59542  Biso   1.000  C
  C740     1.0000 0.36389  0.11150  0.61121  Biso   1.000  C
  C741     1.0000 0.39624  0.10439  0.60690  Biso   1.000  C
  C742     1.0000 0.40529  0.07930  0.58680  Biso   1.000  C
  C743     1.0000 0.38200  0.06131  0.57101  Biso   1.000  C
  C744     1.0000 0.32490  0.05298  0.55560  Biso   1.000  C
  C745     1.0000 0.20020  0.25660  0.52500  Biso   1.000  C
  C746     1.0000 0.52690  0.36300  0.58420  Biso   1.000  C
  C747     1.0000 0.47710  0.24140  0.65190  Biso   1.000  C
  O144     1.0000 0.52440  0.41980  0.55190  Biso   1.000  O
  C748     1.0000 0.52990  0.33060  0.59810  Biso   1.000  C
  C749     1.0000 0.19590  0.28970  0.52390  Biso   1.000  C
  C750     1.0000 0.47720  0.27290  0.63810  Biso   1.000  C
  C751     1.0000 0.41875  0.12602  0.62483  Biso   1.000  C
  C752     1.0000 0.44326  0.11247  0.64304  Biso   1.000  C
  C753     1.0000 0.46800  0.13167  0.65466  Biso   1.000  C
  C754     1.0000 0.46823  0.16442  0.64807  Biso   1.000  C
  C755     1.0000 0.44372  0.17796  0.62987  Biso   1.000  C
  C756     1.0000 0.41898  0.15876  0.61825  Biso   1.000  C
  O145     1.0000 0.20432  0.06138  0.55976  Biso   1.000  O
  O146     1.0000 0.25221  0.02724  0.59375  Biso   1.000  O
  O147     1.0000 0.16465  0.03488  0.53228  Biso   1.000  O
  C757     1.0000 0.28180  0.02950  0.68810  Biso   1.000  C
  C758     1.0000 0.27250  0.02870  0.65683  Biso   1.000  C
  C759     1.0000 0.15035  0.07533  0.56841  Biso   1.000  C
  C760     1.0000 0.15941  0.09542  0.59351  Biso   1.000  C
  C761     1.0000 0.13611  0.11121  0.61150  Biso   1.000  C
  C762     1.0000 0.10376  0.10690  0.60439  Biso   1.000  C
  C763     1.0000 0.09471  0.08680  0.57930  Biso   1.000  C
  C764     1.0000 0.11800  0.07101  0.56131  Biso   1.000  C
  C765     1.0000 0.17510  0.05560  0.55298  Biso   1.000  C
  C766     1.0000 0.29980  0.02500  0.75660  Biso   1.000  C
  C767     1.0000 0.97310  0.08420  0.86300  Biso   1.000  C
  C768     1.0000 0.02290  0.15190  0.74140  Biso   1.000  C
  O148     1.0000 0.97560  0.05190  0.91980  Biso   1.000  O
  C769     1.0000 0.97010  0.09810  0.83060  Biso   1.000  C
  C770     1.0000 0.30410  0.02390  0.78970  Biso   1.000  C
  C771     1.0000 0.02280  0.13810  0.77290  Biso   1.000  C
  C772     1.0000 0.08125  0.12483  0.62602  Biso   1.000  C
  C773     1.0000 0.05674  0.14304  0.61247  Biso   1.000  C
  C774     1.0000 0.03200  0.15466  0.63167  Biso   1.000  C
  C775     1.0000 0.03177  0.14807  0.66442  Biso   1.000  C
  C776     1.0000 0.05628  0.12987  0.67796  Biso   1.000  C
  C777     1.0000 0.08102  0.11825  0.65876  Biso   1.000  C
  O149     1.0000 0.79568  0.93862  0.55976  Biso   1.000  O
  O150     1.0000 0.74779  0.97276  0.59375  Biso   1.000  O
  O151     1.0000 0.83535  0.96512  0.53228  Biso   1.000  O
  C778     1.0000 0.71820  0.97050  0.68810  Biso   1.000  C
  C779     1.0000 0.72750  0.97130  0.65683  Biso   1.000  C
  C780     1.0000 0.84965  0.92467  0.56841  Biso   1.000  C
  C781     1.0000 0.84059  0.90458  0.59351  Biso   1.000  C
  C782     1.0000 0.86389  0.88879  0.61150  Biso   1.000  C
  C783     1.0000 0.89624  0.89310  0.60439  Biso   1.000  C
  C784     1.0000 0.90529  0.91320  0.57930  Biso   1.000  C
  C785     1.0000 0.88200  0.92899  0.56131  Biso   1.000  C
  C786     1.0000 0.82490  0.94440  0.55298  Biso   1.000  C
  C787     1.0000 0.70020  0.97500  0.75660  Biso   1.000  C
  C788     1.0000 0.02690  0.91580  0.86300  Biso   1.000  C
  C789     1.0000 0.97710  0.84810  0.74140  Biso   1.000  C
  O152     1.0000 0.02440  0.94810  0.91980  Biso   1.000  O
  C790     1.0000 0.02990  0.90190  0.83060  Biso   1.000  C
  C791     1.0000 0.69590  0.97610  0.78970  Biso   1.000  C
  C792     1.0000 0.97720  0.86190  0.77290  Biso   1.000  C
  C793     1.0000 0.91875  0.87517  0.62602  Biso   1.000  C
  C794     1.0000 0.94326  0.85696  0.61247  Biso   1.000  C
  C795     1.0000 0.96800  0.84534  0.63167  Biso   1.000  C
  C796     1.0000 0.96823  0.85193  0.66442  Biso   1.000  C
  C797     1.0000 0.94372  0.87013  0.67796  Biso   1.000  C
  C798     1.0000 0.91898  0.88175  0.65876  Biso   1.000  C
  O153     1.0000 0.20432  0.93862  0.44024  Biso   1.000  O
  O154     1.0000 0.25221  0.97276  0.40625  Biso   1.000  O
  O155     1.0000 0.16465  0.96512  0.46772  Biso   1.000  O
  C799     1.0000 0.28180  0.97050  0.31190  Biso   1.000  C
  C800     1.0000 0.27250  0.97130  0.34317  Biso   1.000  C
  C801     1.0000 0.15035  0.92467  0.43159  Biso   1.000  C
  C802     1.0000 0.15941  0.90458  0.40649  Biso   1.000  C
  C803     1.0000 0.13611  0.88879  0.38850  Biso   1.000  C
  C804     1.0000 0.10376  0.89310  0.39561  Biso   1.000  C
  C805     1.0000 0.09471  0.91320  0.42070  Biso   1.000  C
  C806     1.0000 0.11800  0.92899  0.43869  Biso   1.000  C
  C807     1.0000 0.17510  0.94440  0.44702  Biso   1.000  C
  C808     1.0000 0.29980  0.97500  0.24340  Biso   1.000  C
  C809     1.0000 0.97310  0.91580  0.13700  Biso   1.000  C
  C810     1.0000 0.02290  0.84810  0.25860  Biso   1.000  C
  O156     1.0000 0.97560  0.94810  0.08020  Biso   1.000  O
  C811     1.0000 0.97010  0.90190  0.16940  Biso   1.000  C
  C812     1.0000 0.30410  0.97610  0.21030  Biso   1.000  C
  C813     1.0000 0.02280  0.86190  0.22710  Biso   1.000  C
  C814     1.0000 0.08125  0.87517  0.37398  Biso   1.000  C
  C815     1.0000 0.05674  0.85696  0.38753  Biso   1.000  C
  C816     1.0000 0.03200  0.84534  0.36833  Biso   1.000  C
  C817     1.0000 0.03177  0.85193  0.33558  Biso   1.000  C
  C818     1.0000 0.05628  0.87013  0.32204  Biso   1.000  C
  C819     1.0000 0.08102  0.88175  0.34124  Biso   1.000  C
  O157     1.0000 0.79568  0.06138  0.44024  Biso   1.000  O
  O158     1.0000 0.74779  0.02724  0.40625  Biso   1.000  O
  O159     1.0000 0.83535  0.03488  0.46772  Biso   1.000  O
  C820     1.0000 0.71820  0.02950  0.31190  Biso   1.000  C
  C821     1.0000 0.72750  0.02870  0.34317  Biso   1.000  C
  C822     1.0000 0.84965  0.07533  0.43159  Biso   1.000  C
  C823     1.0000 0.84059  0.09542  0.40649  Biso   1.000  C
  C824     1.0000 0.86389  0.11121  0.38850  Biso   1.000  C
  C825     1.0000 0.89624  0.10690  0.39561  Biso   1.000  C
  C826     1.0000 0.90529  0.08680  0.42070  Biso   1.000  C
  C827     1.0000 0.88200  0.07101  0.43869  Biso   1.000  C
  C828     1.0000 0.82490  0.05560  0.44702  Biso   1.000  C
  C829     1.0000 0.70020  0.02500  0.24340  Biso   1.000  C
  C830     1.0000 0.02690  0.08420  0.13700  Biso   1.000  C
  C831     1.0000 0.97710  0.15190  0.25860  Biso   1.000  C
  O160     1.0000 0.02440  0.05190  0.08020  Biso   1.000  O
  C832     1.0000 0.02990  0.09810  0.16940  Biso   1.000  C
  C833     1.0000 0.69590  0.02390  0.21030  Biso   1.000  C
  C834     1.0000 0.97720  0.13810  0.22710  Biso   1.000  C
  C835     1.0000 0.91875  0.12483  0.37398  Biso   1.000  C
  C836     1.0000 0.94326  0.14304  0.38753  Biso   1.000  C
  C837     1.0000 0.96800  0.15466  0.36833  Biso   1.000  C
  C838     1.0000 0.96823  0.14807  0.33558  Biso   1.000  C
  C839     1.0000 0.94372  0.12987  0.32204  Biso   1.000  C
  C840     1.0000 0.91898  0.11825  0.34124  Biso   1.000  C
  O161     1.0000 0.06138  0.44024  0.79568  Biso   1.000  O
  O162     1.0000 0.02724  0.40625  0.74779  Biso   1.000  O
  O163     1.0000 0.03488  0.46772  0.83535  Biso   1.000  O
  C841     1.0000 0.02950  0.31190  0.71820  Biso   1.000  C
  C842     1.0000 0.02870  0.34317  0.72750  Biso   1.000  C
  C843     1.0000 0.07533  0.43159  0.84965  Biso   1.000  C
  C844     1.0000 0.09542  0.40649  0.84059  Biso   1.000  C
  C845     1.0000 0.11121  0.38850  0.86389  Biso   1.000  C
  C846     1.0000 0.10690  0.39561  0.89624  Biso   1.000  C
  C847     1.0000 0.08680  0.42070  0.90529  Biso   1.000  C
  C848     1.0000 0.07101  0.43869  0.88200  Biso   1.000  C
  C849     1.0000 0.05560  0.44702  0.82490  Biso   1.000  C
  C850     1.0000 0.02500  0.24340  0.70020  Biso   1.000  C
  C851     1.0000 0.08420  0.13700  0.02690  Biso   1.000  C
  C852     1.0000 0.15190  0.25860  0.97710  Biso   1.000  C
  O164     1.0000 0.05190  0.08020  0.02440  Biso   1.000  O
  C853     1.0000 0.09810  0.16940  0.02990  Biso   1.000  C
  C854     1.0000 0.02390  0.21030  0.69590  Biso   1.000  C
  C855     1.0000 0.13810  0.22710  0.97720  Biso   1.000  C
  C856     1.0000 0.12483  0.37398  0.91875  Biso   1.000  C
  C857     1.0000 0.14304  0.38753  0.94326  Biso   1.000  C
  C858     1.0000 0.15466  0.36833  0.96800  Biso   1.000  C
  C859     1.0000 0.14807  0.33558  0.96823  Biso   1.000  C
  C860     1.0000 0.12987  0.32204  0.94372  Biso   1.000  C
  C861     1.0000 0.11825  0.34124  0.91898  Biso   1.000  C
  O165     1.0000 0.93862  0.44024  0.20432  Biso   1.000  O
  O166     1.0000 0.97276  0.40625  0.25221  Biso   1.000  O
  O167     1.0000 0.96512  0.46772  0.16465  Biso   1.000  O
  C862     1.0000 0.97050  0.31190  0.28180  Biso   1.000  C
  C863     1.0000 0.97130  0.34317  0.27250  Biso   1.000  C
  C864     1.0000 0.92467  0.43159  0.15035  Biso   1.000  C
  C865     1.0000 0.90458  0.40649  0.15941  Biso   1.000  C
  C866     1.0000 0.88879  0.38850  0.13611  Biso   1.000  C
  C867     1.0000 0.89310  0.39561  0.10376  Biso   1.000  C
  C868     1.0000 0.91320  0.42070  0.09471  Biso   1.000  C
  C869     1.0000 0.92899  0.43869  0.11800  Biso   1.000  C
  C870     1.0000 0.94440  0.44702  0.17510  Biso   1.000  C
  C871     1.0000 0.97500  0.24340  0.29980  Biso   1.000  C
  C872     1.0000 0.91580  0.13700  0.97310  Biso   1.000  C
  C873     1.0000 0.84810  0.25860  0.02290  Biso   1.000  C
  O168     1.0000 0.94810  0.08020  0.97560  Biso   1.000  O
  C874     1.0000 0.90190  0.16940  0.97010  Biso   1.000  C
  C875     1.0000 0.97610  0.21030  0.30410  Biso   1.000  C
  C876     1.0000 0.86190  0.22710  0.02280  Biso   1.000  C
  C877     1.0000 0.87517  0.37398  0.08125  Biso   1.000  C
  C878     1.0000 0.85696  0.38753  0.05674  Biso   1.000  C
  C879     1.0000 0.84534  0.36833  0.03200  Biso   1.000  C
  C880     1.0000 0.85193  0.33558  0.03177  Biso   1.000  C
  C881     1.0000 0.87013  0.32204  0.05628  Biso   1.000  C
  C882     1.0000 0.88175  0.34124  0.08102  Biso   1.000  C
  O169     1.0000 0.93862  0.55976  0.79568  Biso   1.000  O
  O170     1.0000 0.97276  0.59375  0.74779  Biso   1.000  O
  O171     1.0000 0.96512  0.53228  0.83535  Biso   1.000  O
  C883     1.0000 0.97050  0.68810  0.71820  Biso   1.000  C
  C884     1.0000 0.97130  0.65683  0.72750  Biso   1.000  C
  C885     1.0000 0.92467  0.56841  0.84965  Biso   1.000  C
  C886     1.0000 0.90458  0.59351  0.84059  Biso   1.000  C
  C887     1.0000 0.88879  0.61150  0.86389  Biso   1.000  C
  C888     1.0000 0.89310  0.60439  0.89624  Biso   1.000  C
  C889     1.0000 0.91320  0.57930  0.90529  Biso   1.000  C
  C890     1.0000 0.92899  0.56131  0.88200  Biso   1.000  C
  C891     1.0000 0.94440  0.55298  0.82490  Biso   1.000  C
  C892     1.0000 0.97500  0.75660  0.70020  Biso   1.000  C
  C893     1.0000 0.91580  0.86300  0.02690  Biso   1.000  C
  C894     1.0000 0.84810  0.74140  0.97710  Biso   1.000  C
  O172     1.0000 0.94810  0.91980  0.02440  Biso   1.000  O
  C895     1.0000 0.90190  0.83060  0.02990  Biso   1.000  C
  C896     1.0000 0.97610  0.78970  0.69590  Biso   1.000  C
  C897     1.0000 0.86190  0.77290  0.97720  Biso   1.000  C
  C898     1.0000 0.87517  0.62602  0.91875  Biso   1.000  C
  C899     1.0000 0.85696  0.61247  0.94326  Biso   1.000  C
  C900     1.0000 0.84534  0.63167  0.96800  Biso   1.000  C
  C901     1.0000 0.85193  0.66442  0.96823  Biso   1.000  C
  C902     1.0000 0.87013  0.67796  0.94372  Biso   1.000  C
  C903     1.0000 0.88175  0.65876  0.91898  Biso   1.000  C
  O173     1.0000 0.06138  0.55976  0.20432  Biso   1.000  O
  O174     1.0000 0.02724  0.59375  0.25221  Biso   1.000  O
  O175     1.0000 0.03488  0.53228  0.16465  Biso   1.000  O
  C904     1.0000 0.02950  0.68810  0.28180  Biso   1.000  C
  C905     1.0000 0.02870  0.65683  0.27250  Biso   1.000  C
  C906     1.0000 0.07533  0.56841  0.15035  Biso   1.000  C
  C907     1.0000 0.09542  0.59351  0.15941  Biso   1.000  C
  C908     1.0000 0.11121  0.61150  0.13611  Biso   1.000  C
  C909     1.0000 0.10690  0.60439  0.10376  Biso   1.000  C
  C910     1.0000 0.08680  0.57930  0.09471  Biso   1.000  C
  C911     1.0000 0.07101  0.56131  0.11800  Biso   1.000  C
  C912     1.0000 0.05560  0.55298  0.17510  Biso   1.000  C
  C913     1.0000 0.02500  0.75660  0.29980  Biso   1.000  C
  C914     1.0000 0.08420  0.86300  0.97310  Biso   1.000  C
  C915     1.0000 0.15190  0.74140  0.02290  Biso   1.000  C
  O176     1.0000 0.05190  0.91980  0.97560  Biso   1.000  O
  C916     1.0000 0.09810  0.83060  0.97010  Biso   1.000  C
  C917     1.0000 0.02390  0.78970  0.30410  Biso   1.000  C
  C918     1.0000 0.13810  0.77290  0.02280  Biso   1.000  C
  C919     1.0000 0.12483  0.62602  0.08125  Biso   1.000  C
  C920     1.0000 0.14304  0.61247  0.05674  Biso   1.000  C
  C921     1.0000 0.15466  0.63167  0.03200  Biso   1.000  C
  C922     1.0000 0.14807  0.66442  0.03177  Biso   1.000  C
  C923     1.0000 0.12987  0.67796  0.05628  Biso   1.000  C
  C924     1.0000 0.11825  0.65876  0.08102  Biso   1.000  C
  O177     1.0000 0.44024  0.20432  0.93862  Biso   1.000  O
  O178     1.0000 0.40625  0.25221  0.97276  Biso   1.000  O
  O179     1.0000 0.46772  0.16465  0.96512  Biso   1.000  O
  C925     1.0000 0.31190  0.28180  0.97050  Biso   1.000  C
  C926     1.0000 0.34317  0.27250  0.97130  Biso   1.000  C
  C927     1.0000 0.43159  0.15035  0.92467  Biso   1.000  C
  C928     1.0000 0.40649  0.15941  0.90458  Biso   1.000  C
  C929     1.0000 0.38850  0.13611  0.88879  Biso   1.000  C
  C930     1.0000 0.39561  0.10376  0.89310  Biso   1.000  C
  C931     1.0000 0.42070  0.09471  0.91320  Biso   1.000  C
  C932     1.0000 0.43869  0.11800  0.92899  Biso   1.000  C
  C933     1.0000 0.44702  0.17510  0.94440  Biso   1.000  C
  C934     1.0000 0.24340  0.29980  0.97500  Biso   1.000  C
  C935     1.0000 0.13700  0.97310  0.91580  Biso   1.000  C
  C936     1.0000 0.25860  0.02290  0.84810  Biso   1.000  C
  O180     1.0000 0.08020  0.97560  0.94810  Biso   1.000  O
  C937     1.0000 0.16940  0.97010  0.90190  Biso   1.000  C
  C938     1.0000 0.21030  0.30410  0.97610  Biso   1.000  C
  C939     1.0000 0.22710  0.02280  0.86190  Biso   1.000  C
  C940     1.0000 0.37398  0.08125  0.87517  Biso   1.000  C
  C941     1.0000 0.38753  0.05674  0.85696  Biso   1.000  C
  C942     1.0000 0.36833  0.03200  0.84534  Biso   1.000  C
  C943     1.0000 0.33558  0.03177  0.85193  Biso   1.000  C
  C944     1.0000 0.32204  0.05628  0.87013  Biso   1.000  C
  C945     1.0000 0.34124  0.08102  0.88175  Biso   1.000  C
  O181     1.0000 0.44024  0.79568  0.06138  Biso   1.000  O
  O182     1.0000 0.40625  0.74779  0.02724  Biso   1.000  O
  O183     1.0000 0.46772  0.83535  0.03488  Biso   1.000  O
  C946     1.0000 0.31190  0.71820  0.02950  Biso   1.000  C
  C947     1.0000 0.34317  0.72750  0.02870  Biso   1.000  C
  C948     1.0000 0.43159  0.84965  0.07533  Biso   1.000  C
  C949     1.0000 0.40649  0.84059  0.09542  Biso   1.000  C
  C950     1.0000 0.38850  0.86389  0.11121  Biso   1.000  C
  C951     1.0000 0.39561  0.89624  0.10690  Biso   1.000  C
  C952     1.0000 0.42070  0.90529  0.08680  Biso   1.000  C
  C953     1.0000 0.43869  0.88200  0.07101  Biso   1.000  C
  C954     1.0000 0.44702  0.82490  0.05560  Biso   1.000  C
  C955     1.0000 0.24340  0.70020  0.02500  Biso   1.000  C
  C956     1.0000 0.13700  0.02690  0.08420  Biso   1.000  C
  C957     1.0000 0.25860  0.97710  0.15190  Biso   1.000  C
  O184     1.0000 0.08020  0.02440  0.05190  Biso   1.000  O
  C958     1.0000 0.16940  0.02990  0.09810  Biso   1.000  C
  C959     1.0000 0.21030  0.69590  0.02390  Biso   1.000  C
  C960     1.0000 0.22710  0.97720  0.13810  Biso   1.000  C
  C961     1.0000 0.37398  0.91875  0.12483  Biso   1.000  C
  C962     1.0000 0.38753  0.94326  0.14304  Biso   1.000  C
  C963     1.0000 0.36833  0.96800  0.15466  Biso   1.000  C
  C964     1.0000 0.33558  0.96823  0.14807  Biso   1.000  C
  C965     1.0000 0.32204  0.94372  0.12987  Biso   1.000  C
  C966     1.0000 0.34124  0.91898  0.11825  Biso   1.000  C
  O185     1.0000 0.55976  0.20432  0.06138  Biso   1.000  O
  O186     1.0000 0.59375  0.25221  0.02724  Biso   1.000  O
  O187     1.0000 0.53228  0.16465  0.03488  Biso   1.000  O
  C967     1.0000 0.68810  0.28180  0.02950  Biso   1.000  C
  C968     1.0000 0.65683  0.27250  0.02870  Biso   1.000  C
  C969     1.0000 0.56841  0.15035  0.07533  Biso   1.000  C
  C970     1.0000 0.59351  0.15941  0.09542  Biso   1.000  C
  C971     1.0000 0.61150  0.13611  0.11121  Biso   1.000  C
  C972     1.0000 0.60439  0.10376  0.10690  Biso   1.000  C
  C973     1.0000 0.57930  0.09471  0.08680  Biso   1.000  C
  C974     1.0000 0.56131  0.11800  0.07101  Biso   1.000  C
  C975     1.0000 0.55298  0.17510  0.05560  Biso   1.000  C
  C976     1.0000 0.75660  0.29980  0.02500  Biso   1.000  C
  C977     1.0000 0.86300  0.97310  0.08420  Biso   1.000  C
  C978     1.0000 0.74140  0.02290  0.15190  Biso   1.000  C
  O188     1.0000 0.91980  0.97560  0.05190  Biso   1.000  O
  C979     1.0000 0.83060  0.97010  0.09810  Biso   1.000  C
  C980     1.0000 0.78970  0.30410  0.02390  Biso   1.000  C
  C981     1.0000 0.77290  0.02280  0.13810  Biso   1.000  C
  C982     1.0000 0.62602  0.08125  0.12483  Biso   1.000  C
  C983     1.0000 0.61247  0.05674  0.14304  Biso   1.000  C
  C984     1.0000 0.63167  0.03200  0.15466  Biso   1.000  C
  C985     1.0000 0.66442  0.03177  0.14807  Biso   1.000  C
  C986     1.0000 0.67796  0.05628  0.12987  Biso   1.000  C
  C987     1.0000 0.65876  0.08102  0.11825  Biso   1.000  C
  O189     1.0000 0.55976  0.79568  0.93862  Biso   1.000  O
  O190     1.0000 0.59375  0.74779  0.97276  Biso   1.000  O
  O191     1.0000 0.53228  0.83535  0.96512  Biso   1.000  O
  C988     1.0000 0.68810  0.71820  0.97050  Biso   1.000  C
  C989     1.0000 0.65683  0.72750  0.97130  Biso   1.000  C
  C990     1.0000 0.56841  0.84965  0.92467  Biso   1.000  C
  C991     1.0000 0.59351  0.84059  0.90458  Biso   1.000  C
  C992     1.0000 0.61150  0.86389  0.88879  Biso   1.000  C
  C993     1.0000 0.60439  0.89624  0.89310  Biso   1.000  C
  C994     1.0000 0.57930  0.90529  0.91320  Biso   1.000  C
  C995     1.0000 0.56131  0.88200  0.92899  Biso   1.000  C
  C996     1.0000 0.55298  0.82490  0.94440  Biso   1.000  C
  C997     1.0000 0.75660  0.70020  0.97500  Biso   1.000  C
  C998     1.0000 0.86300  0.02690  0.91580  Biso   1.000  C
  C999     1.0000 0.74140  0.97710  0.84810  Biso   1.000  C
  O192     1.0000 0.91980  0.02440  0.94810  Biso   1.000  O
  C1000    1.0000 0.83060  0.02990  0.90190  Biso   1.000  C
  C1001    1.0000 0.78970  0.69590  0.97610  Biso   1.000  C
  C1002    1.0000 0.77290  0.97720  0.86190  Biso   1.000  C
  C1003    1.0000 0.62602  0.91875  0.87517  Biso   1.000  C
  C1004    1.0000 0.61247  0.94326  0.85696  Biso   1.000  C
  C1005    1.0000 0.63167  0.96800  0.84534  Biso   1.000  C
  C1006    1.0000 0.66442  0.96823  0.85193  Biso   1.000  C
  C1007    1.0000 0.67796  0.94372  0.87013  Biso   1.000  C
  C1008    1.0000 0.65876  0.91898  0.88175  Biso   1.000  C
  Zr1      1.0000 0.45797  0.25000  0.04203  Biso   1.000  Zr
  Zr2      1.0000 0.54203  0.75000  0.04203  Biso   1.000  Zr
  Zr3      1.0000 0.54203  0.25000  0.95797  Biso   1.000  Zr
  Zr4      1.0000 0.45797  0.75000  0.95797  Biso   1.000  Zr
  Zr5      1.0000 0.04203  0.45797  0.25000  Biso   1.000  Zr
  Zr6      1.0000 0.04203  0.54203  0.75000  Biso   1.000  Zr
  Zr7      1.0000 0.95797  0.54203  0.25000  Biso   1.000  Zr
  Zr8      1.0000 0.95797  0.45797  0.75000  Biso   1.000  Zr
  Zr9      1.0000 0.25000  0.04203  0.45797  Biso   1.000  Zr
  Zr10     1.0000 0.75000  0.04203  0.54203  Biso   1.000  Zr
  Zr11     1.0000 0.25000  0.95797  0.54203  Biso   1.000  Zr
  Zr12     1.0000 0.75000  0.95797  0.45797  Biso   1.000  Zr
  Zr13     1.0000 0.54203  0.75000  0.95797  Biso   1.000  Zr
  Zr14     1.0000 0.45797  0.25000  0.95797  Biso   1.000  Zr
  Zr15     1.0000 0.45797  0.75000  0.04203  Biso   1.000  Zr
  Zr16     1.0000 0.54203  0.25000  0.04203  Biso   1.000  Zr
  Zr17     1.0000 0.95797  0.54203  0.75000  Biso   1.000  Zr
  Zr18     1.0000 0.95797  0.45797  0.25000  Biso   1.000  Zr
  Zr19     1.0000 0.04203  0.45797  0.75000  Biso   1.000  Zr
  Zr20     1.0000 0.04203  0.54203  0.25000  Biso   1.000  Zr
  Zr21     1.0000 0.75000  0.95797  0.54203  Biso   1.000  Zr
  Zr22     1.0000 0.25000  0.95797  0.45797  Biso   1.000  Zr
  Zr23     1.0000 0.75000  0.04203  0.45797  Biso   1.000  Zr
  Zr24     1.0000 0.25000  0.04203  0.54203  Biso   1.000  Zr
  Zr25     1.0000 0.50000  0.30968  0.00000  Biso   1.000  Zr
  Zr26     1.0000 0.50000  0.69032  0.00000  Biso   1.000  Zr
  Zr27     1.0000 0.00000  0.50000  0.30968  Biso   1.000  Zr
  Zr28     1.0000 0.00000  0.50000  0.69032  Biso   1.000  Zr
  Zr29     1.0000 0.30968  0.00000  0.50000  Biso   1.000  Zr
  Zr30     1.0000 0.69032  0.00000  0.50000  Biso   1.000  Zr
  Zr31     1.0000 0.80968  0.00000  0.50000  Biso   1.000  Zr
  Zr32     1.0000 0.19032  0.00000  0.50000  Biso   1.000  Zr
  Zr33     1.0000 0.00000  0.50000  0.19032  Biso   1.000  Zr
  Zr34     1.0000 0.00000  0.50000  0.80968  Biso   1.000  Zr
  Zr35     1.0000 0.50000  0.80968  0.00000  Biso   1.000  Zr
  Zr36     1.0000 0.50000  0.19032  0.00000  Biso   1.000  Zr
  O193     1.0000 0.50000  0.28309  0.95308  Biso   1.000  O
  C1009    1.0000 0.50000  0.23200  0.14040  Biso   1.000  C
  C1010    1.0000 0.50000  0.20490  0.23890  Biso   1.000  C
  C1011    1.0000 0.50000  0.24400  0.10660  Biso   1.000  C
  C1012    1.0000 0.50000  0.21360  0.20520  Biso   1.000  C
  C1013    1.0000 0.50000  0.18980  0.30560  Biso   1.000  C
  O194     1.0000 0.50000  0.71691  0.95308  Biso   1.000  O
  C1014    1.0000 0.50000  0.76800  0.14040  Biso   1.000  C
  C1015    1.0000 0.50000  0.79510  0.23890  Biso   1.000  C
  C1016    1.0000 0.50000  0.75600  0.10660  Biso   1.000  C
  C1017    1.0000 0.50000  0.78640  0.20520  Biso   1.000  C
  C1018    1.0000 0.50000  0.81020  0.30560  Biso   1.000  C
  O195     1.0000 0.50000  0.28309  0.04692  Biso   1.000  O
  C1019    1.0000 0.50000  0.23200  0.85960  Biso   1.000  C
  C1020    1.0000 0.50000  0.20490  0.76110  Biso   1.000  C
  C1021    1.0000 0.50000  0.24400  0.89340  Biso   1.000  C
  C1022    1.0000 0.50000  0.21360  0.79480  Biso   1.000  C
  C1023    1.0000 0.50000  0.18980  0.69440  Biso   1.000  C
  O196     1.0000 0.50000  0.71691  0.04692  Biso   1.000  O
  C1024    1.0000 0.50000  0.76800  0.85960  Biso   1.000  C
  C1025    1.0000 0.50000  0.79510  0.76110  Biso   1.000  C
  C1026    1.0000 0.50000  0.75600  0.89340  Biso   1.000  C
  C1027    1.0000 0.50000  0.78640  0.79480  Biso   1.000  C
  C1028    1.0000 0.50000  0.81020  0.69440  Biso   1.000  C
  O197     1.0000 0.95308  0.50000  0.28309  Biso   1.000  O
  C1029    1.0000 0.14040  0.50000  0.23200  Biso   1.000  C
  C1030    1.0000 0.23890  0.50000  0.20490  Biso   1.000  C
  C1031    1.0000 0.10660  0.50000  0.24400  Biso   1.000  C
  C1032    1.0000 0.20520  0.50000  0.21360  Biso   1.000  C
  C1033    1.0000 0.30560  0.50000  0.18980  Biso   1.000  C
  O198     1.0000 0.95308  0.50000  0.71691  Biso   1.000  O
  C1034    1.0000 0.14040  0.50000  0.76800  Biso   1.000  C
  C1035    1.0000 0.23890  0.50000  0.79510  Biso   1.000  C
  C1036    1.0000 0.10660  0.50000  0.75600  Biso   1.000  C
  C1037    1.0000 0.20520  0.50000  0.78640  Biso   1.000  C
  C1038    1.0000 0.30560  0.50000  0.81020  Biso   1.000  C
  O199     1.0000 0.04692  0.50000  0.28309  Biso   1.000  O
  C1039    1.0000 0.85960  0.50000  0.23200  Biso   1.000  C
  C1040    1.0000 0.76110  0.50000  0.20490  Biso   1.000  C
  C1041    1.0000 0.89340  0.50000  0.24400  Biso   1.000  C
  C1042    1.0000 0.79480  0.50000  0.21360  Biso   1.000  C
  C1043    1.0000 0.69440  0.50000  0.18980  Biso   1.000  C
  O200     1.0000 0.04692  0.50000  0.71691  Biso   1.000  O
  C1044    1.0000 0.85960  0.50000  0.76800  Biso   1.000  C
  C1045    1.0000 0.76110  0.50000  0.79510  Biso   1.000  C
  C1046    1.0000 0.89340  0.50000  0.75600  Biso   1.000  C
  C1047    1.0000 0.79480  0.50000  0.78640  Biso   1.000  C
  C1048    1.0000 0.69440  0.50000  0.81020  Biso   1.000  C
  O201     1.0000 0.28309  0.95308  0.50000  Biso   1.000  O
  C1049    1.0000 0.23200  0.14040  0.50000  Biso   1.000  C
  C1050    1.0000 0.20490  0.23890  0.50000  Biso   1.000  C
  C1051    1.0000 0.24400  0.10660  0.50000  Biso   1.000  C
  C1052    1.0000 0.21360  0.20520  0.50000  Biso   1.000  C
  C1053    1.0000 0.18980  0.30560  0.50000  Biso   1.000  C
  O202     1.0000 0.71691  0.95308  0.50000  Biso   1.000  O
  C1054    1.0000 0.76800  0.14040  0.50000  Biso   1.000  C
  C1055    1.0000 0.79510  0.23890  0.50000  Biso   1.000  C
  C1056    1.0000 0.75600  0.10660  0.50000  Biso   1.000  C
  C1057    1.0000 0.78640  0.20520  0.50000  Biso   1.000  C
  C1058    1.0000 0.81020  0.30560  0.50000  Biso   1.000  C
  O203     1.0000 0.28309  0.04692  0.50000  Biso   1.000  O
  C1059    1.0000 0.23200  0.85960  0.50000  Biso   1.000  C
  C1060    1.0000 0.20490  0.76110  0.50000  Biso   1.000  C
  C1061    1.0000 0.24400  0.89340  0.50000  Biso   1.000  C
  C1062    1.0000 0.21360  0.79480  0.50000  Biso   1.000  C
  C1063    1.0000 0.18980  0.69440  0.50000  Biso   1.000  C
  O204     1.0000 0.71691  0.04692  0.50000  Biso   1.000  O
  C1064    1.0000 0.76800  0.85960  0.50000  Biso   1.000  C
  C1065    1.0000 0.79510  0.76110  0.50000  Biso   1.000  C
  C1066    1.0000 0.75600  0.89340  0.50000  Biso   1.000  C
  C1067    1.0000 0.78640  0.79480  0.50000  Biso   1.000  C
  C1068    1.0000 0.81020  0.69440  0.50000  Biso   1.000  C
  O205     1.0000 0.78309  0.00000  0.54692  Biso   1.000  O
  C1069    1.0000 0.73200  0.00000  0.35960  Biso   1.000  C
  C1070    1.0000 0.70490  0.00000  0.26110  Biso   1.000  C
  C1071    1.0000 0.74400  0.00000  0.39340  Biso   1.000  C
  C1072    1.0000 0.71360  0.00000  0.29480  Biso   1.000  C
  C1073    1.0000 0.68980  0.00000  0.19440  Biso   1.000  C
  O206     1.0000 0.21691  0.00000  0.54692  Biso   1.000  O
  C1074    1.0000 0.26800  0.00000  0.35960  Biso   1.000  C
  C1075    1.0000 0.29510  0.00000  0.26110  Biso   1.000  C
  C1076    1.0000 0.25600  0.00000  0.39340  Biso   1.000  C
  C1077    1.0000 0.28640  0.00000  0.29480  Biso   1.000  C
  C1078    1.0000 0.31020  0.00000  0.19440  Biso   1.000  C
  O207     1.0000 0.78309  0.00000  0.45308  Biso   1.000  O
  C1079    1.0000 0.73200  0.00000  0.64040  Biso   1.000  C
  C1080    1.0000 0.70490  0.00000  0.73890  Biso   1.000  C
  C1081    1.0000 0.74400  0.00000  0.60660  Biso   1.000  C
  C1082    1.0000 0.71360  0.00000  0.70520  Biso   1.000  C
  C1083    1.0000 0.68980  0.00000  0.80560  Biso   1.000  C
  O208     1.0000 0.21691  0.00000  0.45308  Biso   1.000  O
  C1084    1.0000 0.26800  0.00000  0.64040  Biso   1.000  C
  C1085    1.0000 0.29510  0.00000  0.73890  Biso   1.000  C
  C1086    1.0000 0.25600  0.00000  0.60660  Biso   1.000  C
  C1087    1.0000 0.28640  0.00000  0.70520  Biso   1.000  C
  C1088    1.0000 0.31020  0.00000  0.80560  Biso   1.000  C
  O209     1.0000 0.00000  0.45308  0.21691  Biso   1.000  O
  C1089    1.0000 0.00000  0.64040  0.26800  Biso   1.000  C
  C1090    1.0000 0.00000  0.73890  0.29510  Biso   1.000  C
  C1091    1.0000 0.00000  0.60660  0.25600  Biso   1.000  C
  C1092    1.0000 0.00000  0.70520  0.28640  Biso   1.000  C
  C1093    1.0000 0.00000  0.80560  0.31020  Biso   1.000  C
  O210     1.0000 0.00000  0.45308  0.78309  Biso   1.000  O
  C1094    1.0000 0.00000  0.64040  0.73200  Biso   1.000  C
  C1095    1.0000 0.00000  0.73890  0.70490  Biso   1.000  C
  C1096    1.0000 0.00000  0.60660  0.74400  Biso   1.000  C
  C1097    1.0000 0.00000  0.70520  0.71360  Biso   1.000  C
  C1098    1.0000 0.00000  0.80560  0.68980  Biso   1.000  C
  O211     1.0000 0.00000  0.54692  0.21691  Biso   1.000  O
  C1099    1.0000 0.00000  0.35960  0.26800  Biso   1.000  C
  C1100    1.0000 0.00000  0.26110  0.29510  Biso   1.000  C
  C1101    1.0000 0.00000  0.39340  0.25600  Biso   1.000  C
  C1102    1.0000 0.00000  0.29480  0.28640  Biso   1.000  C
  C1103    1.0000 0.00000  0.19440  0.31020  Biso   1.000  C
  O212     1.0000 0.00000  0.54692  0.78309  Biso   1.000  O
  C1104    1.0000 0.00000  0.35960  0.73200  Biso   1.000  C
  C1105    1.0000 0.00000  0.26110  0.70490  Biso   1.000  C
  C1106    1.0000 0.00000  0.39340  0.74400  Biso   1.000  C
  C1107    1.0000 0.00000  0.29480  0.71360  Biso   1.000  C
  C1108    1.0000 0.00000  0.19440  0.68980  Biso   1.000  C
  O213     1.0000 0.45308  0.78309  0.00000  Biso   1.000  O
  C1109    1.0000 0.64040  0.73200  0.00000  Biso   1.000  C
  C1110    1.0000 0.73890  0.70490  0.00000  Biso   1.000  C
  C1111    1.0000 0.60660  0.74400  0.00000  Biso   1.000  C
  C1112    1.0000 0.70520  0.71360  0.00000  Biso   1.000  C
  C1113    1.0000 0.80560  0.68980  0.00000  Biso   1.000  C
  O214     1.0000 0.45308  0.21691  0.00000  Biso   1.000  O
  C1114    1.0000 0.64040  0.26800  0.00000  Biso   1.000  C
  C1115    1.0000 0.73890  0.29510  0.00000  Biso   1.000  C
  C1116    1.0000 0.60660  0.25600  0.00000  Biso   1.000  C
  C1117    1.0000 0.70520  0.28640  0.00000  Biso   1.000  C
  C1118    1.0000 0.80560  0.31020  0.00000  Biso   1.000  C
  O215     1.0000 0.54692  0.78309  0.00000  Biso   1.000  O
  C1119    1.0000 0.35960  0.73200  0.00000  Biso   1.000  C
  C1120    1.0000 0.26110  0.70490  0.00000  Biso   1.000  C
  C1121    1.0000 0.39340  0.74400  0.00000  Biso   1.000  C
  C1122    1.0000 0.29480  0.71360  0.00000  Biso   1.000  C
  C1123    1.0000 0.19440  0.68980  0.00000  Biso   1.000  C
  O216     1.0000 0.54692  0.21691  0.00000  Biso   1.000  O
  C1124    1.0000 0.35960  0.26800  0.00000  Biso   1.000  C
  C1125    1.0000 0.26110  0.29510  0.00000  Biso   1.000  C
  C1126    1.0000 0.39340  0.25600  0.00000  Biso   1.000  C
  C1127    1.0000 0.29480  0.28640  0.00000  Biso   1.000  C
  C1128    1.0000 0.19440  0.31020  0.00000  Biso   1.000  C
  O217     1.0000 0.46414  0.27510  0.00000  Biso   1.000  O
  O218     1.0000 0.53586  0.72490  0.00000  Biso   1.000  O
  O219     1.0000 0.53586  0.27510  0.00000  Biso   1.000  O
  O220     1.0000 0.46414  0.72490  0.00000  Biso   1.000  O
  O221     1.0000 0.00000  0.46414  0.27510  Biso   1.000  O
  O222     1.0000 0.00000  0.53586  0.72490  Biso   1.000  O
  O223     1.0000 0.00000  0.53586  0.27510  Biso   1.000  O
  O224     1.0000 0.00000  0.46414  0.72490  Biso   1.000  O
  O225     1.0000 0.27510  0.00000  0.46414  Biso   1.000  O
  O226     1.0000 0.72490  0.00000  0.53586  Biso   1.000  O
  O227     1.0000 0.27510  0.00000  0.53586  Biso   1.000  O
  O228     1.0000 0.72490  0.00000  0.46414  Biso   1.000  O
  O229     1.0000 0.77510  0.96414  0.50000  Biso   1.000  O
  O230     1.0000 0.22490  0.03586  0.50000  Biso   1.000  O
  O231     1.0000 0.77510  0.03586  0.50000  Biso   1.000  O
  O232     1.0000 0.22490  0.96414  0.50000  Biso   1.000  O
  O233     1.0000 0.96414  0.50000  0.22490  Biso   1.000  O
  O234     1.0000 0.03586  0.50000  0.77510  Biso   1.000  O
  O235     1.0000 0.03586  0.50000  0.22490  Biso   1.000  O
  O236     1.0000 0.96414  0.50000  0.77510  Biso   1.000  O
  O237     1.0000 0.50000  0.77510  0.03586  Biso   1.000  O
  O238     1.0000 0.50000  0.22490  0.96414  Biso   1.000  O
  O239     1.0000 0.50000  0.77510  0.96414  Biso   1.000  O
  O240     1.0000 0.50000  0.22490  0.03586  Biso   1.000  O
  C1129    1.0000 0.34190  0.50000  0.18460  Biso   1.000  C
  C1130    1.0000 0.35710  0.50000  0.21870  Biso   1.000  C
  C1131    1.0000 0.39660  0.50000  0.31400  Biso   1.000  C
  C1132    1.0000 0.38280  0.50000  0.28080  Biso   1.000  C
  C1133    1.0000 0.42310  0.50000  0.37610  Biso   1.000  C
  C1134    1.0000 0.43710  0.50000  0.41130  Biso   1.000  C
  O241     1.0000 0.45001  0.50000  0.46812  Biso   1.000  O
  C1135    1.0000 0.65810  0.50000  0.18460  Biso   1.000  C
  C1136    1.0000 0.64290  0.50000  0.21870  Biso   1.000  C
  C1137    1.0000 0.60340  0.50000  0.31400  Biso   1.000  C
  C1138    1.0000 0.61720  0.50000  0.28080  Biso   1.000  C
  C1139    1.0000 0.57690  0.50000  0.37610  Biso   1.000  C
  C1140    1.0000 0.56290  0.50000  0.41130  Biso   1.000  C
  O242     1.0000 0.54999  0.50000  0.46812  Biso   1.000  O
  C1141    1.0000 0.65810  0.50000  0.81540  Biso   1.000  C
  C1142    1.0000 0.64290  0.50000  0.78130  Biso   1.000  C
  C1143    1.0000 0.60340  0.50000  0.68600  Biso   1.000  C
  C1144    1.0000 0.61720  0.50000  0.71920  Biso   1.000  C
  C1145    1.0000 0.57690  0.50000  0.62390  Biso   1.000  C
  C1146    1.0000 0.56290  0.50000  0.58870  Biso   1.000  C
  O243     1.0000 0.54999  0.50000  0.53188  Biso   1.000  O
  C1147    1.0000 0.34190  0.50000  0.81540  Biso   1.000  C
  C1148    1.0000 0.35710  0.50000  0.78130  Biso   1.000  C
  C1149    1.0000 0.39660  0.50000  0.68600  Biso   1.000  C
  C1150    1.0000 0.38280  0.50000  0.71920  Biso   1.000  C
  C1151    1.0000 0.42310  0.50000  0.62390  Biso   1.000  C
  C1152    1.0000 0.43710  0.50000  0.58870  Biso   1.000  C
  O244     1.0000 0.45001  0.50000  0.53188  Biso   1.000  O
  C1153    1.0000 0.18460  0.34190  0.50000  Biso   1.000  C
  C1154    1.0000 0.21870  0.35710  0.50000  Biso   1.000  C
  C1155    1.0000 0.31400  0.39660  0.50000  Biso   1.000  C
  C1156    1.0000 0.28080  0.38280  0.50000  Biso   1.000  C
  C1157    1.0000 0.37610  0.42310  0.50000  Biso   1.000  C
  C1158    1.0000 0.41130  0.43710  0.50000  Biso   1.000  C
  O245     1.0000 0.46812  0.45001  0.50000  Biso   1.000  O
  C1159    1.0000 0.18460  0.65810  0.50000  Biso   1.000  C
  C1160    1.0000 0.21870  0.64290  0.50000  Biso   1.000  C
  C1161    1.0000 0.31400  0.60340  0.50000  Biso   1.000  C
  C1162    1.0000 0.28080  0.61720  0.50000  Biso   1.000  C
  C1163    1.0000 0.37610  0.57690  0.50000  Biso   1.000  C
  C1164    1.0000 0.41130  0.56290  0.50000  Biso   1.000  C
  O246     1.0000 0.46812  0.54999  0.50000  Biso   1.000  O
  C1165    1.0000 0.81540  0.65810  0.50000  Biso   1.000  C
  C1166    1.0000 0.78130  0.64290  0.50000  Biso   1.000  C
  C1167    1.0000 0.68600  0.60340  0.50000  Biso   1.000  C
  C1168    1.0000 0.71920  0.61720  0.50000  Biso   1.000  C
  C1169    1.0000 0.62390  0.57690  0.50000  Biso   1.000  C
  C1170    1.0000 0.58870  0.56290  0.50000  Biso   1.000  C
  O247     1.0000 0.53188  0.54999  0.50000  Biso   1.000  O
  C1171    1.0000 0.81540  0.34190  0.50000  Biso   1.000  C
  C1172    1.0000 0.78130  0.35710  0.50000  Biso   1.000  C
  C1173    1.0000 0.68600  0.39660  0.50000  Biso   1.000  C
  C1174    1.0000 0.71920  0.38280  0.50000  Biso   1.000  C
  C1175    1.0000 0.62390  0.42310  0.50000  Biso   1.000  C
  C1176    1.0000 0.58870  0.43710  0.50000  Biso   1.000  C
  O248     1.0000 0.53188  0.45001  0.50000  Biso   1.000  O
  C1177    1.0000 0.50000  0.18460  0.34190  Biso   1.000  C
  C1178    1.0000 0.50000  0.21870  0.35710  Biso   1.000  C
  C1179    1.0000 0.50000  0.31400  0.39660  Biso   1.000  C
  C1180    1.0000 0.50000  0.28080  0.38280  Biso   1.000  C
  C1181    1.0000 0.50000  0.37610  0.42310  Biso   1.000  C
  C1182    1.0000 0.50000  0.41130  0.43710  Biso   1.000  C
  O249     1.0000 0.50000  0.46812  0.45001  Biso   1.000  O
  C1183    1.0000 0.50000  0.18460  0.65810  Biso   1.000  C
  C1184    1.0000 0.50000  0.21870  0.64290  Biso   1.000  C
  C1185    1.0000 0.50000  0.31400  0.60340  Biso   1.000  C
  C1186    1.0000 0.50000  0.28080  0.61720  Biso   1.000  C
  C1187    1.0000 0.50000  0.37610  0.57690  Biso   1.000  C
  C1188    1.0000 0.50000  0.41130  0.56290  Biso   1.000  C
  O250     1.0000 0.50000  0.46812  0.54999  Biso   1.000  O
  C1189    1.0000 0.50000  0.81540  0.65810  Biso   1.000  C
  C1190    1.0000 0.50000  0.78130  0.64290  Biso   1.000  C
  C1191    1.0000 0.50000  0.68600  0.60340  Biso   1.000  C
  C1192    1.0000 0.50000  0.71920  0.61720  Biso   1.000  C
  C1193    1.0000 0.50000  0.62390  0.57690  Biso   1.000  C
  C1194    1.0000 0.50000  0.58870  0.56290  Biso   1.000  C
  O251     1.0000 0.50000  0.53188  0.54999  Biso   1.000  O
  C1195    1.0000 0.50000  0.81540  0.34190  Biso   1.000  C
  C1196    1.0000 0.50000  0.78130  0.35710  Biso   1.000  C
  C1197    1.0000 0.50000  0.68600  0.39660  Biso   1.000  C
  C1198    1.0000 0.50000  0.71920  0.38280  Biso   1.000  C
  C1199    1.0000 0.50000  0.62390  0.42310  Biso   1.000  C
  C1200    1.0000 0.50000  0.58870  0.43710  Biso   1.000  C
  O252     1.0000 0.50000  0.53188  0.45001  Biso   1.000  O
  C1201    1.0000 0.00000  0.84190  0.31540  Biso   1.000  C
  C1202    1.0000 0.00000  0.85710  0.28130  Biso   1.000  C
  C1203    1.0000 0.00000  0.89660  0.18600  Biso   1.000  C
  C1204    1.0000 0.00000  0.88280  0.21920  Biso   1.000  C
  C1205    1.0000 0.00000  0.92310  0.12390  Biso   1.000  C
  C1206    1.0000 0.00000  0.93710  0.08870  Biso   1.000  C
  O253     1.0000 0.00000  0.95001  0.03188  Biso   1.000  O
  C1207    1.0000 0.00000  0.15810  0.31540  Biso   1.000  C
  C1208    1.0000 0.00000  0.14290  0.28130  Biso   1.000  C
  C1209    1.0000 0.00000  0.10340  0.18600  Biso   1.000  C
  C1210    1.0000 0.00000  0.11720  0.21920  Biso   1.000  C
  C1211    1.0000 0.00000  0.07690  0.12390  Biso   1.000  C
  C1212    1.0000 0.00000  0.06290  0.08870  Biso   1.000  C
  O254     1.0000 0.00000  0.04999  0.03188  Biso   1.000  O
  C1213    1.0000 0.00000  0.15810  0.68460  Biso   1.000  C
  C1214    1.0000 0.00000  0.14290  0.71870  Biso   1.000  C
  C1215    1.0000 0.00000  0.10340  0.81400  Biso   1.000  C
  C1216    1.0000 0.00000  0.11720  0.78080  Biso   1.000  C
  C1217    1.0000 0.00000  0.07690  0.87610  Biso   1.000  C
  C1218    1.0000 0.00000  0.06290  0.91130  Biso   1.000  C
  O255     1.0000 0.00000  0.04999  0.96812  Biso   1.000  O
  C1219    1.0000 0.00000  0.84190  0.68460  Biso   1.000  C
  C1220    1.0000 0.00000  0.85710  0.71870  Biso   1.000  C
  C1221    1.0000 0.00000  0.89660  0.81400  Biso   1.000  C
  C1222    1.0000 0.00000  0.88280  0.78080  Biso   1.000  C
  C1223    1.0000 0.00000  0.92310  0.87610  Biso   1.000  C
  C1224    1.0000 0.00000  0.93710  0.91130  Biso   1.000  C
  O256     1.0000 0.00000  0.95001  0.96812  Biso   1.000  O
  C1225    1.0000 0.84190  0.68460  0.00000  Biso   1.000  C
  C1226    1.0000 0.85710  0.71870  0.00000  Biso   1.000  C
  C1227    1.0000 0.89660  0.81400  0.00000  Biso   1.000  C
  C1228    1.0000 0.88280  0.78080  0.00000  Biso   1.000  C
  C1229    1.0000 0.92310  0.87610  0.00000  Biso   1.000  C
  C1230    1.0000 0.93710  0.91130  0.00000  Biso   1.000  C
  O257     1.0000 0.95001  0.96812  0.00000  Biso   1.000  O
  C1231    1.0000 0.15810  0.68460  0.00000  Biso   1.000  C
  C1232    1.0000 0.14290  0.71870  0.00000  Biso   1.000  C
  C1233    1.0000 0.10340  0.81400  0.00000  Biso   1.000  C
  C1234    1.0000 0.11720  0.78080  0.00000  Biso   1.000  C
  C1235    1.0000 0.07690  0.87610  0.00000  Biso   1.000  C
  C1236    1.0000 0.06290  0.91130  0.00000  Biso   1.000  C
  O258     1.0000 0.04999  0.96812  0.00000  Biso   1.000  O
  C1237    1.0000 0.15810  0.31540  0.00000  Biso   1.000  C
  C1238    1.0000 0.14290  0.28130  0.00000  Biso   1.000  C
  C1239    1.0000 0.10340  0.18600  0.00000  Biso   1.000  C
  C1240    1.0000 0.11720  0.21920  0.00000  Biso   1.000  C
  C1241    1.0000 0.07690  0.12390  0.00000  Biso   1.000  C
  C1242    1.0000 0.06290  0.08870  0.00000  Biso   1.000  C
  O259     1.0000 0.04999  0.03188  0.00000  Biso   1.000  O
  C1243    1.0000 0.84190  0.31540  0.00000  Biso   1.000  C
  C1244    1.0000 0.85710  0.28130  0.00000  Biso   1.000  C
  C1245    1.0000 0.89660  0.18600  0.00000  Biso   1.000  C
  C1246    1.0000 0.88280  0.21920  0.00000  Biso   1.000  C
  C1247    1.0000 0.92310  0.12390  0.00000  Biso   1.000  C
  C1248    1.0000 0.93710  0.08870  0.00000  Biso   1.000  C
  O260     1.0000 0.95001  0.03188  0.00000  Biso   1.000  O
  C1249    1.0000 0.68460  0.00000  0.15810  Biso   1.000  C
  C1250    1.0000 0.71870  0.00000  0.14290  Biso   1.000  C
  C1251    1.0000 0.81400  0.00000  0.10340  Biso   1.000  C
  C1252    1.0000 0.78080  0.00000  0.11720  Biso   1.000  C
  C1253    1.0000 0.87610  0.00000  0.07690  Biso   1.000  C
  C1254    1.0000 0.91130  0.00000  0.06290  Biso   1.000  C
  O261     1.0000 0.96812  0.00000  0.04999  Biso   1.000  O
  C1255    1.0000 0.68460  0.00000  0.84190  Biso   1.000  C
  C1256    1.0000 0.71870  0.00000  0.85710  Biso   1.000  C
  C1257    1.0000 0.81400  0.00000  0.89660  Biso   1.000  C
  C1258    1.0000 0.78080  0.00000  0.88280  Biso   1.000  C
  C1259    1.0000 0.87610  0.00000  0.92310  Biso   1.000  C
  C1260    1.0000 0.91130  0.00000  0.93710  Biso   1.000  C
  O262     1.0000 0.96812  0.00000  0.95001  Biso   1.000  O
  C1261    1.0000 0.31540  0.00000  0.84190  Biso   1.000  C
  C1262    1.0000 0.28130  0.00000  0.85710  Biso   1.000  C
  C1263    1.0000 0.18600  0.00000  0.89660  Biso   1.000  C
  C1264    1.0000 0.21920  0.00000  0.88280  Biso   1.000  C
  C1265    1.0000 0.12390  0.00000  0.92310  Biso   1.000  C
  C1266    1.0000 0.08870  0.00000  0.93710  Biso   1.000  C
  O263     1.0000 0.03188  0.00000  0.95001  Biso   1.000  O
  C1267    1.0000 0.31540  0.00000  0.15810  Biso   1.000  C
  C1268    1.0000 0.28130  0.00000  0.14290  Biso   1.000  C
  C1269    1.0000 0.18600  0.00000  0.10340  Biso   1.000  C
  C1270    1.0000 0.21920  0.00000  0.11720  Biso   1.000  C
  C1271    1.0000 0.12390  0.00000  0.07690  Biso   1.000  C
  C1272    1.0000 0.08870  0.00000  0.06290  Biso   1.000  C
  O264     1.0000 0.03188  0.00000  0.04999  Biso   1.000  O
  Zr37     1.0000 0.46634  0.53366  0.46634  Biso   1.000  Zr
  Zr38     1.0000 0.53366  0.46634  0.46634  Biso   1.000  Zr
  Zr39     1.0000 0.53366  0.53366  0.53366  Biso   1.000  Zr
  Zr40     1.0000 0.46634  0.46634  0.53366  Biso   1.000  Zr
  Zr41     1.0000 0.03366  0.96634  0.03366  Biso   1.000  Zr
  Zr42     1.0000 0.96634  0.03366  0.03366  Biso   1.000  Zr
  Zr43     1.0000 0.03366  0.03366  0.96634  Biso   1.000  Zr
  Zr44     1.0000 0.96634  0.96634  0.96634  Biso   1.000  Zr
  Zr45     1.0000 0.53366  0.46634  0.53366  Biso   1.000  Zr
  Zr46     1.0000 0.46634  0.53366  0.53366  Biso   1.000  Zr
  Zr47     1.0000 0.46634  0.46634  0.46634  Biso   1.000  Zr
  Zr48     1.0000 0.53366  0.53366  0.46634  Biso   1.000  Zr
  Zr49     1.0000 0.96634  0.03366  0.96634  Biso   1.000  Zr
  Zr50     1.0000 0.03366  0.96634  0.96634  Biso   1.000  Zr
  Zr51     1.0000 0.96634  0.96634  0.03366  Biso   1.000  Zr
  Zr52     1.0000 0.03366  0.03366  0.03366  Biso   1.000  Zr
