data_image0
_cell_length_a       41.512
_cell_length_b       41.512
_cell_length_c       41.512
_cell_angle_alpha    90
_cell_angle_beta     90
_cell_angle_gamma    90

_symmetry_space_group_name_H-M    "P 1"
_symmetry_int_tables_number       1

loop_
  _symmetry_equiv_pos_as_xyz
  'x, y, z'

loop_
  _atom_site_label
  _atom_site_occupancy
  _atom_site_fract_x
  _atom_site_fract_y
  _atom_site_fract_z
  _atom_site_thermal_displace_type
  _atom_site_B_iso_or_equiv
  _atom_site_type_symbol
  O1       1.0000 0.43873  0.29619  0.06014  Biso   1.000  O
  O2       1.0000 0.47277  0.24800  0.09341  Biso   1.000  O
  O3       1.0000 0.46837  0.16440  0.96592  Biso   1.000  O
  C1       1.0000 0.47170  0.22000  0.18886  Biso   1.000  C
  H1       1.0000 0.45170  0.21630  0.19940  Biso   1.000  H
  C2       1.0000 0.47140  0.22940  0.15711  Biso   1.000  C
  H2       1.0000 0.45150  0.23180  0.14610  Biso   1.000  H
  C3       1.0000 0.37300  0.07846  0.88030  Biso   1.000  C
  C4       1.0000 0.38287  0.06120  0.85340  Biso   1.000  C
  H3       1.0000 0.40330  0.06540  0.84390  Biso   1.000  H
  C5       1.0000 0.36290  0.03770  0.84026  Biso   1.000  C
  H4       1.0000 0.36970  0.02590  0.82190  Biso   1.000  H
  C6       1.0000 0.33300  0.03150  0.85410  Biso   1.000  C
  C7       1.0000 0.32314  0.04880  0.88100  Biso   1.000  C
  H5       1.0000 0.30270  0.04450  0.89040  Biso   1.000  H
  C8       1.0000 0.34310  0.07230  0.89410  Biso   1.000  C
  H6       1.0000 0.33630  0.08410  0.91250  Biso   1.000  H
  C9       1.0000 0.39438  0.10334  0.89406  Biso   1.000  C
  C10      1.0000 0.38794  0.13581  0.88901  Biso   1.000  C
  H7       1.0000 0.37120  0.14210  0.87470  Biso   1.000  H
  C11      1.0000 0.40593  0.15912  0.90494  Biso   1.000  C
  H8       1.0000 0.40150  0.18130  0.90150  Biso   1.000  H
  C12      1.0000 0.43037  0.14997  0.92591  Biso   1.000  C
  C13      1.0000 0.43682  0.11751  0.93096  Biso   1.000  C
  H9       1.0000 0.45350  0.11130  0.94530  Biso   1.000  H
  C14      1.0000 0.41883  0.09419  0.91504  Biso   1.000  C
  H10      1.0000 0.42320  0.07200  0.91850  Biso   1.000  H
  C15      1.0000 0.44801  0.17500  0.94470  Biso   1.000  C
  O4       1.0000 0.07870  0.02540  0.94490  Biso   1.000  O
  C16      1.0000 0.26160  0.02430  0.85940  Biso   1.000  C
  C17      1.0000 0.13440  0.97170  0.91170  Biso   1.000  C
  H11      1.0000 0.12120  0.95320  0.90930  Biso   1.000  H
  C18      1.0000 0.22930  0.02470  0.87460  Biso   1.000  C
  C19      1.0000 0.17130  0.97350  0.89990  Biso   1.000  C
  H12      1.0000 0.18160  0.95510  0.89110  Biso   1.000  H
  C20      1.0000 0.47540  0.20390  0.25740  Biso   1.000  C
  C21      1.0000 0.47450  0.19150  0.28820  Biso   1.000  C
  O5       1.0000 0.56127  0.70381  0.06014  Biso   1.000  O
  O6       1.0000 0.52723  0.75200  0.09341  Biso   1.000  O
  O7       1.0000 0.53163  0.83560  0.96592  Biso   1.000  O
  C22      1.0000 0.52830  0.78000  0.18886  Biso   1.000  C
  H13      1.0000 0.54830  0.78370  0.19940  Biso   1.000  H
  C23      1.0000 0.52860  0.77060  0.15711  Biso   1.000  C
  H14      1.0000 0.54850  0.76820  0.14610  Biso   1.000  H
  C24      1.0000 0.62700  0.92154  0.88030  Biso   1.000  C
  C25      1.0000 0.61713  0.93880  0.85340  Biso   1.000  C
  H15      1.0000 0.59670  0.93460  0.84390  Biso   1.000  H
  C26      1.0000 0.63710  0.96230  0.84026  Biso   1.000  C
  H16      1.0000 0.63030  0.97410  0.82190  Biso   1.000  H
  C27      1.0000 0.66700  0.96850  0.85410  Biso   1.000  C
  C28      1.0000 0.67686  0.95120  0.88100  Biso   1.000  C
  H17      1.0000 0.69730  0.95550  0.89040  Biso   1.000  H
  C29      1.0000 0.65690  0.92770  0.89410  Biso   1.000  C
  H18      1.0000 0.66370  0.91590  0.91250  Biso   1.000  H
  C30      1.0000 0.60562  0.89666  0.89406  Biso   1.000  C
  C31      1.0000 0.61206  0.86419  0.88901  Biso   1.000  C
  H19      1.0000 0.62880  0.85790  0.87470  Biso   1.000  H
  C32      1.0000 0.59407  0.84088  0.90494  Biso   1.000  C
  H20      1.0000 0.59850  0.81870  0.90150  Biso   1.000  H
  C33      1.0000 0.56963  0.85003  0.92591  Biso   1.000  C
  C34      1.0000 0.56318  0.88249  0.93096  Biso   1.000  C
  H21      1.0000 0.54650  0.88870  0.94530  Biso   1.000  H
  C35      1.0000 0.58117  0.90581  0.91504  Biso   1.000  C
  H22      1.0000 0.57680  0.92800  0.91850  Biso   1.000  H
  C36      1.0000 0.55199  0.82500  0.94470  Biso   1.000  C
  O8       1.0000 0.92130  0.97460  0.94490  Biso   1.000  O
  C37      1.0000 0.73840  0.97570  0.85940  Biso   1.000  C
  C38      1.0000 0.86560  0.02830  0.91170  Biso   1.000  C
  H23      1.0000 0.87880  0.04680  0.90930  Biso   1.000  H
  C39      1.0000 0.77070  0.97530  0.87460  Biso   1.000  C
  C40      1.0000 0.82870  0.02650  0.89990  Biso   1.000  C
  H24      1.0000 0.81840  0.04490  0.89110  Biso   1.000  H
  C41      1.0000 0.52460  0.79610  0.25740  Biso   1.000  C
  C42      1.0000 0.52550  0.80850  0.28820  Biso   1.000  C
  O9       1.0000 0.56127  0.29619  0.93986  Biso   1.000  O
  O10      1.0000 0.52723  0.24800  0.90659  Biso   1.000  O
  O11      1.0000 0.53163  0.16440  0.03408  Biso   1.000  O
  C43      1.0000 0.52830  0.22000  0.81114  Biso   1.000  C
  H25      1.0000 0.54830  0.21630  0.80060  Biso   1.000  H
  C44      1.0000 0.52860  0.22940  0.84289  Biso   1.000  C
  H26      1.0000 0.54850  0.23180  0.85390  Biso   1.000  H
  C45      1.0000 0.62700  0.07846  0.11970  Biso   1.000  C
  C46      1.0000 0.61713  0.06120  0.14660  Biso   1.000  C
  H27      1.0000 0.59670  0.06540  0.15610  Biso   1.000  H
  C47      1.0000 0.63710  0.03770  0.15974  Biso   1.000  C
  H28      1.0000 0.63030  0.02590  0.17810  Biso   1.000  H
  C48      1.0000 0.66700  0.03150  0.14590  Biso   1.000  C
  C49      1.0000 0.67686  0.04880  0.11900  Biso   1.000  C
  H29      1.0000 0.69730  0.04450  0.10960  Biso   1.000  H
  C50      1.0000 0.65690  0.07230  0.10590  Biso   1.000  C
  H30      1.0000 0.66370  0.08410  0.08750  Biso   1.000  H
  C51      1.0000 0.60562  0.10334  0.10594  Biso   1.000  C
  C52      1.0000 0.61206  0.13581  0.11099  Biso   1.000  C
  H31      1.0000 0.62880  0.14210  0.12530  Biso   1.000  H
  C53      1.0000 0.59407  0.15912  0.09506  Biso   1.000  C
  H32      1.0000 0.59850  0.18130  0.09850  Biso   1.000  H
  C54      1.0000 0.56963  0.14997  0.07409  Biso   1.000  C
  C55      1.0000 0.56318  0.11751  0.06904  Biso   1.000  C
  H33      1.0000 0.54650  0.11130  0.05470  Biso   1.000  H
  C56      1.0000 0.58117  0.09419  0.08496  Biso   1.000  C
  H34      1.0000 0.57680  0.07200  0.08150  Biso   1.000  H
  C57      1.0000 0.55199  0.17500  0.05530  Biso   1.000  C
  O12      1.0000 0.92130  0.02540  0.05510  Biso   1.000  O
  C58      1.0000 0.73840  0.02430  0.14060  Biso   1.000  C
  C59      1.0000 0.86560  0.97170  0.08830  Biso   1.000  C
  H35      1.0000 0.87880  0.95320  0.09070  Biso   1.000  H
  C60      1.0000 0.77070  0.02470  0.12540  Biso   1.000  C
  C61      1.0000 0.82870  0.97350  0.10010  Biso   1.000  C
  H36      1.0000 0.81840  0.95510  0.10890  Biso   1.000  H
  C62      1.0000 0.52460  0.20390  0.74260  Biso   1.000  C
  C63      1.0000 0.52550  0.19150  0.71180  Biso   1.000  C
  O13      1.0000 0.43873  0.70381  0.93986  Biso   1.000  O
  O14      1.0000 0.47277  0.75200  0.90659  Biso   1.000  O
  O15      1.0000 0.46837  0.83560  0.03408  Biso   1.000  O
  C64      1.0000 0.47170  0.78000  0.81114  Biso   1.000  C
  H37      1.0000 0.45170  0.78370  0.80060  Biso   1.000  H
  C65      1.0000 0.47140  0.77060  0.84289  Biso   1.000  C
  H38      1.0000 0.45150  0.76820  0.85390  Biso   1.000  H
  C66      1.0000 0.37300  0.92154  0.11970  Biso   1.000  C
  C67      1.0000 0.38287  0.93880  0.14660  Biso   1.000  C
  H39      1.0000 0.40330  0.93460  0.15610  Biso   1.000  H
  C68      1.0000 0.36290  0.96230  0.15974  Biso   1.000  C
  H40      1.0000 0.36970  0.97410  0.17810  Biso   1.000  H
  C69      1.0000 0.33300  0.96850  0.14590  Biso   1.000  C
  C70      1.0000 0.32314  0.95120  0.11900  Biso   1.000  C
  H41      1.0000 0.30270  0.95550  0.10960  Biso   1.000  H
  C71      1.0000 0.34310  0.92770  0.10590  Biso   1.000  C
  H42      1.0000 0.33630  0.91590  0.08750  Biso   1.000  H
  C72      1.0000 0.39438  0.89666  0.10594  Biso   1.000  C
  C73      1.0000 0.38794  0.86419  0.11099  Biso   1.000  C
  H43      1.0000 0.37120  0.85790  0.12530  Biso   1.000  H
  C74      1.0000 0.40593  0.84088  0.09506  Biso   1.000  C
  H44      1.0000 0.40150  0.81870  0.09850  Biso   1.000  H
  C75      1.0000 0.43037  0.85003  0.07409  Biso   1.000  C
  C76      1.0000 0.43682  0.88249  0.06904  Biso   1.000  C
  H45      1.0000 0.45350  0.88870  0.05470  Biso   1.000  H
  C77      1.0000 0.41883  0.90581  0.08496  Biso   1.000  C
  H46      1.0000 0.42320  0.92800  0.08150  Biso   1.000  H
  C78      1.0000 0.44801  0.82500  0.05530  Biso   1.000  C
  O16      1.0000 0.07870  0.97460  0.05510  Biso   1.000  O
  C79      1.0000 0.26160  0.97570  0.14060  Biso   1.000  C
  C80      1.0000 0.13440  0.02830  0.08830  Biso   1.000  C
  H47      1.0000 0.12120  0.04680  0.09070  Biso   1.000  H
  C81      1.0000 0.22930  0.97530  0.12540  Biso   1.000  C
  C82      1.0000 0.17130  0.02650  0.10010  Biso   1.000  C
  H48      1.0000 0.18160  0.04490  0.10890  Biso   1.000  H
  C83      1.0000 0.47540  0.79610  0.74260  Biso   1.000  C
  C84      1.0000 0.47450  0.80850  0.71180  Biso   1.000  C
  O17      1.0000 0.06014  0.43873  0.29619  Biso   1.000  O
  O18      1.0000 0.09341  0.47277  0.24800  Biso   1.000  O
  O19      1.0000 0.96592  0.46837  0.16440  Biso   1.000  O
  C85      1.0000 0.18886  0.47170  0.22000  Biso   1.000  C
  H49      1.0000 0.19940  0.45170  0.21630  Biso   1.000  H
  C86      1.0000 0.15711  0.47140  0.22940  Biso   1.000  C
  H50      1.0000 0.14610  0.45150  0.23180  Biso   1.000  H
  C87      1.0000 0.88030  0.37300  0.07846  Biso   1.000  C
  C88      1.0000 0.85340  0.38287  0.06120  Biso   1.000  C
  H51      1.0000 0.84390  0.40330  0.06540  Biso   1.000  H
  C89      1.0000 0.84026  0.36290  0.03770  Biso   1.000  C
  H52      1.0000 0.82190  0.36970  0.02590  Biso   1.000  H
  C90      1.0000 0.85410  0.33300  0.03150  Biso   1.000  C
  C91      1.0000 0.88100  0.32314  0.04880  Biso   1.000  C
  H53      1.0000 0.89040  0.30270  0.04450  Biso   1.000  H
  C92      1.0000 0.89410  0.34310  0.07230  Biso   1.000  C
  H54      1.0000 0.91250  0.33630  0.08410  Biso   1.000  H
  C93      1.0000 0.89406  0.39438  0.10334  Biso   1.000  C
  C94      1.0000 0.88901  0.38794  0.13581  Biso   1.000  C
  H55      1.0000 0.87470  0.37120  0.14210  Biso   1.000  H
  C95      1.0000 0.90494  0.40593  0.15912  Biso   1.000  C
  H56      1.0000 0.90150  0.40150  0.18130  Biso   1.000  H
  C96      1.0000 0.92591  0.43037  0.14997  Biso   1.000  C
  C97      1.0000 0.93096  0.43682  0.11751  Biso   1.000  C
  H57      1.0000 0.94530  0.45350  0.11130  Biso   1.000  H
  C98      1.0000 0.91504  0.41883  0.09419  Biso   1.000  C
  H58      1.0000 0.91850  0.42320  0.07200  Biso   1.000  H
  C99      1.0000 0.94470  0.44801  0.17500  Biso   1.000  C
  O20      1.0000 0.94490  0.07870  0.02540  Biso   1.000  O
  C100     1.0000 0.85940  0.26160  0.02430  Biso   1.000  C
  C101     1.0000 0.91170  0.13440  0.97170  Biso   1.000  C
  H59      1.0000 0.90930  0.12120  0.95320  Biso   1.000  H
  C102     1.0000 0.87460  0.22930  0.02470  Biso   1.000  C
  C103     1.0000 0.89990  0.17130  0.97350  Biso   1.000  C
  H60      1.0000 0.89110  0.18160  0.95510  Biso   1.000  H
  C104     1.0000 0.25740  0.47540  0.20390  Biso   1.000  C
  C105     1.0000 0.28820  0.47450  0.19150  Biso   1.000  C
  O21      1.0000 0.06014  0.56127  0.70381  Biso   1.000  O
  O22      1.0000 0.09341  0.52723  0.75200  Biso   1.000  O
  O23      1.0000 0.96592  0.53163  0.83560  Biso   1.000  O
  C106     1.0000 0.18886  0.52830  0.78000  Biso   1.000  C
  H61      1.0000 0.19940  0.54830  0.78370  Biso   1.000  H
  C107     1.0000 0.15711  0.52860  0.77060  Biso   1.000  C
  H62      1.0000 0.14610  0.54850  0.76820  Biso   1.000  H
  C108     1.0000 0.88030  0.62700  0.92154  Biso   1.000  C
  C109     1.0000 0.85340  0.61713  0.93880  Biso   1.000  C
  H63      1.0000 0.84390  0.59670  0.93460  Biso   1.000  H
  C110     1.0000 0.84026  0.63710  0.96230  Biso   1.000  C
  H64      1.0000 0.82190  0.63030  0.97410  Biso   1.000  H
  C111     1.0000 0.85410  0.66700  0.96850  Biso   1.000  C
  C112     1.0000 0.88100  0.67686  0.95120  Biso   1.000  C
  H65      1.0000 0.89040  0.69730  0.95550  Biso   1.000  H
  C113     1.0000 0.89410  0.65690  0.92770  Biso   1.000  C
  H66      1.0000 0.91250  0.66370  0.91590  Biso   1.000  H
  C114     1.0000 0.89406  0.60562  0.89666  Biso   1.000  C
  C115     1.0000 0.88901  0.61206  0.86419  Biso   1.000  C
  H67      1.0000 0.87470  0.62880  0.85790  Biso   1.000  H
  C116     1.0000 0.90494  0.59407  0.84088  Biso   1.000  C
  H68      1.0000 0.90150  0.59850  0.81870  Biso   1.000  H
  C117     1.0000 0.92591  0.56963  0.85003  Biso   1.000  C
  C118     1.0000 0.93096  0.56318  0.88249  Biso   1.000  C
  H69      1.0000 0.94530  0.54650  0.88870  Biso   1.000  H
  C119     1.0000 0.91504  0.58117  0.90581  Biso   1.000  C
  H70      1.0000 0.91850  0.57680  0.92800  Biso   1.000  H
  C120     1.0000 0.94470  0.55199  0.82500  Biso   1.000  C
  O24      1.0000 0.94490  0.92130  0.97460  Biso   1.000  O
  C121     1.0000 0.85940  0.73840  0.97570  Biso   1.000  C
  C122     1.0000 0.91170  0.86560  0.02830  Biso   1.000  C
  H71      1.0000 0.90930  0.87880  0.04680  Biso   1.000  H
  C123     1.0000 0.87460  0.77070  0.97530  Biso   1.000  C
  C124     1.0000 0.89990  0.82870  0.02650  Biso   1.000  C
  H72      1.0000 0.89110  0.81840  0.04490  Biso   1.000  H
  C125     1.0000 0.25740  0.52460  0.79610  Biso   1.000  C
  C126     1.0000 0.28820  0.52550  0.80850  Biso   1.000  C
  O25      1.0000 0.93986  0.56127  0.29619  Biso   1.000  O
  O26      1.0000 0.90659  0.52723  0.24800  Biso   1.000  O
  O27      1.0000 0.03408  0.53163  0.16440  Biso   1.000  O
  C127     1.0000 0.81114  0.52830  0.22000  Biso   1.000  C
  H73      1.0000 0.80060  0.54830  0.21630  Biso   1.000  H
  C128     1.0000 0.84289  0.52860  0.22940  Biso   1.000  C
  H74      1.0000 0.85390  0.54850  0.23180  Biso   1.000  H
  C129     1.0000 0.11970  0.62700  0.07846  Biso   1.000  C
  C130     1.0000 0.14660  0.61713  0.06120  Biso   1.000  C
  H75      1.0000 0.15610  0.59670  0.06540  Biso   1.000  H
  C131     1.0000 0.15974  0.63710  0.03770  Biso   1.000  C
  H76      1.0000 0.17810  0.63030  0.02590  Biso   1.000  H
  C132     1.0000 0.14590  0.66700  0.03150  Biso   1.000  C
  C133     1.0000 0.11900  0.67686  0.04880  Biso   1.000  C
  H77      1.0000 0.10960  0.69730  0.04450  Biso   1.000  H
  C134     1.0000 0.10590  0.65690  0.07230  Biso   1.000  C
  H78      1.0000 0.08750  0.66370  0.08410  Biso   1.000  H
  C135     1.0000 0.10594  0.60562  0.10334  Biso   1.000  C
  C136     1.0000 0.11099  0.61206  0.13581  Biso   1.000  C
  H79      1.0000 0.12530  0.62880  0.14210  Biso   1.000  H
  C137     1.0000 0.09506  0.59407  0.15912  Biso   1.000  C
  H80      1.0000 0.09850  0.59850  0.18130  Biso   1.000  H
  C138     1.0000 0.07409  0.56963  0.14997  Biso   1.000  C
  C139     1.0000 0.06904  0.56318  0.11751  Biso   1.000  C
  H81      1.0000 0.05470  0.54650  0.11130  Biso   1.000  H
  C140     1.0000 0.08496  0.58117  0.09419  Biso   1.000  C
  H82      1.0000 0.08150  0.57680  0.07200  Biso   1.000  H
  C141     1.0000 0.05530  0.55199  0.17500  Biso   1.000  C
  O28      1.0000 0.05510  0.92130  0.02540  Biso   1.000  O
  C142     1.0000 0.14060  0.73840  0.02430  Biso   1.000  C
  C143     1.0000 0.08830  0.86560  0.97170  Biso   1.000  C
  H83      1.0000 0.09070  0.87880  0.95320  Biso   1.000  H
  C144     1.0000 0.12540  0.77070  0.02470  Biso   1.000  C
  C145     1.0000 0.10010  0.82870  0.97350  Biso   1.000  C
  H84      1.0000 0.10890  0.81840  0.95510  Biso   1.000  H
  C146     1.0000 0.74260  0.52460  0.20390  Biso   1.000  C
  C147     1.0000 0.71180  0.52550  0.19150  Biso   1.000  C
  O29      1.0000 0.93986  0.43873  0.70381  Biso   1.000  O
  O30      1.0000 0.90659  0.47277  0.75200  Biso   1.000  O
  O31      1.0000 0.03408  0.46837  0.83560  Biso   1.000  O
  C148     1.0000 0.81114  0.47170  0.78000  Biso   1.000  C
  H85      1.0000 0.80060  0.45170  0.78370  Biso   1.000  H
  C149     1.0000 0.84289  0.47140  0.77060  Biso   1.000  C
  H86      1.0000 0.85390  0.45150  0.76820  Biso   1.000  H
  C150     1.0000 0.11970  0.37300  0.92154  Biso   1.000  C
  C151     1.0000 0.14660  0.38287  0.93880  Biso   1.000  C
  H87      1.0000 0.15610  0.40330  0.93460  Biso   1.000  H
  C152     1.0000 0.15974  0.36290  0.96230  Biso   1.000  C
  H88      1.0000 0.17810  0.36970  0.97410  Biso   1.000  H
  C153     1.0000 0.14590  0.33300  0.96850  Biso   1.000  C
  C154     1.0000 0.11900  0.32314  0.95120  Biso   1.000  C
  H89      1.0000 0.10960  0.30270  0.95550  Biso   1.000  H
  C155     1.0000 0.10590  0.34310  0.92770  Biso   1.000  C
  H90      1.0000 0.08750  0.33630  0.91590  Biso   1.000  H
  C156     1.0000 0.10594  0.39438  0.89666  Biso   1.000  C
  C157     1.0000 0.11099  0.38794  0.86419  Biso   1.000  C
  H91      1.0000 0.12530  0.37120  0.85790  Biso   1.000  H
  C158     1.0000 0.09506  0.40593  0.84088  Biso   1.000  C
  H92      1.0000 0.09850  0.40150  0.81870  Biso   1.000  H
  C159     1.0000 0.07409  0.43037  0.85003  Biso   1.000  C
  C160     1.0000 0.06904  0.43682  0.88249  Biso   1.000  C
  H93      1.0000 0.05470  0.45350  0.88870  Biso   1.000  H
  C161     1.0000 0.08496  0.41883  0.90581  Biso   1.000  C
  H94      1.0000 0.08150  0.42320  0.92800  Biso   1.000  H
  C162     1.0000 0.05530  0.44801  0.82500  Biso   1.000  C
  O32      1.0000 0.05510  0.07870  0.97460  Biso   1.000  O
  C163     1.0000 0.14060  0.26160  0.97570  Biso   1.000  C
  C164     1.0000 0.08830  0.13440  0.02830  Biso   1.000  C
  H95      1.0000 0.09070  0.12120  0.04680  Biso   1.000  H
  C165     1.0000 0.12540  0.22930  0.97530  Biso   1.000  C
  C166     1.0000 0.10010  0.17130  0.02650  Biso   1.000  C
  H96      1.0000 0.10890  0.18160  0.04490  Biso   1.000  H
  C167     1.0000 0.74260  0.47540  0.79610  Biso   1.000  C
  C168     1.0000 0.71180  0.47450  0.80850  Biso   1.000  C
  O33      1.0000 0.29619  0.06014  0.43873  Biso   1.000  O
  O34      1.0000 0.24800  0.09341  0.47277  Biso   1.000  O
  O35      1.0000 0.16440  0.96592  0.46837  Biso   1.000  O
  C169     1.0000 0.22000  0.18886  0.47170  Biso   1.000  C
  H97      1.0000 0.21630  0.19940  0.45170  Biso   1.000  H
  C170     1.0000 0.22940  0.15711  0.47140  Biso   1.000  C
  H98      1.0000 0.23180  0.14610  0.45150  Biso   1.000  H
  C171     1.0000 0.07846  0.88030  0.37300  Biso   1.000  C
  C172     1.0000 0.06120  0.85340  0.38287  Biso   1.000  C
  H99      1.0000 0.06540  0.84390  0.40330  Biso   1.000  H
  C173     1.0000 0.03770  0.84026  0.36290  Biso   1.000  C
  H100     1.0000 0.02590  0.82190  0.36970  Biso   1.000  H
  C174     1.0000 0.03150  0.85410  0.33300  Biso   1.000  C
  C175     1.0000 0.04880  0.88100  0.32314  Biso   1.000  C
  H101     1.0000 0.04450  0.89040  0.30270  Biso   1.000  H
  C176     1.0000 0.07230  0.89410  0.34310  Biso   1.000  C
  H102     1.0000 0.08410  0.91250  0.33630  Biso   1.000  H
  C177     1.0000 0.10334  0.89406  0.39438  Biso   1.000  C
  C178     1.0000 0.13581  0.88901  0.38794  Biso   1.000  C
  H103     1.0000 0.14210  0.87470  0.37120  Biso   1.000  H
  C179     1.0000 0.15912  0.90494  0.40593  Biso   1.000  C
  H104     1.0000 0.18130  0.90150  0.40150  Biso   1.000  H
  C180     1.0000 0.14997  0.92591  0.43037  Biso   1.000  C
  C181     1.0000 0.11751  0.93096  0.43682  Biso   1.000  C
  H105     1.0000 0.11130  0.94530  0.45350  Biso   1.000  H
  C182     1.0000 0.09419  0.91504  0.41883  Biso   1.000  C
  H106     1.0000 0.07200  0.91850  0.42320  Biso   1.000  H
  C183     1.0000 0.17500  0.94470  0.44801  Biso   1.000  C
  O36      1.0000 0.02540  0.94490  0.07870  Biso   1.000  O
  C184     1.0000 0.02430  0.85940  0.26160  Biso   1.000  C
  C185     1.0000 0.97170  0.91170  0.13440  Biso   1.000  C
  H107     1.0000 0.95320  0.90930  0.12120  Biso   1.000  H
  C186     1.0000 0.02470  0.87460  0.22930  Biso   1.000  C
  C187     1.0000 0.97350  0.89990  0.17130  Biso   1.000  C
  H108     1.0000 0.95510  0.89110  0.18160  Biso   1.000  H
  C188     1.0000 0.20390  0.25740  0.47540  Biso   1.000  C
  C189     1.0000 0.19150  0.28820  0.47450  Biso   1.000  C
  O37      1.0000 0.70381  0.06014  0.56127  Biso   1.000  O
  O38      1.0000 0.75200  0.09341  0.52723  Biso   1.000  O
  O39      1.0000 0.83560  0.96592  0.53163  Biso   1.000  O
  C190     1.0000 0.78000  0.18886  0.52830  Biso   1.000  C
  H109     1.0000 0.78370  0.19940  0.54830  Biso   1.000  H
  C191     1.0000 0.77060  0.15711  0.52860  Biso   1.000  C
  H110     1.0000 0.76820  0.14610  0.54850  Biso   1.000  H
  C192     1.0000 0.92154  0.88030  0.62700  Biso   1.000  C
  C193     1.0000 0.93880  0.85340  0.61713  Biso   1.000  C
  H111     1.0000 0.93460  0.84390  0.59670  Biso   1.000  H
  C194     1.0000 0.96230  0.84026  0.63710  Biso   1.000  C
  H112     1.0000 0.97410  0.82190  0.63030  Biso   1.000  H
  C195     1.0000 0.96850  0.85410  0.66700  Biso   1.000  C
  C196     1.0000 0.95120  0.88100  0.67686  Biso   1.000  C
  H113     1.0000 0.95550  0.89040  0.69730  Biso   1.000  H
  C197     1.0000 0.92770  0.89410  0.65690  Biso   1.000  C
  H114     1.0000 0.91590  0.91250  0.66370  Biso   1.000  H
  C198     1.0000 0.89666  0.89406  0.60562  Biso   1.000  C
  C199     1.0000 0.86419  0.88901  0.61206  Biso   1.000  C
  H115     1.0000 0.85790  0.87470  0.62880  Biso   1.000  H
  C200     1.0000 0.84088  0.90494  0.59407  Biso   1.000  C
  H116     1.0000 0.81870  0.90150  0.59850  Biso   1.000  H
  C201     1.0000 0.85003  0.92591  0.56963  Biso   1.000  C
  C202     1.0000 0.88249  0.93096  0.56318  Biso   1.000  C
  H117     1.0000 0.88870  0.94530  0.54650  Biso   1.000  H
  C203     1.0000 0.90581  0.91504  0.58117  Biso   1.000  C
  H118     1.0000 0.92800  0.91850  0.57680  Biso   1.000  H
  C204     1.0000 0.82500  0.94470  0.55199  Biso   1.000  C
  O40      1.0000 0.97460  0.94490  0.92130  Biso   1.000  O
  C205     1.0000 0.97570  0.85940  0.73840  Biso   1.000  C
  C206     1.0000 0.02830  0.91170  0.86560  Biso   1.000  C
  H119     1.0000 0.04680  0.90930  0.87880  Biso   1.000  H
  C207     1.0000 0.97530  0.87460  0.77070  Biso   1.000  C
  C208     1.0000 0.02650  0.89990  0.82870  Biso   1.000  C
  H120     1.0000 0.04490  0.89110  0.81840  Biso   1.000  H
  C209     1.0000 0.79610  0.25740  0.52460  Biso   1.000  C
  C210     1.0000 0.80850  0.28820  0.52550  Biso   1.000  C
  O41      1.0000 0.29619  0.93986  0.56127  Biso   1.000  O
  O42      1.0000 0.24800  0.90659  0.52723  Biso   1.000  O
  O43      1.0000 0.16440  0.03408  0.53163  Biso   1.000  O
  C211     1.0000 0.22000  0.81114  0.52830  Biso   1.000  C
  H121     1.0000 0.21630  0.80060  0.54830  Biso   1.000  H
  C212     1.0000 0.22940  0.84289  0.52860  Biso   1.000  C
  H122     1.0000 0.23180  0.85390  0.54850  Biso   1.000  H
  C213     1.0000 0.07846  0.11970  0.62700  Biso   1.000  C
  C214     1.0000 0.06120  0.14660  0.61713  Biso   1.000  C
  H123     1.0000 0.06540  0.15610  0.59670  Biso   1.000  H
  C215     1.0000 0.03770  0.15974  0.63710  Biso   1.000  C
  H124     1.0000 0.02590  0.17810  0.63030  Biso   1.000  H
  C216     1.0000 0.03150  0.14590  0.66700  Biso   1.000  C
  C217     1.0000 0.04880  0.11900  0.67686  Biso   1.000  C
  H125     1.0000 0.04450  0.10960  0.69730  Biso   1.000  H
  C218     1.0000 0.07230  0.10590  0.65690  Biso   1.000  C
  H126     1.0000 0.08410  0.08750  0.66370  Biso   1.000  H
  C219     1.0000 0.10334  0.10594  0.60562  Biso   1.000  C
  C220     1.0000 0.13581  0.11099  0.61206  Biso   1.000  C
  H127     1.0000 0.14210  0.12530  0.62880  Biso   1.000  H
  C221     1.0000 0.15912  0.09506  0.59407  Biso   1.000  C
  H128     1.0000 0.18130  0.09850  0.59850  Biso   1.000  H
  C222     1.0000 0.14997  0.07409  0.56963  Biso   1.000  C
  C223     1.0000 0.11751  0.06904  0.56318  Biso   1.000  C
  H129     1.0000 0.11130  0.05470  0.54650  Biso   1.000  H
  C224     1.0000 0.09419  0.08496  0.58117  Biso   1.000  C
  H130     1.0000 0.07200  0.08150  0.57680  Biso   1.000  H
  C225     1.0000 0.17500  0.05530  0.55199  Biso   1.000  C
  O44      1.0000 0.02540  0.05510  0.92130  Biso   1.000  O
  C226     1.0000 0.02430  0.14060  0.73840  Biso   1.000  C
  C227     1.0000 0.97170  0.08830  0.86560  Biso   1.000  C
  H131     1.0000 0.95320  0.09070  0.87880  Biso   1.000  H
  C228     1.0000 0.02470  0.12540  0.77070  Biso   1.000  C
  C229     1.0000 0.97350  0.10010  0.82870  Biso   1.000  C
  H132     1.0000 0.95510  0.10890  0.81840  Biso   1.000  H
  C230     1.0000 0.20390  0.74260  0.52460  Biso   1.000  C
  C231     1.0000 0.19150  0.71180  0.52550  Biso   1.000  C
  O45      1.0000 0.70381  0.93986  0.43873  Biso   1.000  O
  O46      1.0000 0.75200  0.90659  0.47277  Biso   1.000  O
  O47      1.0000 0.83560  0.03408  0.46837  Biso   1.000  O
  C232     1.0000 0.78000  0.81114  0.47170  Biso   1.000  C
  H133     1.0000 0.78370  0.80060  0.45170  Biso   1.000  H
  C233     1.0000 0.77060  0.84289  0.47140  Biso   1.000  C
  H134     1.0000 0.76820  0.85390  0.45150  Biso   1.000  H
  C234     1.0000 0.92154  0.11970  0.37300  Biso   1.000  C
  C235     1.0000 0.93880  0.14660  0.38287  Biso   1.000  C
  H135     1.0000 0.93460  0.15610  0.40330  Biso   1.000  H
  C236     1.0000 0.96230  0.15974  0.36290  Biso   1.000  C
  H136     1.0000 0.97410  0.17810  0.36970  Biso   1.000  H
  C237     1.0000 0.96850  0.14590  0.33300  Biso   1.000  C
  C238     1.0000 0.95120  0.11900  0.32314  Biso   1.000  C
  H137     1.0000 0.95550  0.10960  0.30270  Biso   1.000  H
  C239     1.0000 0.92770  0.10590  0.34310  Biso   1.000  C
  H138     1.0000 0.91590  0.08750  0.33630  Biso   1.000  H
  C240     1.0000 0.89666  0.10594  0.39438  Biso   1.000  C
  C241     1.0000 0.86419  0.11099  0.38794  Biso   1.000  C
  H139     1.0000 0.85790  0.12530  0.37120  Biso   1.000  H
  C242     1.0000 0.84088  0.09506  0.40593  Biso   1.000  C
  H140     1.0000 0.81870  0.09850  0.40150  Biso   1.000  H
  C243     1.0000 0.85003  0.07409  0.43037  Biso   1.000  C
  C244     1.0000 0.88249  0.06904  0.43682  Biso   1.000  C
  H141     1.0000 0.88870  0.05470  0.45350  Biso   1.000  H
  C245     1.0000 0.90581  0.08496  0.41883  Biso   1.000  C
  H142     1.0000 0.92800  0.08150  0.42320  Biso   1.000  H
  C246     1.0000 0.82500  0.05530  0.44801  Biso   1.000  C
  O48      1.0000 0.97460  0.05510  0.07870  Biso   1.000  O
  C247     1.0000 0.97570  0.14060  0.26160  Biso   1.000  C
  C248     1.0000 0.02830  0.08830  0.13440  Biso   1.000  C
  H143     1.0000 0.04680  0.09070  0.12120  Biso   1.000  H
  C249     1.0000 0.97530  0.12540  0.22930  Biso   1.000  C
  C250     1.0000 0.02650  0.10010  0.17130  Biso   1.000  C
  H144     1.0000 0.04490  0.10890  0.18160  Biso   1.000  H
  C251     1.0000 0.79610  0.74260  0.47540  Biso   1.000  C
  C252     1.0000 0.80850  0.71180  0.47450  Biso   1.000  C
  O49      1.0000 0.79619  0.93873  0.43986  Biso   1.000  O
  O50      1.0000 0.74800  0.97277  0.40659  Biso   1.000  O
  O51      1.0000 0.66440  0.96837  0.53408  Biso   1.000  O
  C253     1.0000 0.72000  0.97170  0.31114  Biso   1.000  C
  H145     1.0000 0.71630  0.95170  0.30060  Biso   1.000  H
  C254     1.0000 0.72940  0.97140  0.34289  Biso   1.000  C
  H146     1.0000 0.73180  0.95150  0.35390  Biso   1.000  H
  C255     1.0000 0.57846  0.87300  0.61970  Biso   1.000  C
  C256     1.0000 0.56120  0.88287  0.64660  Biso   1.000  C
  H147     1.0000 0.56540  0.90330  0.65610  Biso   1.000  H
  C257     1.0000 0.53770  0.86290  0.65974  Biso   1.000  C
  H148     1.0000 0.52590  0.86970  0.67810  Biso   1.000  H
  C258     1.0000 0.53150  0.83300  0.64590  Biso   1.000  C
  C259     1.0000 0.54880  0.82314  0.61900  Biso   1.000  C
  H149     1.0000 0.54450  0.80270  0.60960  Biso   1.000  H
  C260     1.0000 0.57230  0.84310  0.60590  Biso   1.000  C
  H150     1.0000 0.58410  0.83630  0.58750  Biso   1.000  H
  C261     1.0000 0.60334  0.89438  0.60594  Biso   1.000  C
  C262     1.0000 0.63581  0.88794  0.61099  Biso   1.000  C
  H151     1.0000 0.64210  0.87120  0.62530  Biso   1.000  H
  C263     1.0000 0.65912  0.90593  0.59506  Biso   1.000  C
  H152     1.0000 0.68130  0.90150  0.59850  Biso   1.000  H
  C264     1.0000 0.64997  0.93037  0.57409  Biso   1.000  C
  C265     1.0000 0.61751  0.93682  0.56904  Biso   1.000  C
  H153     1.0000 0.61130  0.95350  0.55470  Biso   1.000  H
  C266     1.0000 0.59419  0.91883  0.58496  Biso   1.000  C
  H154     1.0000 0.57200  0.92320  0.58150  Biso   1.000  H
  C267     1.0000 0.67500  0.94801  0.55530  Biso   1.000  C
  O52      1.0000 0.52540  0.57870  0.55510  Biso   1.000  O
  C268     1.0000 0.52430  0.76160  0.64060  Biso   1.000  C
  C269     1.0000 0.47170  0.63440  0.58830  Biso   1.000  C
  H155     1.0000 0.45320  0.62120  0.59070  Biso   1.000  H
  C270     1.0000 0.52470  0.72930  0.62540  Biso   1.000  C
  C271     1.0000 0.47350  0.67130  0.60010  Biso   1.000  C
  H156     1.0000 0.45510  0.68160  0.60890  Biso   1.000  H
  C272     1.0000 0.70390  0.97540  0.24260  Biso   1.000  C
  C273     1.0000 0.69150  0.97450  0.21180  Biso   1.000  C
  O53      1.0000 0.20381  0.06127  0.43986  Biso   1.000  O
  O54      1.0000 0.25200  0.02723  0.40659  Biso   1.000  O
  O55      1.0000 0.33560  0.03163  0.53408  Biso   1.000  O
  C274     1.0000 0.28000  0.02830  0.31114  Biso   1.000  C
  H157     1.0000 0.28370  0.04830  0.30060  Biso   1.000  H
  C275     1.0000 0.27060  0.02860  0.34289  Biso   1.000  C
  H158     1.0000 0.26820  0.04850  0.35390  Biso   1.000  H
  C276     1.0000 0.42154  0.12700  0.61970  Biso   1.000  C
  C277     1.0000 0.43880  0.11713  0.64660  Biso   1.000  C
  H159     1.0000 0.43460  0.09670  0.65610  Biso   1.000  H
  C278     1.0000 0.46230  0.13710  0.65974  Biso   1.000  C
  H160     1.0000 0.47410  0.13030  0.67810  Biso   1.000  H
  C279     1.0000 0.46850  0.16700  0.64590  Biso   1.000  C
  C280     1.0000 0.45120  0.17686  0.61900  Biso   1.000  C
  H161     1.0000 0.45550  0.19730  0.60960  Biso   1.000  H
  C281     1.0000 0.42770  0.15690  0.60590  Biso   1.000  C
  H162     1.0000 0.41590  0.16370  0.58750  Biso   1.000  H
  C282     1.0000 0.39666  0.10562  0.60594  Biso   1.000  C
  C283     1.0000 0.36419  0.11206  0.61099  Biso   1.000  C
  H163     1.0000 0.35790  0.12880  0.62530  Biso   1.000  H
  C284     1.0000 0.34088  0.09407  0.59506  Biso   1.000  C
  H164     1.0000 0.31870  0.09850  0.59850  Biso   1.000  H
  C285     1.0000 0.35003  0.06963  0.57409  Biso   1.000  C
  C286     1.0000 0.38249  0.06318  0.56904  Biso   1.000  C
  H165     1.0000 0.38870  0.04650  0.55470  Biso   1.000  H
  C287     1.0000 0.40581  0.08117  0.58496  Biso   1.000  C
  H166     1.0000 0.42800  0.07680  0.58150  Biso   1.000  H
  C288     1.0000 0.32500  0.05199  0.55530  Biso   1.000  C
  O56      1.0000 0.47460  0.42130  0.55510  Biso   1.000  O
  C289     1.0000 0.47570  0.23840  0.64060  Biso   1.000  C
  C290     1.0000 0.52830  0.36560  0.58830  Biso   1.000  C
  H167     1.0000 0.54680  0.37880  0.59070  Biso   1.000  H
  C291     1.0000 0.47530  0.27070  0.62540  Biso   1.000  C
  C292     1.0000 0.52650  0.32870  0.60010  Biso   1.000  C
  H168     1.0000 0.54490  0.31840  0.60890  Biso   1.000  H
  C293     1.0000 0.29610  0.02460  0.24260  Biso   1.000  C
  C294     1.0000 0.30850  0.02550  0.21180  Biso   1.000  C
  O57      1.0000 0.79619  0.06127  0.56014  Biso   1.000  O
  O58      1.0000 0.74800  0.02723  0.59341  Biso   1.000  O
  O59      1.0000 0.66440  0.03163  0.46592  Biso   1.000  O
  C295     1.0000 0.72000  0.02830  0.68886  Biso   1.000  C
  H169     1.0000 0.71630  0.04830  0.69940  Biso   1.000  H
  C296     1.0000 0.72940  0.02860  0.65711  Biso   1.000  C
  H170     1.0000 0.73180  0.04850  0.64610  Biso   1.000  H
  C297     1.0000 0.57846  0.12700  0.38030  Biso   1.000  C
  C298     1.0000 0.56120  0.11713  0.35340  Biso   1.000  C
  H171     1.0000 0.56540  0.09670  0.34390  Biso   1.000  H
  C299     1.0000 0.53770  0.13710  0.34026  Biso   1.000  C
  H172     1.0000 0.52590  0.13030  0.32190  Biso   1.000  H
  C300     1.0000 0.53150  0.16700  0.35410  Biso   1.000  C
  C301     1.0000 0.54880  0.17686  0.38100  Biso   1.000  C
  H173     1.0000 0.54450  0.19730  0.39040  Biso   1.000  H
  C302     1.0000 0.57230  0.15690  0.39410  Biso   1.000  C
  H174     1.0000 0.58410  0.16370  0.41250  Biso   1.000  H
  C303     1.0000 0.60334  0.10562  0.39406  Biso   1.000  C
  C304     1.0000 0.63581  0.11206  0.38901  Biso   1.000  C
  H175     1.0000 0.64210  0.12880  0.37470  Biso   1.000  H
  C305     1.0000 0.65912  0.09407  0.40494  Biso   1.000  C
  H176     1.0000 0.68130  0.09850  0.40150  Biso   1.000  H
  C306     1.0000 0.64997  0.06963  0.42591  Biso   1.000  C
  C307     1.0000 0.61751  0.06318  0.43096  Biso   1.000  C
  H177     1.0000 0.61130  0.04650  0.44530  Biso   1.000  H
  C308     1.0000 0.59419  0.08117  0.41504  Biso   1.000  C
  H178     1.0000 0.57200  0.07680  0.41850  Biso   1.000  H
  C309     1.0000 0.67500  0.05199  0.44470  Biso   1.000  C
  O60      1.0000 0.52540  0.42130  0.44490  Biso   1.000  O
  C310     1.0000 0.52430  0.23840  0.35940  Biso   1.000  C
  C311     1.0000 0.47170  0.36560  0.41170  Biso   1.000  C
  H179     1.0000 0.45320  0.37880  0.40930  Biso   1.000  H
  C312     1.0000 0.52470  0.27070  0.37460  Biso   1.000  C
  C313     1.0000 0.47350  0.32870  0.39990  Biso   1.000  C
  H180     1.0000 0.45510  0.31840  0.39110  Biso   1.000  H
  C314     1.0000 0.70390  0.02460  0.75740  Biso   1.000  C
  C315     1.0000 0.69150  0.02550  0.78820  Biso   1.000  C
  O61      1.0000 0.20381  0.93873  0.56014  Biso   1.000  O
  O62      1.0000 0.25200  0.97277  0.59341  Biso   1.000  O
  O63      1.0000 0.33560  0.96837  0.46592  Biso   1.000  O
  C316     1.0000 0.28000  0.97170  0.68886  Biso   1.000  C
  H181     1.0000 0.28370  0.95170  0.69940  Biso   1.000  H
  C317     1.0000 0.27060  0.97140  0.65711  Biso   1.000  C
  H182     1.0000 0.26820  0.95150  0.64610  Biso   1.000  H
  C318     1.0000 0.42154  0.87300  0.38030  Biso   1.000  C
  C319     1.0000 0.43880  0.88287  0.35340  Biso   1.000  C
  H183     1.0000 0.43460  0.90330  0.34390  Biso   1.000  H
  C320     1.0000 0.46230  0.86290  0.34026  Biso   1.000  C
  H184     1.0000 0.47410  0.86970  0.32190  Biso   1.000  H
  C321     1.0000 0.46850  0.83300  0.35410  Biso   1.000  C
  C322     1.0000 0.45120  0.82314  0.38100  Biso   1.000  C
  H185     1.0000 0.45550  0.80270  0.39040  Biso   1.000  H
  C323     1.0000 0.42770  0.84310  0.39410  Biso   1.000  C
  H186     1.0000 0.41590  0.83630  0.41250  Biso   1.000  H
  C324     1.0000 0.39666  0.89438  0.39406  Biso   1.000  C
  C325     1.0000 0.36419  0.88794  0.38901  Biso   1.000  C
  H187     1.0000 0.35790  0.87120  0.37470  Biso   1.000  H
  C326     1.0000 0.34088  0.90593  0.40494  Biso   1.000  C
  H188     1.0000 0.31870  0.90150  0.40150  Biso   1.000  H
  C327     1.0000 0.35003  0.93037  0.42591  Biso   1.000  C
  C328     1.0000 0.38249  0.93682  0.43096  Biso   1.000  C
  H189     1.0000 0.38870  0.95350  0.44530  Biso   1.000  H
  C329     1.0000 0.40581  0.91883  0.41504  Biso   1.000  C
  H190     1.0000 0.42800  0.92320  0.41850  Biso   1.000  H
  C330     1.0000 0.32500  0.94801  0.44470  Biso   1.000  C
  O64      1.0000 0.47460  0.57870  0.44490  Biso   1.000  O
  C331     1.0000 0.47570  0.76160  0.35940  Biso   1.000  C
  C332     1.0000 0.52830  0.63440  0.41170  Biso   1.000  C
  H191     1.0000 0.54680  0.62120  0.40930  Biso   1.000  H
  C333     1.0000 0.47530  0.72930  0.37460  Biso   1.000  C
  C334     1.0000 0.52650  0.67130  0.39990  Biso   1.000  C
  H192     1.0000 0.54490  0.68160  0.39110  Biso   1.000  H
  C335     1.0000 0.29610  0.97540  0.75740  Biso   1.000  C
  C336     1.0000 0.30850  0.97450  0.78820  Biso   1.000  C
  O65      1.0000 0.93873  0.56014  0.20381  Biso   1.000  O
  O66      1.0000 0.97277  0.59341  0.25200  Biso   1.000  O
  O67      1.0000 0.96837  0.46592  0.33560  Biso   1.000  O
  C337     1.0000 0.97170  0.68886  0.28000  Biso   1.000  C
  H193     1.0000 0.95170  0.69940  0.28370  Biso   1.000  H
  C338     1.0000 0.97140  0.65711  0.27060  Biso   1.000  C
  H194     1.0000 0.95150  0.64610  0.26820  Biso   1.000  H
  C339     1.0000 0.87300  0.38030  0.42154  Biso   1.000  C
  C340     1.0000 0.88287  0.35340  0.43880  Biso   1.000  C
  H195     1.0000 0.90330  0.34390  0.43460  Biso   1.000  H
  C341     1.0000 0.86290  0.34026  0.46230  Biso   1.000  C
  H196     1.0000 0.86970  0.32190  0.47410  Biso   1.000  H
  C342     1.0000 0.83300  0.35410  0.46850  Biso   1.000  C
  C343     1.0000 0.82314  0.38100  0.45120  Biso   1.000  C
  H197     1.0000 0.80270  0.39040  0.45550  Biso   1.000  H
  C344     1.0000 0.84310  0.39410  0.42770  Biso   1.000  C
  H198     1.0000 0.83630  0.41250  0.41590  Biso   1.000  H
  C345     1.0000 0.89438  0.39406  0.39666  Biso   1.000  C
  C346     1.0000 0.88794  0.38901  0.36419  Biso   1.000  C
  H199     1.0000 0.87120  0.37470  0.35790  Biso   1.000  H
  C347     1.0000 0.90593  0.40494  0.34088  Biso   1.000  C
  H200     1.0000 0.90150  0.40150  0.31870  Biso   1.000  H
  C348     1.0000 0.93037  0.42591  0.35003  Biso   1.000  C
  C349     1.0000 0.93682  0.43096  0.38249  Biso   1.000  C
  H201     1.0000 0.95350  0.44530  0.38870  Biso   1.000  H
  C350     1.0000 0.91883  0.41504  0.40581  Biso   1.000  C
  H202     1.0000 0.92320  0.41850  0.42800  Biso   1.000  H
  C351     1.0000 0.94801  0.44470  0.32500  Biso   1.000  C
  O68      1.0000 0.57870  0.44490  0.47460  Biso   1.000  O
  C352     1.0000 0.76160  0.35940  0.47570  Biso   1.000  C
  C353     1.0000 0.63440  0.41170  0.52830  Biso   1.000  C
  H203     1.0000 0.62120  0.40930  0.54680  Biso   1.000  H
  C354     1.0000 0.72930  0.37460  0.47530  Biso   1.000  C
  C355     1.0000 0.67130  0.39990  0.52650  Biso   1.000  C
  H204     1.0000 0.68160  0.39110  0.54490  Biso   1.000  H
  C356     1.0000 0.97540  0.75740  0.29610  Biso   1.000  C
  C357     1.0000 0.97450  0.78820  0.30850  Biso   1.000  C
  O69      1.0000 0.06127  0.56014  0.79619  Biso   1.000  O
  O70      1.0000 0.02723  0.59341  0.74800  Biso   1.000  O
  O71      1.0000 0.03163  0.46592  0.66440  Biso   1.000  O
  C358     1.0000 0.02830  0.68886  0.72000  Biso   1.000  C
  H205     1.0000 0.04830  0.69940  0.71630  Biso   1.000  H
  C359     1.0000 0.02860  0.65711  0.72940  Biso   1.000  C
  H206     1.0000 0.04850  0.64610  0.73180  Biso   1.000  H
  C360     1.0000 0.12700  0.38030  0.57846  Biso   1.000  C
  C361     1.0000 0.11713  0.35340  0.56120  Biso   1.000  C
  H207     1.0000 0.09670  0.34390  0.56540  Biso   1.000  H
  C362     1.0000 0.13710  0.34026  0.53770  Biso   1.000  C
  H208     1.0000 0.13030  0.32190  0.52590  Biso   1.000  H
  C363     1.0000 0.16700  0.35410  0.53150  Biso   1.000  C
  C364     1.0000 0.17686  0.38100  0.54880  Biso   1.000  C
  H209     1.0000 0.19730  0.39040  0.54450  Biso   1.000  H
  C365     1.0000 0.15690  0.39410  0.57230  Biso   1.000  C
  H210     1.0000 0.16370  0.41250  0.58410  Biso   1.000  H
  C366     1.0000 0.10562  0.39406  0.60334  Biso   1.000  C
  C367     1.0000 0.11206  0.38901  0.63581  Biso   1.000  C
  H211     1.0000 0.12880  0.37470  0.64210  Biso   1.000  H
  C368     1.0000 0.09407  0.40494  0.65912  Biso   1.000  C
  H212     1.0000 0.09850  0.40150  0.68130  Biso   1.000  H
  C369     1.0000 0.06963  0.42591  0.64997  Biso   1.000  C
  C370     1.0000 0.06318  0.43096  0.61751  Biso   1.000  C
  H213     1.0000 0.04650  0.44530  0.61130  Biso   1.000  H
  C371     1.0000 0.08117  0.41504  0.59419  Biso   1.000  C
  H214     1.0000 0.07680  0.41850  0.57200  Biso   1.000  H
  C372     1.0000 0.05199  0.44470  0.67500  Biso   1.000  C
  O72      1.0000 0.42130  0.44490  0.52540  Biso   1.000  O
  C373     1.0000 0.23840  0.35940  0.52430  Biso   1.000  C
  C374     1.0000 0.36560  0.41170  0.47170  Biso   1.000  C
  H215     1.0000 0.37880  0.40930  0.45320  Biso   1.000  H
  C375     1.0000 0.27070  0.37460  0.52470  Biso   1.000  C
  C376     1.0000 0.32870  0.39990  0.47350  Biso   1.000  C
  H216     1.0000 0.31840  0.39110  0.45510  Biso   1.000  H
  C377     1.0000 0.02460  0.75740  0.70390  Biso   1.000  C
  C378     1.0000 0.02550  0.78820  0.69150  Biso   1.000  C
  O73      1.0000 0.06127  0.43986  0.20381  Biso   1.000  O
  O74      1.0000 0.02723  0.40659  0.25200  Biso   1.000  O
  O75      1.0000 0.03163  0.53408  0.33560  Biso   1.000  O
  C379     1.0000 0.02830  0.31114  0.28000  Biso   1.000  C
  H217     1.0000 0.04830  0.30060  0.28370  Biso   1.000  H
  C380     1.0000 0.02860  0.34289  0.27060  Biso   1.000  C
  H218     1.0000 0.04850  0.35390  0.26820  Biso   1.000  H
  C381     1.0000 0.12700  0.61970  0.42154  Biso   1.000  C
  C382     1.0000 0.11713  0.64660  0.43880  Biso   1.000  C
  H219     1.0000 0.09670  0.65610  0.43460  Biso   1.000  H
  C383     1.0000 0.13710  0.65974  0.46230  Biso   1.000  C
  H220     1.0000 0.13030  0.67810  0.47410  Biso   1.000  H
  C384     1.0000 0.16700  0.64590  0.46850  Biso   1.000  C
  C385     1.0000 0.17686  0.61900  0.45120  Biso   1.000  C
  H221     1.0000 0.19730  0.60960  0.45550  Biso   1.000  H
  C386     1.0000 0.15690  0.60590  0.42770  Biso   1.000  C
  H222     1.0000 0.16370  0.58750  0.41590  Biso   1.000  H
  C387     1.0000 0.10562  0.60594  0.39666  Biso   1.000  C
  C388     1.0000 0.11206  0.61099  0.36419  Biso   1.000  C
  H223     1.0000 0.12880  0.62530  0.35790  Biso   1.000  H
  C389     1.0000 0.09407  0.59506  0.34088  Biso   1.000  C
  H224     1.0000 0.09850  0.59850  0.31870  Biso   1.000  H
  C390     1.0000 0.06963  0.57409  0.35003  Biso   1.000  C
  C391     1.0000 0.06318  0.56904  0.38249  Biso   1.000  C
  H225     1.0000 0.04650  0.55470  0.38870  Biso   1.000  H
  C392     1.0000 0.08117  0.58496  0.40581  Biso   1.000  C
  H226     1.0000 0.07680  0.58150  0.42800  Biso   1.000  H
  C393     1.0000 0.05199  0.55530  0.32500  Biso   1.000  C
  O76      1.0000 0.42130  0.55510  0.47460  Biso   1.000  O
  C394     1.0000 0.23840  0.64060  0.47570  Biso   1.000  C
  C395     1.0000 0.36560  0.58830  0.52830  Biso   1.000  C
  H227     1.0000 0.37880  0.59070  0.54680  Biso   1.000  H
  C396     1.0000 0.27070  0.62540  0.47530  Biso   1.000  C
  C397     1.0000 0.32870  0.60010  0.52650  Biso   1.000  C
  H228     1.0000 0.31840  0.60890  0.54490  Biso   1.000  H
  C398     1.0000 0.02460  0.24260  0.29610  Biso   1.000  C
  C399     1.0000 0.02550  0.21180  0.30850  Biso   1.000  C
  O77      1.0000 0.93873  0.43986  0.79619  Biso   1.000  O
  O78      1.0000 0.97277  0.40659  0.74800  Biso   1.000  O
  O79      1.0000 0.96837  0.53408  0.66440  Biso   1.000  O
  C400     1.0000 0.97170  0.31114  0.72000  Biso   1.000  C
  H229     1.0000 0.95170  0.30060  0.71630  Biso   1.000  H
  C401     1.0000 0.97140  0.34289  0.72940  Biso   1.000  C
  H230     1.0000 0.95150  0.35390  0.73180  Biso   1.000  H
  C402     1.0000 0.87300  0.61970  0.57846  Biso   1.000  C
  C403     1.0000 0.88287  0.64660  0.56120  Biso   1.000  C
  H231     1.0000 0.90330  0.65610  0.56540  Biso   1.000  H
  C404     1.0000 0.86290  0.65974  0.53770  Biso   1.000  C
  H232     1.0000 0.86970  0.67810  0.52590  Biso   1.000  H
  C405     1.0000 0.83300  0.64590  0.53150  Biso   1.000  C
  C406     1.0000 0.82314  0.61900  0.54880  Biso   1.000  C
  H233     1.0000 0.80270  0.60960  0.54450  Biso   1.000  H
  C407     1.0000 0.84310  0.60590  0.57230  Biso   1.000  C
  H234     1.0000 0.83630  0.58750  0.58410  Biso   1.000  H
  C408     1.0000 0.89438  0.60594  0.60334  Biso   1.000  C
  C409     1.0000 0.88794  0.61099  0.63581  Biso   1.000  C
  H235     1.0000 0.87120  0.62530  0.64210  Biso   1.000  H
  C410     1.0000 0.90593  0.59506  0.65912  Biso   1.000  C
  H236     1.0000 0.90150  0.59850  0.68130  Biso   1.000  H
  C411     1.0000 0.93037  0.57409  0.64997  Biso   1.000  C
  C412     1.0000 0.93682  0.56904  0.61751  Biso   1.000  C
  H237     1.0000 0.95350  0.55470  0.61130  Biso   1.000  H
  C413     1.0000 0.91883  0.58496  0.59419  Biso   1.000  C
  H238     1.0000 0.92320  0.58150  0.57200  Biso   1.000  H
  C414     1.0000 0.94801  0.55530  0.67500  Biso   1.000  C
  O80      1.0000 0.57870  0.55510  0.52540  Biso   1.000  O
  C415     1.0000 0.76160  0.64060  0.52430  Biso   1.000  C
  C416     1.0000 0.63440  0.58830  0.47170  Biso   1.000  C
  H239     1.0000 0.62120  0.59070  0.45320  Biso   1.000  H
  C417     1.0000 0.72930  0.62540  0.52470  Biso   1.000  C
  C418     1.0000 0.67130  0.60010  0.47350  Biso   1.000  C
  H240     1.0000 0.68160  0.60890  0.45510  Biso   1.000  H
  C419     1.0000 0.97540  0.24260  0.70390  Biso   1.000  C
  C420     1.0000 0.97450  0.21180  0.69150  Biso   1.000  C
  O81      1.0000 0.56014  0.79619  0.06127  Biso   1.000  O
  O82      1.0000 0.59341  0.74800  0.02723  Biso   1.000  O
  O83      1.0000 0.46592  0.66440  0.03163  Biso   1.000  O
  C421     1.0000 0.68886  0.72000  0.02830  Biso   1.000  C
  H241     1.0000 0.69940  0.71630  0.04830  Biso   1.000  H
  C422     1.0000 0.65711  0.72940  0.02860  Biso   1.000  C
  H242     1.0000 0.64610  0.73180  0.04850  Biso   1.000  H
  C423     1.0000 0.38030  0.57846  0.12700  Biso   1.000  C
  C424     1.0000 0.35340  0.56120  0.11713  Biso   1.000  C
  H243     1.0000 0.34390  0.56540  0.09670  Biso   1.000  H
  C425     1.0000 0.34026  0.53770  0.13710  Biso   1.000  C
  H244     1.0000 0.32190  0.52590  0.13030  Biso   1.000  H
  C426     1.0000 0.35410  0.53150  0.16700  Biso   1.000  C
  C427     1.0000 0.38100  0.54880  0.17686  Biso   1.000  C
  H245     1.0000 0.39040  0.54450  0.19730  Biso   1.000  H
  C428     1.0000 0.39410  0.57230  0.15690  Biso   1.000  C
  H246     1.0000 0.41250  0.58410  0.16370  Biso   1.000  H
  C429     1.0000 0.39406  0.60334  0.10562  Biso   1.000  C
  C430     1.0000 0.38901  0.63581  0.11206  Biso   1.000  C
  H247     1.0000 0.37470  0.64210  0.12880  Biso   1.000  H
  C431     1.0000 0.40494  0.65912  0.09407  Biso   1.000  C
  H248     1.0000 0.40150  0.68130  0.09850  Biso   1.000  H
  C432     1.0000 0.42591  0.64997  0.06963  Biso   1.000  C
  C433     1.0000 0.43096  0.61751  0.06318  Biso   1.000  C
  H249     1.0000 0.44530  0.61130  0.04650  Biso   1.000  H
  C434     1.0000 0.41504  0.59419  0.08117  Biso   1.000  C
  H250     1.0000 0.41850  0.57200  0.07680  Biso   1.000  H
  C435     1.0000 0.44470  0.67500  0.05199  Biso   1.000  C
  O84      1.0000 0.44490  0.52540  0.42130  Biso   1.000  O
  C436     1.0000 0.35940  0.52430  0.23840  Biso   1.000  C
  C437     1.0000 0.41170  0.47170  0.36560  Biso   1.000  C
  H251     1.0000 0.40930  0.45320  0.37880  Biso   1.000  H
  C438     1.0000 0.37460  0.52470  0.27070  Biso   1.000  C
  C439     1.0000 0.39990  0.47350  0.32870  Biso   1.000  C
  H252     1.0000 0.39110  0.45510  0.31840  Biso   1.000  H
  C440     1.0000 0.75740  0.70390  0.02460  Biso   1.000  C
  C441     1.0000 0.78820  0.69150  0.02550  Biso   1.000  C
  O85      1.0000 0.56014  0.20381  0.93873  Biso   1.000  O
  O86      1.0000 0.59341  0.25200  0.97277  Biso   1.000  O
  O87      1.0000 0.46592  0.33560  0.96837  Biso   1.000  O
  C442     1.0000 0.68886  0.28000  0.97170  Biso   1.000  C
  H253     1.0000 0.69940  0.28370  0.95170  Biso   1.000  H
  C443     1.0000 0.65711  0.27060  0.97140  Biso   1.000  C
  H254     1.0000 0.64610  0.26820  0.95150  Biso   1.000  H
  C444     1.0000 0.38030  0.42154  0.87300  Biso   1.000  C
  C445     1.0000 0.35340  0.43880  0.88287  Biso   1.000  C
  H255     1.0000 0.34390  0.43460  0.90330  Biso   1.000  H
  C446     1.0000 0.34026  0.46230  0.86290  Biso   1.000  C
  H256     1.0000 0.32190  0.47410  0.86970  Biso   1.000  H
  C447     1.0000 0.35410  0.46850  0.83300  Biso   1.000  C
  C448     1.0000 0.38100  0.45120  0.82314  Biso   1.000  C
  H257     1.0000 0.39040  0.45550  0.80270  Biso   1.000  H
  C449     1.0000 0.39410  0.42770  0.84310  Biso   1.000  C
  H258     1.0000 0.41250  0.41590  0.83630  Biso   1.000  H
  C450     1.0000 0.39406  0.39666  0.89438  Biso   1.000  C
  C451     1.0000 0.38901  0.36419  0.88794  Biso   1.000  C
  H259     1.0000 0.37470  0.35790  0.87120  Biso   1.000  H
  C452     1.0000 0.40494  0.34088  0.90593  Biso   1.000  C
  H260     1.0000 0.40150  0.31870  0.90150  Biso   1.000  H
  C453     1.0000 0.42591  0.35003  0.93037  Biso   1.000  C
  C454     1.0000 0.43096  0.38249  0.93682  Biso   1.000  C
  H261     1.0000 0.44530  0.38870  0.95350  Biso   1.000  H
  C455     1.0000 0.41504  0.40581  0.91883  Biso   1.000  C
  H262     1.0000 0.41850  0.42800  0.92320  Biso   1.000  H
  C456     1.0000 0.44470  0.32500  0.94801  Biso   1.000  C
  O88      1.0000 0.44490  0.47460  0.57870  Biso   1.000  O
  C457     1.0000 0.35940  0.47570  0.76160  Biso   1.000  C
  C458     1.0000 0.41170  0.52830  0.63440  Biso   1.000  C
  H263     1.0000 0.40930  0.54680  0.62120  Biso   1.000  H
  C459     1.0000 0.37460  0.47530  0.72930  Biso   1.000  C
  C460     1.0000 0.39990  0.52650  0.67130  Biso   1.000  C
  H264     1.0000 0.39110  0.54490  0.68160  Biso   1.000  H
  C461     1.0000 0.75740  0.29610  0.97540  Biso   1.000  C
  C462     1.0000 0.78820  0.30850  0.97450  Biso   1.000  C
  O89      1.0000 0.43986  0.79619  0.93873  Biso   1.000  O
  O90      1.0000 0.40659  0.74800  0.97277  Biso   1.000  O
  O91      1.0000 0.53408  0.66440  0.96837  Biso   1.000  O
  C463     1.0000 0.31114  0.72000  0.97170  Biso   1.000  C
  H265     1.0000 0.30060  0.71630  0.95170  Biso   1.000  H
  C464     1.0000 0.34289  0.72940  0.97140  Biso   1.000  C
  H266     1.0000 0.35390  0.73180  0.95150  Biso   1.000  H
  C465     1.0000 0.61970  0.57846  0.87300  Biso   1.000  C
  C466     1.0000 0.64660  0.56120  0.88287  Biso   1.000  C
  H267     1.0000 0.65610  0.56540  0.90330  Biso   1.000  H
  C467     1.0000 0.65974  0.53770  0.86290  Biso   1.000  C
  H268     1.0000 0.67810  0.52590  0.86970  Biso   1.000  H
  C468     1.0000 0.64590  0.53150  0.83300  Biso   1.000  C
  C469     1.0000 0.61900  0.54880  0.82314  Biso   1.000  C
  H269     1.0000 0.60960  0.54450  0.80270  Biso   1.000  H
  C470     1.0000 0.60590  0.57230  0.84310  Biso   1.000  C
  H270     1.0000 0.58750  0.58410  0.83630  Biso   1.000  H
  C471     1.0000 0.60594  0.60334  0.89438  Biso   1.000  C
  C472     1.0000 0.61099  0.63581  0.88794  Biso   1.000  C
  H271     1.0000 0.62530  0.64210  0.87120  Biso   1.000  H
  C473     1.0000 0.59506  0.65912  0.90593  Biso   1.000  C
  H272     1.0000 0.59850  0.68130  0.90150  Biso   1.000  H
  C474     1.0000 0.57409  0.64997  0.93037  Biso   1.000  C
  C475     1.0000 0.56904  0.61751  0.93682  Biso   1.000  C
  H273     1.0000 0.55470  0.61130  0.95350  Biso   1.000  H
  C476     1.0000 0.58496  0.59419  0.91883  Biso   1.000  C
  H274     1.0000 0.58150  0.57200  0.92320  Biso   1.000  H
  C477     1.0000 0.55530  0.67500  0.94801  Biso   1.000  C
  O92      1.0000 0.55510  0.52540  0.57870  Biso   1.000  O
  C478     1.0000 0.64060  0.52430  0.76160  Biso   1.000  C
  C479     1.0000 0.58830  0.47170  0.63440  Biso   1.000  C
  H275     1.0000 0.59070  0.45320  0.62120  Biso   1.000  H
  C480     1.0000 0.62540  0.52470  0.72930  Biso   1.000  C
  C481     1.0000 0.60010  0.47350  0.67130  Biso   1.000  C
  H276     1.0000 0.60890  0.45510  0.68160  Biso   1.000  H
  C482     1.0000 0.24260  0.70390  0.97540  Biso   1.000  C
  C483     1.0000 0.21180  0.69150  0.97450  Biso   1.000  C
  O93      1.0000 0.43986  0.20381  0.06127  Biso   1.000  O
  O94      1.0000 0.40659  0.25200  0.02723  Biso   1.000  O
  O95      1.0000 0.53408  0.33560  0.03163  Biso   1.000  O
  C484     1.0000 0.31114  0.28000  0.02830  Biso   1.000  C
  H277     1.0000 0.30060  0.28370  0.04830  Biso   1.000  H
  C485     1.0000 0.34289  0.27060  0.02860  Biso   1.000  C
  H278     1.0000 0.35390  0.26820  0.04850  Biso   1.000  H
  C486     1.0000 0.61970  0.42154  0.12700  Biso   1.000  C
  C487     1.0000 0.64660  0.43880  0.11713  Biso   1.000  C
  H279     1.0000 0.65610  0.43460  0.09670  Biso   1.000  H
  C488     1.0000 0.65974  0.46230  0.13710  Biso   1.000  C
  H280     1.0000 0.67810  0.47410  0.13030  Biso   1.000  H
  C489     1.0000 0.64590  0.46850  0.16700  Biso   1.000  C
  C490     1.0000 0.61900  0.45120  0.17686  Biso   1.000  C
  H281     1.0000 0.60960  0.45550  0.19730  Biso   1.000  H
  C491     1.0000 0.60590  0.42770  0.15690  Biso   1.000  C
  H282     1.0000 0.58750  0.41590  0.16370  Biso   1.000  H
  C492     1.0000 0.60594  0.39666  0.10562  Biso   1.000  C
  C493     1.0000 0.61099  0.36419  0.11206  Biso   1.000  C
  H283     1.0000 0.62530  0.35790  0.12880  Biso   1.000  H
  C494     1.0000 0.59506  0.34088  0.09407  Biso   1.000  C
  H284     1.0000 0.59850  0.31870  0.09850  Biso   1.000  H
  C495     1.0000 0.57409  0.35003  0.06963  Biso   1.000  C
  C496     1.0000 0.56904  0.38249  0.06318  Biso   1.000  C
  H285     1.0000 0.55470  0.38870  0.04650  Biso   1.000  H
  C497     1.0000 0.58496  0.40581  0.08117  Biso   1.000  C
  H286     1.0000 0.58150  0.42800  0.07680  Biso   1.000  H
  C498     1.0000 0.55530  0.32500  0.05199  Biso   1.000  C
  O96      1.0000 0.55510  0.47460  0.42130  Biso   1.000  O
  C499     1.0000 0.64060  0.47570  0.23840  Biso   1.000  C
  C500     1.0000 0.58830  0.52830  0.36560  Biso   1.000  C
  H287     1.0000 0.59070  0.54680  0.37880  Biso   1.000  H
  C501     1.0000 0.62540  0.47530  0.27070  Biso   1.000  C
  C502     1.0000 0.60010  0.52650  0.32870  Biso   1.000  C
  H288     1.0000 0.60890  0.54490  0.31840  Biso   1.000  H
  C503     1.0000 0.24260  0.29610  0.02460  Biso   1.000  C
  C504     1.0000 0.21180  0.30850  0.02550  Biso   1.000  C
  O97      1.0000 0.56127  0.70381  0.93986  Biso   1.000  O
  O98      1.0000 0.52723  0.75200  0.90659  Biso   1.000  O
  O99      1.0000 0.53163  0.83560  0.03408  Biso   1.000  O
  C505     1.0000 0.52830  0.78000  0.81114  Biso   1.000  C
  H289     1.0000 0.54830  0.78370  0.80060  Biso   1.000  H
  C506     1.0000 0.52860  0.77060  0.84289  Biso   1.000  C
  H290     1.0000 0.54850  0.76820  0.85390  Biso   1.000  H
  C507     1.0000 0.62700  0.92154  0.11970  Biso   1.000  C
  C508     1.0000 0.61713  0.93880  0.14660  Biso   1.000  C
  H291     1.0000 0.59670  0.93460  0.15610  Biso   1.000  H
  C509     1.0000 0.63710  0.96230  0.15974  Biso   1.000  C
  H292     1.0000 0.63030  0.97410  0.17810  Biso   1.000  H
  C510     1.0000 0.66700  0.96850  0.14590  Biso   1.000  C
  C511     1.0000 0.67686  0.95120  0.11900  Biso   1.000  C
  H293     1.0000 0.69730  0.95550  0.10960  Biso   1.000  H
  C512     1.0000 0.65690  0.92770  0.10590  Biso   1.000  C
  H294     1.0000 0.66370  0.91590  0.08750  Biso   1.000  H
  C513     1.0000 0.60562  0.89666  0.10594  Biso   1.000  C
  C514     1.0000 0.61206  0.86419  0.11099  Biso   1.000  C
  H295     1.0000 0.62880  0.85790  0.12530  Biso   1.000  H
  C515     1.0000 0.59407  0.84088  0.09506  Biso   1.000  C
  H296     1.0000 0.59850  0.81870  0.09850  Biso   1.000  H
  C516     1.0000 0.56963  0.85003  0.07409  Biso   1.000  C
  C517     1.0000 0.56318  0.88249  0.06904  Biso   1.000  C
  H297     1.0000 0.54650  0.88870  0.05470  Biso   1.000  H
  C518     1.0000 0.58117  0.90581  0.08496  Biso   1.000  C
  H298     1.0000 0.57680  0.92800  0.08150  Biso   1.000  H
  C519     1.0000 0.55199  0.82500  0.05530  Biso   1.000  C
  O100     1.0000 0.92130  0.97460  0.05510  Biso   1.000  O
  C520     1.0000 0.73840  0.97570  0.14060  Biso   1.000  C
  C521     1.0000 0.86560  0.02830  0.08830  Biso   1.000  C
  H299     1.0000 0.87880  0.04680  0.09070  Biso   1.000  H
  C522     1.0000 0.77070  0.97530  0.12540  Biso   1.000  C
  C523     1.0000 0.82870  0.02650  0.10010  Biso   1.000  C
  H300     1.0000 0.81840  0.04490  0.10890  Biso   1.000  H
  C524     1.0000 0.52460  0.79610  0.74260  Biso   1.000  C
  C525     1.0000 0.52550  0.80850  0.71180  Biso   1.000  C
  O101     1.0000 0.43873  0.29619  0.93986  Biso   1.000  O
  O102     1.0000 0.47277  0.24800  0.90659  Biso   1.000  O
  O103     1.0000 0.46837  0.16440  0.03408  Biso   1.000  O
  C526     1.0000 0.47170  0.22000  0.81114  Biso   1.000  C
  H301     1.0000 0.45170  0.21630  0.80060  Biso   1.000  H
  C527     1.0000 0.47140  0.22940  0.84289  Biso   1.000  C
  H302     1.0000 0.45150  0.23180  0.85390  Biso   1.000  H
  C528     1.0000 0.37300  0.07846  0.11970  Biso   1.000  C
  C529     1.0000 0.38287  0.06120  0.14660  Biso   1.000  C
  H303     1.0000 0.40330  0.06540  0.15610  Biso   1.000  H
  C530     1.0000 0.36290  0.03770  0.15974  Biso   1.000  C
  H304     1.0000 0.36970  0.02590  0.17810  Biso   1.000  H
  C531     1.0000 0.33300  0.03150  0.14590  Biso   1.000  C
  C532     1.0000 0.32314  0.04880  0.11900  Biso   1.000  C
  H305     1.0000 0.30270  0.04450  0.10960  Biso   1.000  H
  C533     1.0000 0.34310  0.07230  0.10590  Biso   1.000  C
  H306     1.0000 0.33630  0.08410  0.08750  Biso   1.000  H
  C534     1.0000 0.39438  0.10334  0.10594  Biso   1.000  C
  C535     1.0000 0.38794  0.13581  0.11099  Biso   1.000  C
  H307     1.0000 0.37120  0.14210  0.12530  Biso   1.000  H
  C536     1.0000 0.40593  0.15912  0.09506  Biso   1.000  C
  H308     1.0000 0.40150  0.18130  0.09850  Biso   1.000  H
  C537     1.0000 0.43037  0.14997  0.07409  Biso   1.000  C
  C538     1.0000 0.43682  0.11751  0.06904  Biso   1.000  C
  H309     1.0000 0.45350  0.11130  0.05470  Biso   1.000  H
  C539     1.0000 0.41883  0.09419  0.08496  Biso   1.000  C
  H310     1.0000 0.42320  0.07200  0.08150  Biso   1.000  H
  C540     1.0000 0.44801  0.17500  0.05530  Biso   1.000  C
  O104     1.0000 0.07870  0.02540  0.05510  Biso   1.000  O
  C541     1.0000 0.26160  0.02430  0.14060  Biso   1.000  C
  C542     1.0000 0.13440  0.97170  0.08830  Biso   1.000  C
  H311     1.0000 0.12120  0.95320  0.09070  Biso   1.000  H
  C543     1.0000 0.22930  0.02470  0.12540  Biso   1.000  C
  C544     1.0000 0.17130  0.97350  0.10010  Biso   1.000  C
  H312     1.0000 0.18160  0.95510  0.10890  Biso   1.000  H
  C545     1.0000 0.47540  0.20390  0.74260  Biso   1.000  C
  C546     1.0000 0.47450  0.19150  0.71180  Biso   1.000  C
  O105     1.0000 0.43873  0.70381  0.06014  Biso   1.000  O
  O106     1.0000 0.47277  0.75200  0.09341  Biso   1.000  O
  O107     1.0000 0.46837  0.83560  0.96592  Biso   1.000  O
  C547     1.0000 0.47170  0.78000  0.18886  Biso   1.000  C
  H313     1.0000 0.45170  0.78370  0.19940  Biso   1.000  H
  C548     1.0000 0.47140  0.77060  0.15711  Biso   1.000  C
  H314     1.0000 0.45150  0.76820  0.14610  Biso   1.000  H
  C549     1.0000 0.37300  0.92154  0.88030  Biso   1.000  C
  C550     1.0000 0.38287  0.93880  0.85340  Biso   1.000  C
  H315     1.0000 0.40330  0.93460  0.84390  Biso   1.000  H
  C551     1.0000 0.36290  0.96230  0.84026  Biso   1.000  C
  H316     1.0000 0.36970  0.97410  0.82190  Biso   1.000  H
  C552     1.0000 0.33300  0.96850  0.85410  Biso   1.000  C
  C553     1.0000 0.32314  0.95120  0.88100  Biso   1.000  C
  H317     1.0000 0.30270  0.95550  0.89040  Biso   1.000  H
  C554     1.0000 0.34310  0.92770  0.89410  Biso   1.000  C
  H318     1.0000 0.33630  0.91590  0.91250  Biso   1.000  H
  C555     1.0000 0.39438  0.89666  0.89406  Biso   1.000  C
  C556     1.0000 0.38794  0.86419  0.88901  Biso   1.000  C
  H319     1.0000 0.37120  0.85790  0.87470  Biso   1.000  H
  C557     1.0000 0.40593  0.84088  0.90494  Biso   1.000  C
  H320     1.0000 0.40150  0.81870  0.90150  Biso   1.000  H
  C558     1.0000 0.43037  0.85003  0.92591  Biso   1.000  C
  C559     1.0000 0.43682  0.88249  0.93096  Biso   1.000  C
  H321     1.0000 0.45350  0.88870  0.94530  Biso   1.000  H
  C560     1.0000 0.41883  0.90581  0.91504  Biso   1.000  C
  H322     1.0000 0.42320  0.92800  0.91850  Biso   1.000  H
  C561     1.0000 0.44801  0.82500  0.94470  Biso   1.000  C
  O108     1.0000 0.07870  0.97460  0.94490  Biso   1.000  O
  C562     1.0000 0.26160  0.97570  0.85940  Biso   1.000  C
  C563     1.0000 0.13440  0.02830  0.91170  Biso   1.000  C
  H323     1.0000 0.12120  0.04680  0.90930  Biso   1.000  H
  C564     1.0000 0.22930  0.97530  0.87460  Biso   1.000  C
  C565     1.0000 0.17130  0.02650  0.89990  Biso   1.000  C
  H324     1.0000 0.18160  0.04490  0.89110  Biso   1.000  H
  C566     1.0000 0.47540  0.79610  0.25740  Biso   1.000  C
  C567     1.0000 0.47450  0.80850  0.28820  Biso   1.000  C
  O109     1.0000 0.56127  0.29619  0.06014  Biso   1.000  O
  O110     1.0000 0.52723  0.24800  0.09341  Biso   1.000  O
  O111     1.0000 0.53163  0.16440  0.96592  Biso   1.000  O
  C568     1.0000 0.52830  0.22000  0.18886  Biso   1.000  C
  H325     1.0000 0.54830  0.21630  0.19940  Biso   1.000  H
  C569     1.0000 0.52860  0.22940  0.15711  Biso   1.000  C
  H326     1.0000 0.54850  0.23180  0.14610  Biso   1.000  H
  C570     1.0000 0.62700  0.07846  0.88030  Biso   1.000  C
  C571     1.0000 0.61713  0.06120  0.85340  Biso   1.000  C
  H327     1.0000 0.59670  0.06540  0.84390  Biso   1.000  H
  C572     1.0000 0.63710  0.03770  0.84026  Biso   1.000  C
  H328     1.0000 0.63030  0.02590  0.82190  Biso   1.000  H
  C573     1.0000 0.66700  0.03150  0.85410  Biso   1.000  C
  C574     1.0000 0.67686  0.04880  0.88100  Biso   1.000  C
  H329     1.0000 0.69730  0.04450  0.89040  Biso   1.000  H
  C575     1.0000 0.65690  0.07230  0.89410  Biso   1.000  C
  H330     1.0000 0.66370  0.08410  0.91250  Biso   1.000  H
  C576     1.0000 0.60562  0.10334  0.89406  Biso   1.000  C
  C577     1.0000 0.61206  0.13581  0.88901  Biso   1.000  C
  H331     1.0000 0.62880  0.14210  0.87470  Biso   1.000  H
  C578     1.0000 0.59407  0.15912  0.90494  Biso   1.000  C
  H332     1.0000 0.59850  0.18130  0.90150  Biso   1.000  H
  C579     1.0000 0.56963  0.14997  0.92591  Biso   1.000  C
  C580     1.0000 0.56318  0.11751  0.93096  Biso   1.000  C
  H333     1.0000 0.54650  0.11130  0.94530  Biso   1.000  H
  C581     1.0000 0.58117  0.09419  0.91504  Biso   1.000  C
  H334     1.0000 0.57680  0.07200  0.91850  Biso   1.000  H
  C582     1.0000 0.55199  0.17500  0.94470  Biso   1.000  C
  O112     1.0000 0.92130  0.02540  0.94490  Biso   1.000  O
  C583     1.0000 0.73840  0.02430  0.85940  Biso   1.000  C
  C584     1.0000 0.86560  0.97170  0.91170  Biso   1.000  C
  H335     1.0000 0.87880  0.95320  0.90930  Biso   1.000  H
  C585     1.0000 0.77070  0.02470  0.87460  Biso   1.000  C
  C586     1.0000 0.82870  0.97350  0.89990  Biso   1.000  C
  H336     1.0000 0.81840  0.95510  0.89110  Biso   1.000  H
  C587     1.0000 0.52460  0.20390  0.25740  Biso   1.000  C
  C588     1.0000 0.52550  0.19150  0.28820  Biso   1.000  C
  O113     1.0000 0.93986  0.56127  0.70381  Biso   1.000  O
  O114     1.0000 0.90659  0.52723  0.75200  Biso   1.000  O
  O115     1.0000 0.03408  0.53163  0.83560  Biso   1.000  O
  C589     1.0000 0.81114  0.52830  0.78000  Biso   1.000  C
  H337     1.0000 0.80060  0.54830  0.78370  Biso   1.000  H
  C590     1.0000 0.84289  0.52860  0.77060  Biso   1.000  C
  H338     1.0000 0.85390  0.54850  0.76820  Biso   1.000  H
  C591     1.0000 0.11970  0.62700  0.92154  Biso   1.000  C
  C592     1.0000 0.14660  0.61713  0.93880  Biso   1.000  C
  H339     1.0000 0.15610  0.59670  0.93460  Biso   1.000  H
  C593     1.0000 0.15974  0.63710  0.96230  Biso   1.000  C
  H340     1.0000 0.17810  0.63030  0.97410  Biso   1.000  H
  C594     1.0000 0.14590  0.66700  0.96850  Biso   1.000  C
  C595     1.0000 0.11900  0.67686  0.95120  Biso   1.000  C
  H341     1.0000 0.10960  0.69730  0.95550  Biso   1.000  H
  C596     1.0000 0.10590  0.65690  0.92770  Biso   1.000  C
  H342     1.0000 0.08750  0.66370  0.91590  Biso   1.000  H
  C597     1.0000 0.10594  0.60562  0.89666  Biso   1.000  C
  C598     1.0000 0.11099  0.61206  0.86419  Biso   1.000  C
  H343     1.0000 0.12530  0.62880  0.85790  Biso   1.000  H
  C599     1.0000 0.09506  0.59407  0.84088  Biso   1.000  C
  H344     1.0000 0.09850  0.59850  0.81870  Biso   1.000  H
  C600     1.0000 0.07409  0.56963  0.85003  Biso   1.000  C
  C601     1.0000 0.06904  0.56318  0.88249  Biso   1.000  C
  H345     1.0000 0.05470  0.54650  0.88870  Biso   1.000  H
  C602     1.0000 0.08496  0.58117  0.90581  Biso   1.000  C
  H346     1.0000 0.08150  0.57680  0.92800  Biso   1.000  H
  C603     1.0000 0.05530  0.55199  0.82500  Biso   1.000  C
  O116     1.0000 0.05510  0.92130  0.97460  Biso   1.000  O
  C604     1.0000 0.14060  0.73840  0.97570  Biso   1.000  C
  C605     1.0000 0.08830  0.86560  0.02830  Biso   1.000  C
  H347     1.0000 0.09070  0.87880  0.04680  Biso   1.000  H
  C606     1.0000 0.12540  0.77070  0.97530  Biso   1.000  C
  C607     1.0000 0.10010  0.82870  0.02650  Biso   1.000  C
  H348     1.0000 0.10890  0.81840  0.04490  Biso   1.000  H
  C608     1.0000 0.74260  0.52460  0.79610  Biso   1.000  C
  C609     1.0000 0.71180  0.52550  0.80850  Biso   1.000  C
  O117     1.0000 0.93986  0.43873  0.29619  Biso   1.000  O
  O118     1.0000 0.90659  0.47277  0.24800  Biso   1.000  O
  O119     1.0000 0.03408  0.46837  0.16440  Biso   1.000  O
  C610     1.0000 0.81114  0.47170  0.22000  Biso   1.000  C
  H349     1.0000 0.80060  0.45170  0.21630  Biso   1.000  H
  C611     1.0000 0.84289  0.47140  0.22940  Biso   1.000  C
  H350     1.0000 0.85390  0.45150  0.23180  Biso   1.000  H
  C612     1.0000 0.11970  0.37300  0.07846  Biso   1.000  C
  C613     1.0000 0.14660  0.38287  0.06120  Biso   1.000  C
  H351     1.0000 0.15610  0.40330  0.06540  Biso   1.000  H
  C614     1.0000 0.15974  0.36290  0.03770  Biso   1.000  C
  H352     1.0000 0.17810  0.36970  0.02590  Biso   1.000  H
  C615     1.0000 0.14590  0.33300  0.03150  Biso   1.000  C
  C616     1.0000 0.11900  0.32314  0.04880  Biso   1.000  C
  H353     1.0000 0.10960  0.30270  0.04450  Biso   1.000  H
  C617     1.0000 0.10590  0.34310  0.07230  Biso   1.000  C
  H354     1.0000 0.08750  0.33630  0.08410  Biso   1.000  H
  C618     1.0000 0.10594  0.39438  0.10334  Biso   1.000  C
  C619     1.0000 0.11099  0.38794  0.13581  Biso   1.000  C
  H355     1.0000 0.12530  0.37120  0.14210  Biso   1.000  H
  C620     1.0000 0.09506  0.40593  0.15912  Biso   1.000  C
  H356     1.0000 0.09850  0.40150  0.18130  Biso   1.000  H
  C621     1.0000 0.07409  0.43037  0.14997  Biso   1.000  C
  C622     1.0000 0.06904  0.43682  0.11751  Biso   1.000  C
  H357     1.0000 0.05470  0.45350  0.11130  Biso   1.000  H
  C623     1.0000 0.08496  0.41883  0.09419  Biso   1.000  C
  H358     1.0000 0.08150  0.42320  0.07200  Biso   1.000  H
  C624     1.0000 0.05530  0.44801  0.17500  Biso   1.000  C
  O120     1.0000 0.05510  0.07870  0.02540  Biso   1.000  O
  C625     1.0000 0.14060  0.26160  0.02430  Biso   1.000  C
  C626     1.0000 0.08830  0.13440  0.97170  Biso   1.000  C
  H359     1.0000 0.09070  0.12120  0.95320  Biso   1.000  H
  C627     1.0000 0.12540  0.22930  0.02470  Biso   1.000  C
  C628     1.0000 0.10010  0.17130  0.97350  Biso   1.000  C
  H360     1.0000 0.10890  0.18160  0.95510  Biso   1.000  H
  C629     1.0000 0.74260  0.47540  0.20390  Biso   1.000  C
  C630     1.0000 0.71180  0.47450  0.19150  Biso   1.000  C
  O121     1.0000 0.06014  0.43873  0.70381  Biso   1.000  O
  O122     1.0000 0.09341  0.47277  0.75200  Biso   1.000  O
  O123     1.0000 0.96592  0.46837  0.83560  Biso   1.000  O
  C631     1.0000 0.18886  0.47170  0.78000  Biso   1.000  C
  H361     1.0000 0.19940  0.45170  0.78370  Biso   1.000  H
  C632     1.0000 0.15711  0.47140  0.77060  Biso   1.000  C
  H362     1.0000 0.14610  0.45150  0.76820  Biso   1.000  H
  C633     1.0000 0.88030  0.37300  0.92154  Biso   1.000  C
  C634     1.0000 0.85340  0.38287  0.93880  Biso   1.000  C
  H363     1.0000 0.84390  0.40330  0.93460  Biso   1.000  H
  C635     1.0000 0.84026  0.36290  0.96230  Biso   1.000  C
  H364     1.0000 0.82190  0.36970  0.97410  Biso   1.000  H
  C636     1.0000 0.85410  0.33300  0.96850  Biso   1.000  C
  C637     1.0000 0.88100  0.32314  0.95120  Biso   1.000  C
  H365     1.0000 0.89040  0.30270  0.95550  Biso   1.000  H
  C638     1.0000 0.89410  0.34310  0.92770  Biso   1.000  C
  H366     1.0000 0.91250  0.33630  0.91590  Biso   1.000  H
  C639     1.0000 0.89406  0.39438  0.89666  Biso   1.000  C
  C640     1.0000 0.88901  0.38794  0.86419  Biso   1.000  C
  H367     1.0000 0.87470  0.37120  0.85790  Biso   1.000  H
  C641     1.0000 0.90494  0.40593  0.84088  Biso   1.000  C
  H368     1.0000 0.90150  0.40150  0.81870  Biso   1.000  H
  C642     1.0000 0.92591  0.43037  0.85003  Biso   1.000  C
  C643     1.0000 0.93096  0.43682  0.88249  Biso   1.000  C
  H369     1.0000 0.94530  0.45350  0.88870  Biso   1.000  H
  C644     1.0000 0.91504  0.41883  0.90581  Biso   1.000  C
  H370     1.0000 0.91850  0.42320  0.92800  Biso   1.000  H
  C645     1.0000 0.94470  0.44801  0.82500  Biso   1.000  C
  O124     1.0000 0.94490  0.07870  0.97460  Biso   1.000  O
  C646     1.0000 0.85940  0.26160  0.97570  Biso   1.000  C
  C647     1.0000 0.91170  0.13440  0.02830  Biso   1.000  C
  H371     1.0000 0.90930  0.12120  0.04680  Biso   1.000  H
  C648     1.0000 0.87460  0.22930  0.97530  Biso   1.000  C
  C649     1.0000 0.89990  0.17130  0.02650  Biso   1.000  C
  H372     1.0000 0.89110  0.18160  0.04490  Biso   1.000  H
  C650     1.0000 0.25740  0.47540  0.79610  Biso   1.000  C
  C651     1.0000 0.28820  0.47450  0.80850  Biso   1.000  C
  O125     1.0000 0.06014  0.56127  0.29619  Biso   1.000  O
  O126     1.0000 0.09341  0.52723  0.24800  Biso   1.000  O
  O127     1.0000 0.96592  0.53163  0.16440  Biso   1.000  O
  C652     1.0000 0.18886  0.52830  0.22000  Biso   1.000  C
  H373     1.0000 0.19940  0.54830  0.21630  Biso   1.000  H
  C653     1.0000 0.15711  0.52860  0.22940  Biso   1.000  C
  H374     1.0000 0.14610  0.54850  0.23180  Biso   1.000  H
  C654     1.0000 0.88030  0.62700  0.07846  Biso   1.000  C
  C655     1.0000 0.85340  0.61713  0.06120  Biso   1.000  C
  H375     1.0000 0.84390  0.59670  0.06540  Biso   1.000  H
  C656     1.0000 0.84026  0.63710  0.03770  Biso   1.000  C
  H376     1.0000 0.82190  0.63030  0.02590  Biso   1.000  H
  C657     1.0000 0.85410  0.66700  0.03150  Biso   1.000  C
  C658     1.0000 0.88100  0.67686  0.04880  Biso   1.000  C
  H377     1.0000 0.89040  0.69730  0.04450  Biso   1.000  H
  C659     1.0000 0.89410  0.65690  0.07230  Biso   1.000  C
  H378     1.0000 0.91250  0.66370  0.08410  Biso   1.000  H
  C660     1.0000 0.89406  0.60562  0.10334  Biso   1.000  C
  C661     1.0000 0.88901  0.61206  0.13581  Biso   1.000  C
  H379     1.0000 0.87470  0.62880  0.14210  Biso   1.000  H
  C662     1.0000 0.90494  0.59407  0.15912  Biso   1.000  C
  H380     1.0000 0.90150  0.59850  0.18130  Biso   1.000  H
  C663     1.0000 0.92591  0.56963  0.14997  Biso   1.000  C
  C664     1.0000 0.93096  0.56318  0.11751  Biso   1.000  C
  H381     1.0000 0.94530  0.54650  0.11130  Biso   1.000  H
  C665     1.0000 0.91504  0.58117  0.09419  Biso   1.000  C
  H382     1.0000 0.91850  0.57680  0.07200  Biso   1.000  H
  C666     1.0000 0.94470  0.55199  0.17500  Biso   1.000  C
  O128     1.0000 0.94490  0.92130  0.02540  Biso   1.000  O
  C667     1.0000 0.85940  0.73840  0.02430  Biso   1.000  C
  C668     1.0000 0.91170  0.86560  0.97170  Biso   1.000  C
  H383     1.0000 0.90930  0.87880  0.95320  Biso   1.000  H
  C669     1.0000 0.87460  0.77070  0.02470  Biso   1.000  C
  C670     1.0000 0.89990  0.82870  0.97350  Biso   1.000  C
  H384     1.0000 0.89110  0.81840  0.95510  Biso   1.000  H
  C671     1.0000 0.25740  0.52460  0.20390  Biso   1.000  C
  C672     1.0000 0.28820  0.52550  0.19150  Biso   1.000  C
  O129     1.0000 0.70381  0.93986  0.56127  Biso   1.000  O
  O130     1.0000 0.75200  0.90659  0.52723  Biso   1.000  O
  O131     1.0000 0.83560  0.03408  0.53163  Biso   1.000  O
  C673     1.0000 0.78000  0.81114  0.52830  Biso   1.000  C
  H385     1.0000 0.78370  0.80060  0.54830  Biso   1.000  H
  C674     1.0000 0.77060  0.84289  0.52860  Biso   1.000  C
  H386     1.0000 0.76820  0.85390  0.54850  Biso   1.000  H
  C675     1.0000 0.92154  0.11970  0.62700  Biso   1.000  C
  C676     1.0000 0.93880  0.14660  0.61713  Biso   1.000  C
  H387     1.0000 0.93460  0.15610  0.59670  Biso   1.000  H
  C677     1.0000 0.96230  0.15974  0.63710  Biso   1.000  C
  H388     1.0000 0.97410  0.17810  0.63030  Biso   1.000  H
  C678     1.0000 0.96850  0.14590  0.66700  Biso   1.000  C
  C679     1.0000 0.95120  0.11900  0.67686  Biso   1.000  C
  H389     1.0000 0.95550  0.10960  0.69730  Biso   1.000  H
  C680     1.0000 0.92770  0.10590  0.65690  Biso   1.000  C
  H390     1.0000 0.91590  0.08750  0.66370  Biso   1.000  H
  C681     1.0000 0.89666  0.10594  0.60562  Biso   1.000  C
  C682     1.0000 0.86419  0.11099  0.61206  Biso   1.000  C
  H391     1.0000 0.85790  0.12530  0.62880  Biso   1.000  H
  C683     1.0000 0.84088  0.09506  0.59407  Biso   1.000  C
  H392     1.0000 0.81870  0.09850  0.59850  Biso   1.000  H
  C684     1.0000 0.85003  0.07409  0.56963  Biso   1.000  C
  C685     1.0000 0.88249  0.06904  0.56318  Biso   1.000  C
  H393     1.0000 0.88870  0.05470  0.54650  Biso   1.000  H
  C686     1.0000 0.90581  0.08496  0.58117  Biso   1.000  C
  H394     1.0000 0.92800  0.08150  0.57680  Biso   1.000  H
  C687     1.0000 0.82500  0.05530  0.55199  Biso   1.000  C
  O132     1.0000 0.97460  0.05510  0.92130  Biso   1.000  O
  C688     1.0000 0.97570  0.14060  0.73840  Biso   1.000  C
  C689     1.0000 0.02830  0.08830  0.86560  Biso   1.000  C
  H395     1.0000 0.04680  0.09070  0.87880  Biso   1.000  H
  C690     1.0000 0.97530  0.12540  0.77070  Biso   1.000  C
  C691     1.0000 0.02650  0.10010  0.82870  Biso   1.000  C
  H396     1.0000 0.04490  0.10890  0.81840  Biso   1.000  H
  C692     1.0000 0.79610  0.74260  0.52460  Biso   1.000  C
  C693     1.0000 0.80850  0.71180  0.52550  Biso   1.000  C
  O133     1.0000 0.29619  0.93986  0.43873  Biso   1.000  O
  O134     1.0000 0.24800  0.90659  0.47277  Biso   1.000  O
  O135     1.0000 0.16440  0.03408  0.46837  Biso   1.000  O
  C694     1.0000 0.22000  0.81114  0.47170  Biso   1.000  C
  H397     1.0000 0.21630  0.80060  0.45170  Biso   1.000  H
  C695     1.0000 0.22940  0.84289  0.47140  Biso   1.000  C
  H398     1.0000 0.23180  0.85390  0.45150  Biso   1.000  H
  C696     1.0000 0.07846  0.11970  0.37300  Biso   1.000  C
  C697     1.0000 0.06120  0.14660  0.38287  Biso   1.000  C
  H399     1.0000 0.06540  0.15610  0.40330  Biso   1.000  H
  C698     1.0000 0.03770  0.15974  0.36290  Biso   1.000  C
  H400     1.0000 0.02590  0.17810  0.36970  Biso   1.000  H
  C699     1.0000 0.03150  0.14590  0.33300  Biso   1.000  C
  C700     1.0000 0.04880  0.11900  0.32314  Biso   1.000  C
  H401     1.0000 0.04450  0.10960  0.30270  Biso   1.000  H
  C701     1.0000 0.07230  0.10590  0.34310  Biso   1.000  C
  H402     1.0000 0.08410  0.08750  0.33630  Biso   1.000  H
  C702     1.0000 0.10334  0.10594  0.39438  Biso   1.000  C
  C703     1.0000 0.13581  0.11099  0.38794  Biso   1.000  C
  H403     1.0000 0.14210  0.12530  0.37120  Biso   1.000  H
  C704     1.0000 0.15912  0.09506  0.40593  Biso   1.000  C
  H404     1.0000 0.18130  0.09850  0.40150  Biso   1.000  H
  C705     1.0000 0.14997  0.07409  0.43037  Biso   1.000  C
  C706     1.0000 0.11751  0.06904  0.43682  Biso   1.000  C
  H405     1.0000 0.11130  0.05470  0.45350  Biso   1.000  H
  C707     1.0000 0.09419  0.08496  0.41883  Biso   1.000  C
  H406     1.0000 0.07200  0.08150  0.42320  Biso   1.000  H
  C708     1.0000 0.17500  0.05530  0.44801  Biso   1.000  C
  O136     1.0000 0.02540  0.05510  0.07870  Biso   1.000  O
  C709     1.0000 0.02430  0.14060  0.26160  Biso   1.000  C
  C710     1.0000 0.97170  0.08830  0.13440  Biso   1.000  C
  H407     1.0000 0.95320  0.09070  0.12120  Biso   1.000  H
  C711     1.0000 0.02470  0.12540  0.22930  Biso   1.000  C
  C712     1.0000 0.97350  0.10010  0.17130  Biso   1.000  C
  H408     1.0000 0.95510  0.10890  0.18160  Biso   1.000  H
  C713     1.0000 0.20390  0.74260  0.47540  Biso   1.000  C
  C714     1.0000 0.19150  0.71180  0.47450  Biso   1.000  C
  O137     1.0000 0.70381  0.06014  0.43873  Biso   1.000  O
  O138     1.0000 0.75200  0.09341  0.47277  Biso   1.000  O
  O139     1.0000 0.83560  0.96592  0.46837  Biso   1.000  O
  C715     1.0000 0.78000  0.18886  0.47170  Biso   1.000  C
  H409     1.0000 0.78370  0.19940  0.45170  Biso   1.000  H
  C716     1.0000 0.77060  0.15711  0.47140  Biso   1.000  C
  H410     1.0000 0.76820  0.14610  0.45150  Biso   1.000  H
  C717     1.0000 0.92154  0.88030  0.37300  Biso   1.000  C
  C718     1.0000 0.93880  0.85340  0.38287  Biso   1.000  C
  H411     1.0000 0.93460  0.84390  0.40330  Biso   1.000  H
  C719     1.0000 0.96230  0.84026  0.36290  Biso   1.000  C
  H412     1.0000 0.97410  0.82190  0.36970  Biso   1.000  H
  C720     1.0000 0.96850  0.85410  0.33300  Biso   1.000  C
  C721     1.0000 0.95120  0.88100  0.32314  Biso   1.000  C
  H413     1.0000 0.95550  0.89040  0.30270  Biso   1.000  H
  C722     1.0000 0.92770  0.89410  0.34310  Biso   1.000  C
  H414     1.0000 0.91590  0.91250  0.33630  Biso   1.000  H
  C723     1.0000 0.89666  0.89406  0.39438  Biso   1.000  C
  C724     1.0000 0.86419  0.88901  0.38794  Biso   1.000  C
  H415     1.0000 0.85790  0.87470  0.37120  Biso   1.000  H
  C725     1.0000 0.84088  0.90494  0.40593  Biso   1.000  C
  H416     1.0000 0.81870  0.90150  0.40150  Biso   1.000  H
  C726     1.0000 0.85003  0.92591  0.43037  Biso   1.000  C
  C727     1.0000 0.88249  0.93096  0.43682  Biso   1.000  C
  H417     1.0000 0.88870  0.94530  0.45350  Biso   1.000  H
  C728     1.0000 0.90581  0.91504  0.41883  Biso   1.000  C
  H418     1.0000 0.92800  0.91850  0.42320  Biso   1.000  H
  C729     1.0000 0.82500  0.94470  0.44801  Biso   1.000  C
  O140     1.0000 0.97460  0.94490  0.07870  Biso   1.000  O
  C730     1.0000 0.97570  0.85940  0.26160  Biso   1.000  C
  C731     1.0000 0.02830  0.91170  0.13440  Biso   1.000  C
  H419     1.0000 0.04680  0.90930  0.12120  Biso   1.000  H
  C732     1.0000 0.97530  0.87460  0.22930  Biso   1.000  C
  C733     1.0000 0.02650  0.89990  0.17130  Biso   1.000  C
  H420     1.0000 0.04490  0.89110  0.18160  Biso   1.000  H
  C734     1.0000 0.79610  0.25740  0.47540  Biso   1.000  C
  C735     1.0000 0.80850  0.28820  0.47450  Biso   1.000  C
  O141     1.0000 0.29619  0.06014  0.56127  Biso   1.000  O
  O142     1.0000 0.24800  0.09341  0.52723  Biso   1.000  O
  O143     1.0000 0.16440  0.96592  0.53163  Biso   1.000  O
  C736     1.0000 0.22000  0.18886  0.52830  Biso   1.000  C
  H421     1.0000 0.21630  0.19940  0.54830  Biso   1.000  H
  C737     1.0000 0.22940  0.15711  0.52860  Biso   1.000  C
  H422     1.0000 0.23180  0.14610  0.54850  Biso   1.000  H
  C738     1.0000 0.07846  0.88030  0.62700  Biso   1.000  C
  C739     1.0000 0.06120  0.85340  0.61713  Biso   1.000  C
  H423     1.0000 0.06540  0.84390  0.59670  Biso   1.000  H
  C740     1.0000 0.03770  0.84026  0.63710  Biso   1.000  C
  H424     1.0000 0.02590  0.82190  0.63030  Biso   1.000  H
  C741     1.0000 0.03150  0.85410  0.66700  Biso   1.000  C
  C742     1.0000 0.04880  0.88100  0.67686  Biso   1.000  C
  H425     1.0000 0.04450  0.89040  0.69730  Biso   1.000  H
  C743     1.0000 0.07230  0.89410  0.65690  Biso   1.000  C
  H426     1.0000 0.08410  0.91250  0.66370  Biso   1.000  H
  C744     1.0000 0.10334  0.89406  0.60562  Biso   1.000  C
  C745     1.0000 0.13581  0.88901  0.61206  Biso   1.000  C
  H427     1.0000 0.14210  0.87470  0.62880  Biso   1.000  H
  C746     1.0000 0.15912  0.90494  0.59407  Biso   1.000  C
  H428     1.0000 0.18130  0.90150  0.59850  Biso   1.000  H
  C747     1.0000 0.14997  0.92591  0.56963  Biso   1.000  C
  C748     1.0000 0.11751  0.93096  0.56318  Biso   1.000  C
  H429     1.0000 0.11130  0.94530  0.54650  Biso   1.000  H
  C749     1.0000 0.09419  0.91504  0.58117  Biso   1.000  C
  H430     1.0000 0.07200  0.91850  0.57680  Biso   1.000  H
  C750     1.0000 0.17500  0.94470  0.55199  Biso   1.000  C
  O144     1.0000 0.02540  0.94490  0.92130  Biso   1.000  O
  C751     1.0000 0.02430  0.85940  0.73840  Biso   1.000  C
  C752     1.0000 0.97170  0.91170  0.86560  Biso   1.000  C
  H431     1.0000 0.95320  0.90930  0.87880  Biso   1.000  H
  C753     1.0000 0.02470  0.87460  0.77070  Biso   1.000  C
  C754     1.0000 0.97350  0.89990  0.82870  Biso   1.000  C
  H432     1.0000 0.95510  0.89110  0.81840  Biso   1.000  H
  C755     1.0000 0.20390  0.25740  0.52460  Biso   1.000  C
  C756     1.0000 0.19150  0.28820  0.52550  Biso   1.000  C
  O145     1.0000 0.20381  0.06127  0.56014  Biso   1.000  O
  O146     1.0000 0.25200  0.02723  0.59341  Biso   1.000  O
  O147     1.0000 0.33560  0.03163  0.46592  Biso   1.000  O
  C757     1.0000 0.28000  0.02830  0.68886  Biso   1.000  C
  H433     1.0000 0.28370  0.04830  0.69940  Biso   1.000  H
  C758     1.0000 0.27060  0.02860  0.65711  Biso   1.000  C
  H434     1.0000 0.26820  0.04850  0.64610  Biso   1.000  H
  C759     1.0000 0.42154  0.12700  0.38030  Biso   1.000  C
  C760     1.0000 0.43880  0.11713  0.35340  Biso   1.000  C
  H435     1.0000 0.43460  0.09670  0.34390  Biso   1.000  H
  C761     1.0000 0.46230  0.13710  0.34026  Biso   1.000  C
  H436     1.0000 0.47410  0.13030  0.32190  Biso   1.000  H
  C762     1.0000 0.46850  0.16700  0.35410  Biso   1.000  C
  C763     1.0000 0.45120  0.17686  0.38100  Biso   1.000  C
  H437     1.0000 0.45550  0.19730  0.39040  Biso   1.000  H
  C764     1.0000 0.42770  0.15690  0.39410  Biso   1.000  C
  H438     1.0000 0.41590  0.16370  0.41250  Biso   1.000  H
  C765     1.0000 0.39666  0.10562  0.39406  Biso   1.000  C
  C766     1.0000 0.36419  0.11206  0.38901  Biso   1.000  C
  H439     1.0000 0.35790  0.12880  0.37470  Biso   1.000  H
  C767     1.0000 0.34088  0.09407  0.40494  Biso   1.000  C
  H440     1.0000 0.31870  0.09850  0.40150  Biso   1.000  H
  C768     1.0000 0.35003  0.06963  0.42591  Biso   1.000  C
  C769     1.0000 0.38249  0.06318  0.43096  Biso   1.000  C
  H441     1.0000 0.38870  0.04650  0.44530  Biso   1.000  H
  C770     1.0000 0.40581  0.08117  0.41504  Biso   1.000  C
  H442     1.0000 0.42800  0.07680  0.41850  Biso   1.000  H
  C771     1.0000 0.32500  0.05199  0.44470  Biso   1.000  C
  O148     1.0000 0.47460  0.42130  0.44490  Biso   1.000  O
  C772     1.0000 0.47570  0.23840  0.35940  Biso   1.000  C
  C773     1.0000 0.52830  0.36560  0.41170  Biso   1.000  C
  H443     1.0000 0.54680  0.37880  0.40930  Biso   1.000  H
  C774     1.0000 0.47530  0.27070  0.37460  Biso   1.000  C
  C775     1.0000 0.52650  0.32870  0.39990  Biso   1.000  C
  H444     1.0000 0.54490  0.31840  0.39110  Biso   1.000  H
  C776     1.0000 0.29610  0.02460  0.75740  Biso   1.000  C
  C777     1.0000 0.30850  0.02550  0.78820  Biso   1.000  C
  O149     1.0000 0.79619  0.93873  0.56014  Biso   1.000  O
  O150     1.0000 0.74800  0.97277  0.59341  Biso   1.000  O
  O151     1.0000 0.66440  0.96837  0.46592  Biso   1.000  O
  C778     1.0000 0.72000  0.97170  0.68886  Biso   1.000  C
  H445     1.0000 0.71630  0.95170  0.69940  Biso   1.000  H
  C779     1.0000 0.72940  0.97140  0.65711  Biso   1.000  C
  H446     1.0000 0.73180  0.95150  0.64610  Biso   1.000  H
  C780     1.0000 0.57846  0.87300  0.38030  Biso   1.000  C
  C781     1.0000 0.56120  0.88287  0.35340  Biso   1.000  C
  H447     1.0000 0.56540  0.90330  0.34390  Biso   1.000  H
  C782     1.0000 0.53770  0.86290  0.34026  Biso   1.000  C
  H448     1.0000 0.52590  0.86970  0.32190  Biso   1.000  H
  C783     1.0000 0.53150  0.83300  0.35410  Biso   1.000  C
  C784     1.0000 0.54880  0.82314  0.38100  Biso   1.000  C
  H449     1.0000 0.54450  0.80270  0.39040  Biso   1.000  H
  C785     1.0000 0.57230  0.84310  0.39410  Biso   1.000  C
  H450     1.0000 0.58410  0.83630  0.41250  Biso   1.000  H
  C786     1.0000 0.60334  0.89438  0.39406  Biso   1.000  C
  C787     1.0000 0.63581  0.88794  0.38901  Biso   1.000  C
  H451     1.0000 0.64210  0.87120  0.37470  Biso   1.000  H
  C788     1.0000 0.65912  0.90593  0.40494  Biso   1.000  C
  H452     1.0000 0.68130  0.90150  0.40150  Biso   1.000  H
  C789     1.0000 0.64997  0.93037  0.42591  Biso   1.000  C
  C790     1.0000 0.61751  0.93682  0.43096  Biso   1.000  C
  H453     1.0000 0.61130  0.95350  0.44530  Biso   1.000  H
  C791     1.0000 0.59419  0.91883  0.41504  Biso   1.000  C
  H454     1.0000 0.57200  0.92320  0.41850  Biso   1.000  H
  C792     1.0000 0.67500  0.94801  0.44470  Biso   1.000  C
  O152     1.0000 0.52540  0.57870  0.44490  Biso   1.000  O
  C793     1.0000 0.52430  0.76160  0.35940  Biso   1.000  C
  C794     1.0000 0.47170  0.63440  0.41170  Biso   1.000  C
  H455     1.0000 0.45320  0.62120  0.40930  Biso   1.000  H
  C795     1.0000 0.52470  0.72930  0.37460  Biso   1.000  C
  C796     1.0000 0.47350  0.67130  0.39990  Biso   1.000  C
  H456     1.0000 0.45510  0.68160  0.39110  Biso   1.000  H
  C797     1.0000 0.70390  0.97540  0.75740  Biso   1.000  C
  C798     1.0000 0.69150  0.97450  0.78820  Biso   1.000  C
  O153     1.0000 0.20381  0.93873  0.43986  Biso   1.000  O
  O154     1.0000 0.25200  0.97277  0.40659  Biso   1.000  O
  O155     1.0000 0.33560  0.96837  0.53408  Biso   1.000  O
  C799     1.0000 0.28000  0.97170  0.31114  Biso   1.000  C
  H457     1.0000 0.28370  0.95170  0.30060  Biso   1.000  H
  C800     1.0000 0.27060  0.97140  0.34289  Biso   1.000  C
  H458     1.0000 0.26820  0.95150  0.35390  Biso   1.000  H
  C801     1.0000 0.42154  0.87300  0.61970  Biso   1.000  C
  C802     1.0000 0.43880  0.88287  0.64660  Biso   1.000  C
  H459     1.0000 0.43460  0.90330  0.65610  Biso   1.000  H
  C803     1.0000 0.46230  0.86290  0.65974  Biso   1.000  C
  H460     1.0000 0.47410  0.86970  0.67810  Biso   1.000  H
  C804     1.0000 0.46850  0.83300  0.64590  Biso   1.000  C
  C805     1.0000 0.45120  0.82314  0.61900  Biso   1.000  C
  H461     1.0000 0.45550  0.80270  0.60960  Biso   1.000  H
  C806     1.0000 0.42770  0.84310  0.60590  Biso   1.000  C
  H462     1.0000 0.41590  0.83630  0.58750  Biso   1.000  H
  C807     1.0000 0.39666  0.89438  0.60594  Biso   1.000  C
  C808     1.0000 0.36419  0.88794  0.61099  Biso   1.000  C
  H463     1.0000 0.35790  0.87120  0.62530  Biso   1.000  H
  C809     1.0000 0.34088  0.90593  0.59506  Biso   1.000  C
  H464     1.0000 0.31870  0.90150  0.59850  Biso   1.000  H
  C810     1.0000 0.35003  0.93037  0.57409  Biso   1.000  C
  C811     1.0000 0.38249  0.93682  0.56904  Biso   1.000  C
  H465     1.0000 0.38870  0.95350  0.55470  Biso   1.000  H
  C812     1.0000 0.40581  0.91883  0.58496  Biso   1.000  C
  H466     1.0000 0.42800  0.92320  0.58150  Biso   1.000  H
  C813     1.0000 0.32500  0.94801  0.55530  Biso   1.000  C
  O156     1.0000 0.47460  0.57870  0.55510  Biso   1.000  O
  C814     1.0000 0.47570  0.76160  0.64060  Biso   1.000  C
  C815     1.0000 0.52830  0.63440  0.58830  Biso   1.000  C
  H467     1.0000 0.54680  0.62120  0.59070  Biso   1.000  H
  C816     1.0000 0.47530  0.72930  0.62540  Biso   1.000  C
  C817     1.0000 0.52650  0.67130  0.60010  Biso   1.000  C
  H468     1.0000 0.54490  0.68160  0.60890  Biso   1.000  H
  C818     1.0000 0.29610  0.97540  0.24260  Biso   1.000  C
  C819     1.0000 0.30850  0.97450  0.21180  Biso   1.000  C
  O157     1.0000 0.79619  0.06127  0.43986  Biso   1.000  O
  O158     1.0000 0.74800  0.02723  0.40659  Biso   1.000  O
  O159     1.0000 0.66440  0.03163  0.53408  Biso   1.000  O
  C820     1.0000 0.72000  0.02830  0.31114  Biso   1.000  C
  H469     1.0000 0.71630  0.04830  0.30060  Biso   1.000  H
  C821     1.0000 0.72940  0.02860  0.34289  Biso   1.000  C
  H470     1.0000 0.73180  0.04850  0.35390  Biso   1.000  H
  C822     1.0000 0.57846  0.12700  0.61970  Biso   1.000  C
  C823     1.0000 0.56120  0.11713  0.64660  Biso   1.000  C
  H471     1.0000 0.56540  0.09670  0.65610  Biso   1.000  H
  C824     1.0000 0.53770  0.13710  0.65974  Biso   1.000  C
  H472     1.0000 0.52590  0.13030  0.67810  Biso   1.000  H
  C825     1.0000 0.53150  0.16700  0.64590  Biso   1.000  C
  C826     1.0000 0.54880  0.17686  0.61900  Biso   1.000  C
  H473     1.0000 0.54450  0.19730  0.60960  Biso   1.000  H
  C827     1.0000 0.57230  0.15690  0.60590  Biso   1.000  C
  H474     1.0000 0.58410  0.16370  0.58750  Biso   1.000  H
  C828     1.0000 0.60334  0.10562  0.60594  Biso   1.000  C
  C829     1.0000 0.63581  0.11206  0.61099  Biso   1.000  C
  H475     1.0000 0.64210  0.12880  0.62530  Biso   1.000  H
  C830     1.0000 0.65912  0.09407  0.59506  Biso   1.000  C
  H476     1.0000 0.68130  0.09850  0.59850  Biso   1.000  H
  C831     1.0000 0.64997  0.06963  0.57409  Biso   1.000  C
  C832     1.0000 0.61751  0.06318  0.56904  Biso   1.000  C
  H477     1.0000 0.61130  0.04650  0.55470  Biso   1.000  H
  C833     1.0000 0.59419  0.08117  0.58496  Biso   1.000  C
  H478     1.0000 0.57200  0.07680  0.58150  Biso   1.000  H
  C834     1.0000 0.67500  0.05199  0.55530  Biso   1.000  C
  O160     1.0000 0.52540  0.42130  0.55510  Biso   1.000  O
  C835     1.0000 0.52430  0.23840  0.64060  Biso   1.000  C
  C836     1.0000 0.47170  0.36560  0.58830  Biso   1.000  C
  H479     1.0000 0.45320  0.37880  0.59070  Biso   1.000  H
  C837     1.0000 0.52470  0.27070  0.62540  Biso   1.000  C
  C838     1.0000 0.47350  0.32870  0.60010  Biso   1.000  C
  H480     1.0000 0.45510  0.31840  0.60890  Biso   1.000  H
  C839     1.0000 0.70390  0.02460  0.24260  Biso   1.000  C
  C840     1.0000 0.69150  0.02550  0.21180  Biso   1.000  C
  O161     1.0000 0.06127  0.43986  0.79619  Biso   1.000  O
  O162     1.0000 0.02723  0.40659  0.74800  Biso   1.000  O
  O163     1.0000 0.03163  0.53408  0.66440  Biso   1.000  O
  C841     1.0000 0.02830  0.31114  0.72000  Biso   1.000  C
  H481     1.0000 0.04830  0.30060  0.71630  Biso   1.000  H
  C842     1.0000 0.02860  0.34289  0.72940  Biso   1.000  C
  H482     1.0000 0.04850  0.35390  0.73180  Biso   1.000  H
  C843     1.0000 0.12700  0.61970  0.57846  Biso   1.000  C
  C844     1.0000 0.11713  0.64660  0.56120  Biso   1.000  C
  H483     1.0000 0.09670  0.65610  0.56540  Biso   1.000  H
  C845     1.0000 0.13710  0.65974  0.53770  Biso   1.000  C
  H484     1.0000 0.13030  0.67810  0.52590  Biso   1.000  H
  C846     1.0000 0.16700  0.64590  0.53150  Biso   1.000  C
  C847     1.0000 0.17686  0.61900  0.54880  Biso   1.000  C
  H485     1.0000 0.19730  0.60960  0.54450  Biso   1.000  H
  C848     1.0000 0.15690  0.60590  0.57230  Biso   1.000  C
  H486     1.0000 0.16370  0.58750  0.58410  Biso   1.000  H
  C849     1.0000 0.10562  0.60594  0.60334  Biso   1.000  C
  C850     1.0000 0.11206  0.61099  0.63581  Biso   1.000  C
  H487     1.0000 0.12880  0.62530  0.64210  Biso   1.000  H
  C851     1.0000 0.09407  0.59506  0.65912  Biso   1.000  C
  H488     1.0000 0.09850  0.59850  0.68130  Biso   1.000  H
  C852     1.0000 0.06963  0.57409  0.64997  Biso   1.000  C
  C853     1.0000 0.06318  0.56904  0.61751  Biso   1.000  C
  H489     1.0000 0.04650  0.55470  0.61130  Biso   1.000  H
  C854     1.0000 0.08117  0.58496  0.59419  Biso   1.000  C
  H490     1.0000 0.07680  0.58150  0.57200  Biso   1.000  H
  C855     1.0000 0.05199  0.55530  0.67500  Biso   1.000  C
  O164     1.0000 0.42130  0.55510  0.52540  Biso   1.000  O
  C856     1.0000 0.23840  0.64060  0.52430  Biso   1.000  C
  C857     1.0000 0.36560  0.58830  0.47170  Biso   1.000  C
  H491     1.0000 0.37880  0.59070  0.45320  Biso   1.000  H
  C858     1.0000 0.27070  0.62540  0.52470  Biso   1.000  C
  C859     1.0000 0.32870  0.60010  0.47350  Biso   1.000  C
  H492     1.0000 0.31840  0.60890  0.45510  Biso   1.000  H
  C860     1.0000 0.02460  0.24260  0.70390  Biso   1.000  C
  C861     1.0000 0.02550  0.21180  0.69150  Biso   1.000  C
  O165     1.0000 0.93873  0.43986  0.20381  Biso   1.000  O
  O166     1.0000 0.97277  0.40659  0.25200  Biso   1.000  O
  O167     1.0000 0.96837  0.53408  0.33560  Biso   1.000  O
  C862     1.0000 0.97170  0.31114  0.28000  Biso   1.000  C
  H493     1.0000 0.95170  0.30060  0.28370  Biso   1.000  H
  C863     1.0000 0.97140  0.34289  0.27060  Biso   1.000  C
  H494     1.0000 0.95150  0.35390  0.26820  Biso   1.000  H
  C864     1.0000 0.87300  0.61970  0.42154  Biso   1.000  C
  C865     1.0000 0.88287  0.64660  0.43880  Biso   1.000  C
  H495     1.0000 0.90330  0.65610  0.43460  Biso   1.000  H
  C866     1.0000 0.86290  0.65974  0.46230  Biso   1.000  C
  H496     1.0000 0.86970  0.67810  0.47410  Biso   1.000  H
  C867     1.0000 0.83300  0.64590  0.46850  Biso   1.000  C
  C868     1.0000 0.82314  0.61900  0.45120  Biso   1.000  C
  H497     1.0000 0.80270  0.60960  0.45550  Biso   1.000  H
  C869     1.0000 0.84310  0.60590  0.42770  Biso   1.000  C
  H498     1.0000 0.83630  0.58750  0.41590  Biso   1.000  H
  C870     1.0000 0.89438  0.60594  0.39666  Biso   1.000  C
  C871     1.0000 0.88794  0.61099  0.36419  Biso   1.000  C
  H499     1.0000 0.87120  0.62530  0.35790  Biso   1.000  H
  C872     1.0000 0.90593  0.59506  0.34088  Biso   1.000  C
  H500     1.0000 0.90150  0.59850  0.31870  Biso   1.000  H
  C873     1.0000 0.93037  0.57409  0.35003  Biso   1.000  C
  C874     1.0000 0.93682  0.56904  0.38249  Biso   1.000  C
  H501     1.0000 0.95350  0.55470  0.38870  Biso   1.000  H
  C875     1.0000 0.91883  0.58496  0.40581  Biso   1.000  C
  H502     1.0000 0.92320  0.58150  0.42800  Biso   1.000  H
  C876     1.0000 0.94801  0.55530  0.32500  Biso   1.000  C
  O168     1.0000 0.57870  0.55510  0.47460  Biso   1.000  O
  C877     1.0000 0.76160  0.64060  0.47570  Biso   1.000  C
  C878     1.0000 0.63440  0.58830  0.52830  Biso   1.000  C
  H503     1.0000 0.62120  0.59070  0.54680  Biso   1.000  H
  C879     1.0000 0.72930  0.62540  0.47530  Biso   1.000  C
  C880     1.0000 0.67130  0.60010  0.52650  Biso   1.000  C
  H504     1.0000 0.68160  0.60890  0.54490  Biso   1.000  H
  C881     1.0000 0.97540  0.24260  0.29610  Biso   1.000  C
  C882     1.0000 0.97450  0.21180  0.30850  Biso   1.000  C
  O169     1.0000 0.93873  0.56014  0.79619  Biso   1.000  O
  O170     1.0000 0.97277  0.59341  0.74800  Biso   1.000  O
  O171     1.0000 0.96837  0.46592  0.66440  Biso   1.000  O
  C883     1.0000 0.97170  0.68886  0.72000  Biso   1.000  C
  H505     1.0000 0.95170  0.69940  0.71630  Biso   1.000  H
  C884     1.0000 0.97140  0.65711  0.72940  Biso   1.000  C
  H506     1.0000 0.95150  0.64610  0.73180  Biso   1.000  H
  C885     1.0000 0.87300  0.38030  0.57846  Biso   1.000  C
  C886     1.0000 0.88287  0.35340  0.56120  Biso   1.000  C
  H507     1.0000 0.90330  0.34390  0.56540  Biso   1.000  H
  C887     1.0000 0.86290  0.34026  0.53770  Biso   1.000  C
  H508     1.0000 0.86970  0.32190  0.52590  Biso   1.000  H
  C888     1.0000 0.83300  0.35410  0.53150  Biso   1.000  C
  C889     1.0000 0.82314  0.38100  0.54880  Biso   1.000  C
  H509     1.0000 0.80270  0.39040  0.54450  Biso   1.000  H
  C890     1.0000 0.84310  0.39410  0.57230  Biso   1.000  C
  H510     1.0000 0.83630  0.41250  0.58410  Biso   1.000  H
  C891     1.0000 0.89438  0.39406  0.60334  Biso   1.000  C
  C892     1.0000 0.88794  0.38901  0.63581  Biso   1.000  C
  H511     1.0000 0.87120  0.37470  0.64210  Biso   1.000  H
  C893     1.0000 0.90593  0.40494  0.65912  Biso   1.000  C
  H512     1.0000 0.90150  0.40150  0.68130  Biso   1.000  H
  C894     1.0000 0.93037  0.42591  0.64997  Biso   1.000  C
  C895     1.0000 0.93682  0.43096  0.61751  Biso   1.000  C
  H513     1.0000 0.95350  0.44530  0.61130  Biso   1.000  H
  C896     1.0000 0.91883  0.41504  0.59419  Biso   1.000  C
  H514     1.0000 0.92320  0.41850  0.57200  Biso   1.000  H
  C897     1.0000 0.94801  0.44470  0.67500  Biso   1.000  C
  O172     1.0000 0.57870  0.44490  0.52540  Biso   1.000  O
  C898     1.0000 0.76160  0.35940  0.52430  Biso   1.000  C
  C899     1.0000 0.63440  0.41170  0.47170  Biso   1.000  C
  H515     1.0000 0.62120  0.40930  0.45320  Biso   1.000  H
  C900     1.0000 0.72930  0.37460  0.52470  Biso   1.000  C
  C901     1.0000 0.67130  0.39990  0.47350  Biso   1.000  C
  H516     1.0000 0.68160  0.39110  0.45510  Biso   1.000  H
  C902     1.0000 0.97540  0.75740  0.70390  Biso   1.000  C
  C903     1.0000 0.97450  0.78820  0.69150  Biso   1.000  C
  O173     1.0000 0.06127  0.56014  0.20381  Biso   1.000  O
  O174     1.0000 0.02723  0.59341  0.25200  Biso   1.000  O
  O175     1.0000 0.03163  0.46592  0.33560  Biso   1.000  O
  C904     1.0000 0.02830  0.68886  0.28000  Biso   1.000  C
  H517     1.0000 0.04830  0.69940  0.28370  Biso   1.000  H
  C905     1.0000 0.02860  0.65711  0.27060  Biso   1.000  C
  H518     1.0000 0.04850  0.64610  0.26820  Biso   1.000  H
  C906     1.0000 0.12700  0.38030  0.42154  Biso   1.000  C
  C907     1.0000 0.11713  0.35340  0.43880  Biso   1.000  C
  H519     1.0000 0.09670  0.34390  0.43460  Biso   1.000  H
  C908     1.0000 0.13710  0.34026  0.46230  Biso   1.000  C
  H520     1.0000 0.13030  0.32190  0.47410  Biso   1.000  H
  C909     1.0000 0.16700  0.35410  0.46850  Biso   1.000  C
  C910     1.0000 0.17686  0.38100  0.45120  Biso   1.000  C
  H521     1.0000 0.19730  0.39040  0.45550  Biso   1.000  H
  C911     1.0000 0.15690  0.39410  0.42770  Biso   1.000  C
  H522     1.0000 0.16370  0.41250  0.41590  Biso   1.000  H
  C912     1.0000 0.10562  0.39406  0.39666  Biso   1.000  C
  C913     1.0000 0.11206  0.38901  0.36419  Biso   1.000  C
  H523     1.0000 0.12880  0.37470  0.35790  Biso   1.000  H
  C914     1.0000 0.09407  0.40494  0.34088  Biso   1.000  C
  H524     1.0000 0.09850  0.40150  0.31870  Biso   1.000  H
  C915     1.0000 0.06963  0.42591  0.35003  Biso   1.000  C
  C916     1.0000 0.06318  0.43096  0.38249  Biso   1.000  C
  H525     1.0000 0.04650  0.44530  0.38870  Biso   1.000  H
  C917     1.0000 0.08117  0.41504  0.40581  Biso   1.000  C
  H526     1.0000 0.07680  0.41850  0.42800  Biso   1.000  H
  C918     1.0000 0.05199  0.44470  0.32500  Biso   1.000  C
  O176     1.0000 0.42130  0.44490  0.47460  Biso   1.000  O
  C919     1.0000 0.23840  0.35940  0.47570  Biso   1.000  C
  C920     1.0000 0.36560  0.41170  0.52830  Biso   1.000  C
  H527     1.0000 0.37880  0.40930  0.54680  Biso   1.000  H
  C921     1.0000 0.27070  0.37460  0.47530  Biso   1.000  C
  C922     1.0000 0.32870  0.39990  0.52650  Biso   1.000  C
  H528     1.0000 0.31840  0.39110  0.54490  Biso   1.000  H
  C923     1.0000 0.02460  0.75740  0.29610  Biso   1.000  C
  C924     1.0000 0.02550  0.78820  0.30850  Biso   1.000  C
  O177     1.0000 0.43986  0.20381  0.93873  Biso   1.000  O
  O178     1.0000 0.40659  0.25200  0.97277  Biso   1.000  O
  O179     1.0000 0.53408  0.33560  0.96837  Biso   1.000  O
  C925     1.0000 0.31114  0.28000  0.97170  Biso   1.000  C
  H529     1.0000 0.30060  0.28370  0.95170  Biso   1.000  H
  C926     1.0000 0.34289  0.27060  0.97140  Biso   1.000  C
  H530     1.0000 0.35390  0.26820  0.95150  Biso   1.000  H
  C927     1.0000 0.61970  0.42154  0.87300  Biso   1.000  C
  C928     1.0000 0.64660  0.43880  0.88287  Biso   1.000  C
  H531     1.0000 0.65610  0.43460  0.90330  Biso   1.000  H
  C929     1.0000 0.65974  0.46230  0.86290  Biso   1.000  C
  H532     1.0000 0.67810  0.47410  0.86970  Biso   1.000  H
  C930     1.0000 0.64590  0.46850  0.83300  Biso   1.000  C
  C931     1.0000 0.61900  0.45120  0.82314  Biso   1.000  C
  H533     1.0000 0.60960  0.45550  0.80270  Biso   1.000  H
  C932     1.0000 0.60590  0.42770  0.84310  Biso   1.000  C
  H534     1.0000 0.58750  0.41590  0.83630  Biso   1.000  H
  C933     1.0000 0.60594  0.39666  0.89438  Biso   1.000  C
  C934     1.0000 0.61099  0.36419  0.88794  Biso   1.000  C
  H535     1.0000 0.62530  0.35790  0.87120  Biso   1.000  H
  C935     1.0000 0.59506  0.34088  0.90593  Biso   1.000  C
  H536     1.0000 0.59850  0.31870  0.90150  Biso   1.000  H
  C936     1.0000 0.57409  0.35003  0.93037  Biso   1.000  C
  C937     1.0000 0.56904  0.38249  0.93682  Biso   1.000  C
  H537     1.0000 0.55470  0.38870  0.95350  Biso   1.000  H
  C938     1.0000 0.58496  0.40581  0.91883  Biso   1.000  C
  H538     1.0000 0.58150  0.42800  0.92320  Biso   1.000  H
  C939     1.0000 0.55530  0.32500  0.94801  Biso   1.000  C
  O180     1.0000 0.55510  0.47460  0.57870  Biso   1.000  O
  C940     1.0000 0.64060  0.47570  0.76160  Biso   1.000  C
  C941     1.0000 0.58830  0.52830  0.63440  Biso   1.000  C
  H539     1.0000 0.59070  0.54680  0.62120  Biso   1.000  H
  C942     1.0000 0.62540  0.47530  0.72930  Biso   1.000  C
  C943     1.0000 0.60010  0.52650  0.67130  Biso   1.000  C
  H540     1.0000 0.60890  0.54490  0.68160  Biso   1.000  H
  C944     1.0000 0.24260  0.29610  0.97540  Biso   1.000  C
  C945     1.0000 0.21180  0.30850  0.97450  Biso   1.000  C
  O181     1.0000 0.43986  0.79619  0.06127  Biso   1.000  O
  O182     1.0000 0.40659  0.74800  0.02723  Biso   1.000  O
  O183     1.0000 0.53408  0.66440  0.03163  Biso   1.000  O
  C946     1.0000 0.31114  0.72000  0.02830  Biso   1.000  C
  H541     1.0000 0.30060  0.71630  0.04830  Biso   1.000  H
  C947     1.0000 0.34289  0.72940  0.02860  Biso   1.000  C
  H542     1.0000 0.35390  0.73180  0.04850  Biso   1.000  H
  C948     1.0000 0.61970  0.57846  0.12700  Biso   1.000  C
  C949     1.0000 0.64660  0.56120  0.11713  Biso   1.000  C
  H543     1.0000 0.65610  0.56540  0.09670  Biso   1.000  H
  C950     1.0000 0.65974  0.53770  0.13710  Biso   1.000  C
  H544     1.0000 0.67810  0.52590  0.13030  Biso   1.000  H
  C951     1.0000 0.64590  0.53150  0.16700  Biso   1.000  C
  C952     1.0000 0.61900  0.54880  0.17686  Biso   1.000  C
  H545     1.0000 0.60960  0.54450  0.19730  Biso   1.000  H
  C953     1.0000 0.60590  0.57230  0.15690  Biso   1.000  C
  H546     1.0000 0.58750  0.58410  0.16370  Biso   1.000  H
  C954     1.0000 0.60594  0.60334  0.10562  Biso   1.000  C
  C955     1.0000 0.61099  0.63581  0.11206  Biso   1.000  C
  H547     1.0000 0.62530  0.64210  0.12880  Biso   1.000  H
  C956     1.0000 0.59506  0.65912  0.09407  Biso   1.000  C
  H548     1.0000 0.59850  0.68130  0.09850  Biso   1.000  H
  C957     1.0000 0.57409  0.64997  0.06963  Biso   1.000  C
  C958     1.0000 0.56904  0.61751  0.06318  Biso   1.000  C
  H549     1.0000 0.55470  0.61130  0.04650  Biso   1.000  H
  C959     1.0000 0.58496  0.59419  0.08117  Biso   1.000  C
  H550     1.0000 0.58150  0.57200  0.07680  Biso   1.000  H
  C960     1.0000 0.55530  0.67500  0.05199  Biso   1.000  C
  O184     1.0000 0.55510  0.52540  0.42130  Biso   1.000  O
  C961     1.0000 0.64060  0.52430  0.23840  Biso   1.000  C
  C962     1.0000 0.58830  0.47170  0.36560  Biso   1.000  C
  H551     1.0000 0.59070  0.45320  0.37880  Biso   1.000  H
  C963     1.0000 0.62540  0.52470  0.27070  Biso   1.000  C
  C964     1.0000 0.60010  0.47350  0.32870  Biso   1.000  C
  H552     1.0000 0.60890  0.45510  0.31840  Biso   1.000  H
  C965     1.0000 0.24260  0.70390  0.02460  Biso   1.000  C
  C966     1.0000 0.21180  0.69150  0.02550  Biso   1.000  C
  O185     1.0000 0.56014  0.20381  0.06127  Biso   1.000  O
  O186     1.0000 0.59341  0.25200  0.02723  Biso   1.000  O
  O187     1.0000 0.46592  0.33560  0.03163  Biso   1.000  O
  C967     1.0000 0.68886  0.28000  0.02830  Biso   1.000  C
  H553     1.0000 0.69940  0.28370  0.04830  Biso   1.000  H
  C968     1.0000 0.65711  0.27060  0.02860  Biso   1.000  C
  H554     1.0000 0.64610  0.26820  0.04850  Biso   1.000  H
  C969     1.0000 0.38030  0.42154  0.12700  Biso   1.000  C
  C970     1.0000 0.35340  0.43880  0.11713  Biso   1.000  C
  H555     1.0000 0.34390  0.43460  0.09670  Biso   1.000  H
  C971     1.0000 0.34026  0.46230  0.13710  Biso   1.000  C
  H556     1.0000 0.32190  0.47410  0.13030  Biso   1.000  H
  C972     1.0000 0.35410  0.46850  0.16700  Biso   1.000  C
  C973     1.0000 0.38100  0.45120  0.17686  Biso   1.000  C
  H557     1.0000 0.39040  0.45550  0.19730  Biso   1.000  H
  C974     1.0000 0.39410  0.42770  0.15690  Biso   1.000  C
  H558     1.0000 0.41250  0.41590  0.16370  Biso   1.000  H
  C975     1.0000 0.39406  0.39666  0.10562  Biso   1.000  C
  C976     1.0000 0.38901  0.36419  0.11206  Biso   1.000  C
  H559     1.0000 0.37470  0.35790  0.12880  Biso   1.000  H
  C977     1.0000 0.40494  0.34088  0.09407  Biso   1.000  C
  H560     1.0000 0.40150  0.31870  0.09850  Biso   1.000  H
  C978     1.0000 0.42591  0.35003  0.06963  Biso   1.000  C
  C979     1.0000 0.43096  0.38249  0.06318  Biso   1.000  C
  H561     1.0000 0.44530  0.38870  0.04650  Biso   1.000  H
  C980     1.0000 0.41504  0.40581  0.08117  Biso   1.000  C
  H562     1.0000 0.41850  0.42800  0.07680  Biso   1.000  H
  C981     1.0000 0.44470  0.32500  0.05199  Biso   1.000  C
  O188     1.0000 0.44490  0.47460  0.42130  Biso   1.000  O
  C982     1.0000 0.35940  0.47570  0.23840  Biso   1.000  C
  C983     1.0000 0.41170  0.52830  0.36560  Biso   1.000  C
  H563     1.0000 0.40930  0.54680  0.37880  Biso   1.000  H
  C984     1.0000 0.37460  0.47530  0.27070  Biso   1.000  C
  C985     1.0000 0.39990  0.52650  0.32870  Biso   1.000  C
  H564     1.0000 0.39110  0.54490  0.31840  Biso   1.000  H
  C986     1.0000 0.75740  0.29610  0.02460  Biso   1.000  C
  C987     1.0000 0.78820  0.30850  0.02550  Biso   1.000  C
  O189     1.0000 0.56014  0.79619  0.93873  Biso   1.000  O
  O190     1.0000 0.59341  0.74800  0.97277  Biso   1.000  O
  O191     1.0000 0.46592  0.66440  0.96837  Biso   1.000  O
  C988     1.0000 0.68886  0.72000  0.97170  Biso   1.000  C
  H565     1.0000 0.69940  0.71630  0.95170  Biso   1.000  H
  C989     1.0000 0.65711  0.72940  0.97140  Biso   1.000  C
  H566     1.0000 0.64610  0.73180  0.95150  Biso   1.000  H
  C990     1.0000 0.38030  0.57846  0.87300  Biso   1.000  C
  C991     1.0000 0.35340  0.56120  0.88287  Biso   1.000  C
  H567     1.0000 0.34390  0.56540  0.90330  Biso   1.000  H
  C992     1.0000 0.34026  0.53770  0.86290  Biso   1.000  C
  H568     1.0000 0.32190  0.52590  0.86970  Biso   1.000  H
  C993     1.0000 0.35410  0.53150  0.83300  Biso   1.000  C
  C994     1.0000 0.38100  0.54880  0.82314  Biso   1.000  C
  H569     1.0000 0.39040  0.54450  0.80270  Biso   1.000  H
  C995     1.0000 0.39410  0.57230  0.84310  Biso   1.000  C
  H570     1.0000 0.41250  0.58410  0.83630  Biso   1.000  H
  C996     1.0000 0.39406  0.60334  0.89438  Biso   1.000  C
  C997     1.0000 0.38901  0.63581  0.88794  Biso   1.000  C
  H571     1.0000 0.37470  0.64210  0.87120  Biso   1.000  H
  C998     1.0000 0.40494  0.65912  0.90593  Biso   1.000  C
  H572     1.0000 0.40150  0.68130  0.90150  Biso   1.000  H
  C999     1.0000 0.42591  0.64997  0.93037  Biso   1.000  C
  C1000    1.0000 0.43096  0.61751  0.93682  Biso   1.000  C
  H573     1.0000 0.44530  0.61130  0.95350  Biso   1.000  H
  C1001    1.0000 0.41504  0.59419  0.91883  Biso   1.000  C
  H574     1.0000 0.41850  0.57200  0.92320  Biso   1.000  H
  C1002    1.0000 0.44470  0.67500  0.94801  Biso   1.000  C
  O192     1.0000 0.44490  0.52540  0.57870  Biso   1.000  O
  C1003    1.0000 0.35940  0.52430  0.76160  Biso   1.000  C
  C1004    1.0000 0.41170  0.47170  0.63440  Biso   1.000  C
  H575     1.0000 0.40930  0.45320  0.62120  Biso   1.000  H
  C1005    1.0000 0.37460  0.52470  0.72930  Biso   1.000  C
  C1006    1.0000 0.39990  0.47350  0.67130  Biso   1.000  C
  H576     1.0000 0.39110  0.45510  0.68160  Biso   1.000  H
  C1007    1.0000 0.75740  0.70390  0.97540  Biso   1.000  C
  C1008    1.0000 0.78820  0.69150  0.97450  Biso   1.000  C
  Zr1      1.0000 0.45785  0.25000  0.04215  Biso   1.000  Zr
  Zr2      1.0000 0.54215  0.75000  0.04215  Biso   1.000  Zr
  Zr3      1.0000 0.54215  0.25000  0.95785  Biso   1.000  Zr
  Zr4      1.0000 0.45785  0.75000  0.95785  Biso   1.000  Zr
  Zr5      1.0000 0.04215  0.45785  0.25000  Biso   1.000  Zr
  Zr6      1.0000 0.04215  0.54215  0.75000  Biso   1.000  Zr
  Zr7      1.0000 0.95785  0.54215  0.25000  Biso   1.000  Zr
  Zr8      1.0000 0.95785  0.45785  0.75000  Biso   1.000  Zr
  Zr9      1.0000 0.25000  0.04215  0.45785  Biso   1.000  Zr
  Zr10     1.0000 0.75000  0.04215  0.54215  Biso   1.000  Zr
  Zr11     1.0000 0.25000  0.95785  0.54215  Biso   1.000  Zr
  Zr12     1.0000 0.75000  0.95785  0.45785  Biso   1.000  Zr
  Zr13     1.0000 0.54215  0.75000  0.95785  Biso   1.000  Zr
  Zr14     1.0000 0.45785  0.25000  0.95785  Biso   1.000  Zr
  Zr15     1.0000 0.45785  0.75000  0.04215  Biso   1.000  Zr
  Zr16     1.0000 0.54215  0.25000  0.04215  Biso   1.000  Zr
  Zr17     1.0000 0.95785  0.54215  0.75000  Biso   1.000  Zr
  Zr18     1.0000 0.95785  0.45785  0.25000  Biso   1.000  Zr
  Zr19     1.0000 0.04215  0.45785  0.75000  Biso   1.000  Zr
  Zr20     1.0000 0.04215  0.54215  0.25000  Biso   1.000  Zr
  Zr21     1.0000 0.75000  0.95785  0.54215  Biso   1.000  Zr
  Zr22     1.0000 0.25000  0.95785  0.45785  Biso   1.000  Zr
  Zr23     1.0000 0.75000  0.04215  0.45785  Biso   1.000  Zr
  Zr24     1.0000 0.25000  0.04215  0.54215  Biso   1.000  Zr
  Zr25     1.0000 0.50000  0.19011  0.00000  Biso   1.000  Zr
  Zr26     1.0000 0.50000  0.80989  0.00000  Biso   1.000  Zr
  Zr27     1.0000 0.00000  0.50000  0.19011  Biso   1.000  Zr
  Zr28     1.0000 0.00000  0.50000  0.80989  Biso   1.000  Zr
  Zr29     1.0000 0.19011  0.00000  0.50000  Biso   1.000  Zr
  Zr30     1.0000 0.80989  0.00000  0.50000  Biso   1.000  Zr
  Zr31     1.0000 0.69011  0.00000  0.50000  Biso   1.000  Zr
  Zr32     1.0000 0.30989  0.00000  0.50000  Biso   1.000  Zr
  Zr33     1.0000 0.00000  0.50000  0.30989  Biso   1.000  Zr
  Zr34     1.0000 0.00000  0.50000  0.69011  Biso   1.000  Zr
  Zr35     1.0000 0.50000  0.69011  0.00000  Biso   1.000  Zr
  Zr36     1.0000 0.50000  0.30989  0.00000  Biso   1.000  Zr
  Zr37     1.0000 0.03314  0.03314  0.96686  Biso   1.000  Zr
  Zr38     1.0000 0.96686  0.96686  0.96686  Biso   1.000  Zr
  Zr39     1.0000 0.96686  0.03314  0.03314  Biso   1.000  Zr
  Zr40     1.0000 0.03314  0.96686  0.03314  Biso   1.000  Zr
  Zr41     1.0000 0.53314  0.53314  0.53314  Biso   1.000  Zr
  Zr42     1.0000 0.46686  0.46686  0.53314  Biso   1.000  Zr
  Zr43     1.0000 0.53314  0.46686  0.46686  Biso   1.000  Zr
  Zr44     1.0000 0.46686  0.53314  0.46686  Biso   1.000  Zr
  Zr45     1.0000 0.96686  0.96686  0.03314  Biso   1.000  Zr
  Zr46     1.0000 0.03314  0.03314  0.03314  Biso   1.000  Zr
  Zr47     1.0000 0.03314  0.96686  0.96686  Biso   1.000  Zr
  Zr48     1.0000 0.96686  0.03314  0.96686  Biso   1.000  Zr
  Zr49     1.0000 0.46686  0.46686  0.46686  Biso   1.000  Zr
  Zr50     1.0000 0.53314  0.53314  0.46686  Biso   1.000  Zr
  Zr51     1.0000 0.46686  0.53314  0.53314  Biso   1.000  Zr
  Zr52     1.0000 0.53314  0.46686  0.53314  Biso   1.000  Zr
  O193     1.0000 0.50000  0.28329  0.04803  Biso   1.000  O
  O194     1.0000 0.50000  0.22480  0.03495  Biso   1.000  O
  C1009    1.0000 0.50000  0.23530  0.14130  Biso   1.000  C
  C1010    1.0000 0.50000  0.24410  0.10760  Biso   1.000  C
  C1011    1.0000 0.50000  0.21570  0.20610  Biso   1.000  C
  C1012    1.0000 0.50000  0.20730  0.23890  Biso   1.000  C
  O195     1.0000 0.50000  0.71671  0.04803  Biso   1.000  O
  O196     1.0000 0.50000  0.77520  0.03495  Biso   1.000  O
  C1013    1.0000 0.50000  0.76470  0.14130  Biso   1.000  C
  C1014    1.0000 0.50000  0.75590  0.10760  Biso   1.000  C
  C1015    1.0000 0.50000  0.78430  0.20610  Biso   1.000  C
  C1016    1.0000 0.50000  0.79270  0.23890  Biso   1.000  C
  O197     1.0000 0.50000  0.28329  0.95197  Biso   1.000  O
  O198     1.0000 0.50000  0.22480  0.96505  Biso   1.000  O
  C1017    1.0000 0.50000  0.23530  0.85870  Biso   1.000  C
  C1018    1.0000 0.50000  0.24410  0.89240  Biso   1.000  C
  C1019    1.0000 0.50000  0.21570  0.79390  Biso   1.000  C
  C1020    1.0000 0.50000  0.20730  0.76110  Biso   1.000  C
  O199     1.0000 0.50000  0.71671  0.95197  Biso   1.000  O
  O200     1.0000 0.50000  0.77520  0.96505  Biso   1.000  O
  C1021    1.0000 0.50000  0.76470  0.85870  Biso   1.000  C
  C1022    1.0000 0.50000  0.75590  0.89240  Biso   1.000  C
  C1023    1.0000 0.50000  0.78430  0.79390  Biso   1.000  C
  C1024    1.0000 0.50000  0.79270  0.76110  Biso   1.000  C
  O201     1.0000 0.04803  0.50000  0.28329  Biso   1.000  O
  O202     1.0000 0.03495  0.50000  0.22480  Biso   1.000  O
  C1025    1.0000 0.14130  0.50000  0.23530  Biso   1.000  C
  C1026    1.0000 0.10760  0.50000  0.24410  Biso   1.000  C
  C1027    1.0000 0.20610  0.50000  0.21570  Biso   1.000  C
  C1028    1.0000 0.23890  0.50000  0.20730  Biso   1.000  C
  O203     1.0000 0.04803  0.50000  0.71671  Biso   1.000  O
  O204     1.0000 0.03495  0.50000  0.77520  Biso   1.000  O
  C1029    1.0000 0.14130  0.50000  0.76470  Biso   1.000  C
  C1030    1.0000 0.10760  0.50000  0.75590  Biso   1.000  C
  C1031    1.0000 0.20610  0.50000  0.78430  Biso   1.000  C
  C1032    1.0000 0.23890  0.50000  0.79270  Biso   1.000  C
  O205     1.0000 0.95197  0.50000  0.28329  Biso   1.000  O
  O206     1.0000 0.96505  0.50000  0.22480  Biso   1.000  O
  C1033    1.0000 0.85870  0.50000  0.23530  Biso   1.000  C
  C1034    1.0000 0.89240  0.50000  0.24410  Biso   1.000  C
  C1035    1.0000 0.79390  0.50000  0.21570  Biso   1.000  C
  C1036    1.0000 0.76110  0.50000  0.20730  Biso   1.000  C
  O207     1.0000 0.95197  0.50000  0.71671  Biso   1.000  O
  O208     1.0000 0.96505  0.50000  0.77520  Biso   1.000  O
  C1037    1.0000 0.85870  0.50000  0.76470  Biso   1.000  C
  C1038    1.0000 0.89240  0.50000  0.75590  Biso   1.000  C
  C1039    1.0000 0.79390  0.50000  0.78430  Biso   1.000  C
  C1040    1.0000 0.76110  0.50000  0.79270  Biso   1.000  C
  O209     1.0000 0.28329  0.04803  0.50000  Biso   1.000  O
  O210     1.0000 0.22480  0.03495  0.50000  Biso   1.000  O
  C1041    1.0000 0.23530  0.14130  0.50000  Biso   1.000  C
  C1042    1.0000 0.24410  0.10760  0.50000  Biso   1.000  C
  C1043    1.0000 0.21570  0.20610  0.50000  Biso   1.000  C
  C1044    1.0000 0.20730  0.23890  0.50000  Biso   1.000  C
  O211     1.0000 0.71671  0.04803  0.50000  Biso   1.000  O
  O212     1.0000 0.77520  0.03495  0.50000  Biso   1.000  O
  C1045    1.0000 0.76470  0.14130  0.50000  Biso   1.000  C
  C1046    1.0000 0.75590  0.10760  0.50000  Biso   1.000  C
  C1047    1.0000 0.78430  0.20610  0.50000  Biso   1.000  C
  C1048    1.0000 0.79270  0.23890  0.50000  Biso   1.000  C
  O213     1.0000 0.28329  0.95197  0.50000  Biso   1.000  O
  O214     1.0000 0.22480  0.96505  0.50000  Biso   1.000  O
  C1049    1.0000 0.23530  0.85870  0.50000  Biso   1.000  C
  C1050    1.0000 0.24410  0.89240  0.50000  Biso   1.000  C
  C1051    1.0000 0.21570  0.79390  0.50000  Biso   1.000  C
  C1052    1.0000 0.20730  0.76110  0.50000  Biso   1.000  C
  O215     1.0000 0.71671  0.95197  0.50000  Biso   1.000  O
  O216     1.0000 0.77520  0.96505  0.50000  Biso   1.000  O
  C1053    1.0000 0.76470  0.85870  0.50000  Biso   1.000  C
  C1054    1.0000 0.75590  0.89240  0.50000  Biso   1.000  C
  C1055    1.0000 0.78430  0.79390  0.50000  Biso   1.000  C
  C1056    1.0000 0.79270  0.76110  0.50000  Biso   1.000  C
  O217     1.0000 0.78329  0.00000  0.45197  Biso   1.000  O
  O218     1.0000 0.72480  0.00000  0.46505  Biso   1.000  O
  C1057    1.0000 0.73530  0.00000  0.35870  Biso   1.000  C
  C1058    1.0000 0.74410  0.00000  0.39240  Biso   1.000  C
  C1059    1.0000 0.71570  0.00000  0.29390  Biso   1.000  C
  C1060    1.0000 0.70730  0.00000  0.26110  Biso   1.000  C
  O219     1.0000 0.21671  0.00000  0.45197  Biso   1.000  O
  O220     1.0000 0.27520  0.00000  0.46505  Biso   1.000  O
  C1061    1.0000 0.26470  0.00000  0.35870  Biso   1.000  C
  C1062    1.0000 0.25590  0.00000  0.39240  Biso   1.000  C
  C1063    1.0000 0.28430  0.00000  0.29390  Biso   1.000  C
  C1064    1.0000 0.29270  0.00000  0.26110  Biso   1.000  C
  O221     1.0000 0.78329  0.00000  0.54803  Biso   1.000  O
  O222     1.0000 0.72480  0.00000  0.53495  Biso   1.000  O
  C1065    1.0000 0.73530  0.00000  0.64130  Biso   1.000  C
  C1066    1.0000 0.74410  0.00000  0.60760  Biso   1.000  C
  C1067    1.0000 0.71570  0.00000  0.70610  Biso   1.000  C
  C1068    1.0000 0.70730  0.00000  0.73890  Biso   1.000  C
  O223     1.0000 0.21671  0.00000  0.54803  Biso   1.000  O
  O224     1.0000 0.27520  0.00000  0.53495  Biso   1.000  O
  C1069    1.0000 0.26470  0.00000  0.64130  Biso   1.000  C
  C1070    1.0000 0.25590  0.00000  0.60760  Biso   1.000  C
  C1071    1.0000 0.28430  0.00000  0.70610  Biso   1.000  C
  C1072    1.0000 0.29270  0.00000  0.73890  Biso   1.000  C
  O225     1.0000 0.00000  0.54803  0.21671  Biso   1.000  O
  O226     1.0000 0.00000  0.53495  0.27520  Biso   1.000  O
  C1073    1.0000 0.00000  0.64130  0.26470  Biso   1.000  C
  C1074    1.0000 0.00000  0.60760  0.25590  Biso   1.000  C
  C1075    1.0000 0.00000  0.70610  0.28430  Biso   1.000  C
  C1076    1.0000 0.00000  0.73890  0.29270  Biso   1.000  C
  O227     1.0000 0.00000  0.54803  0.78329  Biso   1.000  O
  O228     1.0000 0.00000  0.53495  0.72480  Biso   1.000  O
  C1077    1.0000 0.00000  0.64130  0.73530  Biso   1.000  C
  C1078    1.0000 0.00000  0.60760  0.74410  Biso   1.000  C
  C1079    1.0000 0.00000  0.70610  0.71570  Biso   1.000  C
  C1080    1.0000 0.00000  0.73890  0.70730  Biso   1.000  C
  O229     1.0000 0.00000  0.45197  0.21671  Biso   1.000  O
  O230     1.0000 0.00000  0.46505  0.27520  Biso   1.000  O
  C1081    1.0000 0.00000  0.35870  0.26470  Biso   1.000  C
  C1082    1.0000 0.00000  0.39240  0.25590  Biso   1.000  C
  C1083    1.0000 0.00000  0.29390  0.28430  Biso   1.000  C
  C1084    1.0000 0.00000  0.26110  0.29270  Biso   1.000  C
  O231     1.0000 0.00000  0.45197  0.78329  Biso   1.000  O
  O232     1.0000 0.00000  0.46505  0.72480  Biso   1.000  O
  C1085    1.0000 0.00000  0.35870  0.73530  Biso   1.000  C
  C1086    1.0000 0.00000  0.39240  0.74410  Biso   1.000  C
  C1087    1.0000 0.00000  0.29390  0.71570  Biso   1.000  C
  C1088    1.0000 0.00000  0.26110  0.70730  Biso   1.000  C
  O233     1.0000 0.54803  0.78329  0.00000  Biso   1.000  O
  O234     1.0000 0.53495  0.72480  0.00000  Biso   1.000  O
  C1089    1.0000 0.64130  0.73530  0.00000  Biso   1.000  C
  C1090    1.0000 0.60760  0.74410  0.00000  Biso   1.000  C
  C1091    1.0000 0.70610  0.71570  0.00000  Biso   1.000  C
  C1092    1.0000 0.73890  0.70730  0.00000  Biso   1.000  C
  O235     1.0000 0.54803  0.21671  0.00000  Biso   1.000  O
  O236     1.0000 0.53495  0.27520  0.00000  Biso   1.000  O
  C1093    1.0000 0.64130  0.26470  0.00000  Biso   1.000  C
  C1094    1.0000 0.60760  0.25590  0.00000  Biso   1.000  C
  C1095    1.0000 0.70610  0.28430  0.00000  Biso   1.000  C
  C1096    1.0000 0.73890  0.29270  0.00000  Biso   1.000  C
  O237     1.0000 0.45197  0.78329  0.00000  Biso   1.000  O
  O238     1.0000 0.46505  0.72480  0.00000  Biso   1.000  O
  C1097    1.0000 0.35870  0.73530  0.00000  Biso   1.000  C
  C1098    1.0000 0.39240  0.74410  0.00000  Biso   1.000  C
  C1099    1.0000 0.29390  0.71570  0.00000  Biso   1.000  C
  C1100    1.0000 0.26110  0.70730  0.00000  Biso   1.000  C
  O239     1.0000 0.45197  0.21671  0.00000  Biso   1.000  O
  O240     1.0000 0.46505  0.27520  0.00000  Biso   1.000  O
  C1101    1.0000 0.35870  0.26470  0.00000  Biso   1.000  C
  C1102    1.0000 0.39240  0.25590  0.00000  Biso   1.000  C
  C1103    1.0000 0.29390  0.28430  0.00000  Biso   1.000  C
  C1104    1.0000 0.26110  0.29270  0.00000  Biso   1.000  C
  O241     1.0000 0.02820  0.00000  0.94950  Biso   1.000  O
  C1105    1.0000 0.30940  0.00000  0.80580  Biso   1.000  C
  C1106    1.0000 0.28320  0.00000  0.85770  Biso   1.000  C
  C1107    1.0000 0.31520  0.00000  0.84180  Biso   1.000  C
  C1108    1.0000 0.21850  0.00000  0.88540  Biso   1.000  C
  C1109    1.0000 0.18640  0.00000  0.90280  Biso   1.000  C
  C1110    1.0000 0.09140  0.00000  0.93990  Biso   1.000  C
  C1111    1.0000 0.12430  0.00000  0.92550  Biso   1.000  C
  O242     1.0000 0.97180  0.00000  0.94950  Biso   1.000  O
  C1112    1.0000 0.69060  0.00000  0.80580  Biso   1.000  C
  C1113    1.0000 0.71680  0.00000  0.85770  Biso   1.000  C
  C1114    1.0000 0.68480  0.00000  0.84180  Biso   1.000  C
  C1115    1.0000 0.78150  0.00000  0.88540  Biso   1.000  C
  C1116    1.0000 0.81360  0.00000  0.90280  Biso   1.000  C
  C1117    1.0000 0.90860  0.00000  0.93990  Biso   1.000  C
  C1118    1.0000 0.87570  0.00000  0.92550  Biso   1.000  C
  O243     1.0000 0.97180  0.00000  0.05050  Biso   1.000  O
  C1119    1.0000 0.69060  0.00000  0.19420  Biso   1.000  C
  C1120    1.0000 0.71680  0.00000  0.14230  Biso   1.000  C
  C1121    1.0000 0.68480  0.00000  0.15820  Biso   1.000  C
  C1122    1.0000 0.78150  0.00000  0.11460  Biso   1.000  C
  C1123    1.0000 0.81360  0.00000  0.09720  Biso   1.000  C
  C1124    1.0000 0.90860  0.00000  0.06010  Biso   1.000  C
  C1125    1.0000 0.87570  0.00000  0.07450  Biso   1.000  C
  O244     1.0000 0.02820  0.00000  0.05050  Biso   1.000  O
  C1126    1.0000 0.30940  0.00000  0.19420  Biso   1.000  C
  C1127    1.0000 0.28320  0.00000  0.14230  Biso   1.000  C
  C1128    1.0000 0.31520  0.00000  0.15820  Biso   1.000  C
  C1129    1.0000 0.21850  0.00000  0.11460  Biso   1.000  C
  C1130    1.0000 0.18640  0.00000  0.09720  Biso   1.000  C
  C1131    1.0000 0.09140  0.00000  0.06010  Biso   1.000  C
  C1132    1.0000 0.12430  0.00000  0.07450  Biso   1.000  C
  O245     1.0000 0.94950  0.02820  0.00000  Biso   1.000  O
  C1133    1.0000 0.80580  0.30940  0.00000  Biso   1.000  C
  C1134    1.0000 0.85770  0.28320  0.00000  Biso   1.000  C
  C1135    1.0000 0.84180  0.31520  0.00000  Biso   1.000  C
  C1136    1.0000 0.88540  0.21850  0.00000  Biso   1.000  C
  C1137    1.0000 0.90280  0.18640  0.00000  Biso   1.000  C
  C1138    1.0000 0.93990  0.09140  0.00000  Biso   1.000  C
  C1139    1.0000 0.92550  0.12430  0.00000  Biso   1.000  C
  O246     1.0000 0.94950  0.97180  0.00000  Biso   1.000  O
  C1140    1.0000 0.80580  0.69060  0.00000  Biso   1.000  C
  C1141    1.0000 0.85770  0.71680  0.00000  Biso   1.000  C
  C1142    1.0000 0.84180  0.68480  0.00000  Biso   1.000  C
  C1143    1.0000 0.88540  0.78150  0.00000  Biso   1.000  C
  C1144    1.0000 0.90280  0.81360  0.00000  Biso   1.000  C
  C1145    1.0000 0.93990  0.90860  0.00000  Biso   1.000  C
  C1146    1.0000 0.92550  0.87570  0.00000  Biso   1.000  C
  O247     1.0000 0.05050  0.97180  0.00000  Biso   1.000  O
  C1147    1.0000 0.19420  0.69060  0.00000  Biso   1.000  C
  C1148    1.0000 0.14230  0.71680  0.00000  Biso   1.000  C
  C1149    1.0000 0.15820  0.68480  0.00000  Biso   1.000  C
  C1150    1.0000 0.11460  0.78150  0.00000  Biso   1.000  C
  C1151    1.0000 0.09720  0.81360  0.00000  Biso   1.000  C
  C1152    1.0000 0.06010  0.90860  0.00000  Biso   1.000  C
  C1153    1.0000 0.07450  0.87570  0.00000  Biso   1.000  C
  O248     1.0000 0.05050  0.02820  0.00000  Biso   1.000  O
  C1154    1.0000 0.19420  0.30940  0.00000  Biso   1.000  C
  C1155    1.0000 0.14230  0.28320  0.00000  Biso   1.000  C
  C1156    1.0000 0.15820  0.31520  0.00000  Biso   1.000  C
  C1157    1.0000 0.11460  0.21850  0.00000  Biso   1.000  C
  C1158    1.0000 0.09720  0.18640  0.00000  Biso   1.000  C
  C1159    1.0000 0.06010  0.09140  0.00000  Biso   1.000  C
  C1160    1.0000 0.07450  0.12430  0.00000  Biso   1.000  C
  O249     1.0000 0.00000  0.94950  0.02820  Biso   1.000  O
  C1161    1.0000 0.00000  0.80580  0.30940  Biso   1.000  C
  C1162    1.0000 0.00000  0.85770  0.28320  Biso   1.000  C
  C1163    1.0000 0.00000  0.84180  0.31520  Biso   1.000  C
  C1164    1.0000 0.00000  0.88540  0.21850  Biso   1.000  C
  C1165    1.0000 0.00000  0.90280  0.18640  Biso   1.000  C
  C1166    1.0000 0.00000  0.93990  0.09140  Biso   1.000  C
  C1167    1.0000 0.00000  0.92550  0.12430  Biso   1.000  C
  O250     1.0000 0.00000  0.94950  0.97180  Biso   1.000  O
  C1168    1.0000 0.00000  0.80580  0.69060  Biso   1.000  C
  C1169    1.0000 0.00000  0.85770  0.71680  Biso   1.000  C
  C1170    1.0000 0.00000  0.84180  0.68480  Biso   1.000  C
  C1171    1.0000 0.00000  0.88540  0.78150  Biso   1.000  C
  C1172    1.0000 0.00000  0.90280  0.81360  Biso   1.000  C
  C1173    1.0000 0.00000  0.93990  0.90860  Biso   1.000  C
  C1174    1.0000 0.00000  0.92550  0.87570  Biso   1.000  C
  O251     1.0000 0.00000  0.05050  0.97180  Biso   1.000  O
  C1175    1.0000 0.00000  0.19420  0.69060  Biso   1.000  C
  C1176    1.0000 0.00000  0.14230  0.71680  Biso   1.000  C
  C1177    1.0000 0.00000  0.15820  0.68480  Biso   1.000  C
  C1178    1.0000 0.00000  0.11460  0.78150  Biso   1.000  C
  C1179    1.0000 0.00000  0.09720  0.81360  Biso   1.000  C
  C1180    1.0000 0.00000  0.06010  0.90860  Biso   1.000  C
  C1181    1.0000 0.00000  0.07450  0.87570  Biso   1.000  C
  O252     1.0000 0.00000  0.05050  0.02820  Biso   1.000  O
  C1182    1.0000 0.00000  0.19420  0.30940  Biso   1.000  C
  C1183    1.0000 0.00000  0.14230  0.28320  Biso   1.000  C
  C1184    1.0000 0.00000  0.15820  0.31520  Biso   1.000  C
  C1185    1.0000 0.00000  0.11460  0.21850  Biso   1.000  C
  C1186    1.0000 0.00000  0.09720  0.18640  Biso   1.000  C
  C1187    1.0000 0.00000  0.06010  0.09140  Biso   1.000  C
  C1188    1.0000 0.00000  0.07450  0.12430  Biso   1.000  C
  O253     1.0000 0.50000  0.52820  0.55050  Biso   1.000  O
  C1189    1.0000 0.50000  0.80940  0.69420  Biso   1.000  C
  C1190    1.0000 0.50000  0.78320  0.64230  Biso   1.000  C
  C1191    1.0000 0.50000  0.81520  0.65820  Biso   1.000  C
  C1192    1.0000 0.50000  0.71850  0.61460  Biso   1.000  C
  C1193    1.0000 0.50000  0.68640  0.59720  Biso   1.000  C
  C1194    1.0000 0.50000  0.59140  0.56010  Biso   1.000  C
  C1195    1.0000 0.50000  0.62430  0.57450  Biso   1.000  C
  O254     1.0000 0.50000  0.47180  0.55050  Biso   1.000  O
  C1196    1.0000 0.50000  0.19060  0.69420  Biso   1.000  C
  C1197    1.0000 0.50000  0.21680  0.64230  Biso   1.000  C
  C1198    1.0000 0.50000  0.18480  0.65820  Biso   1.000  C
  C1199    1.0000 0.50000  0.28150  0.61460  Biso   1.000  C
  C1200    1.0000 0.50000  0.31360  0.59720  Biso   1.000  C
  C1201    1.0000 0.50000  0.40860  0.56010  Biso   1.000  C
  C1202    1.0000 0.50000  0.37570  0.57450  Biso   1.000  C
  O255     1.0000 0.50000  0.47180  0.44950  Biso   1.000  O
  C1203    1.0000 0.50000  0.19060  0.30580  Biso   1.000  C
  C1204    1.0000 0.50000  0.21680  0.35770  Biso   1.000  C
  C1205    1.0000 0.50000  0.18480  0.34180  Biso   1.000  C
  C1206    1.0000 0.50000  0.28150  0.38540  Biso   1.000  C
  C1207    1.0000 0.50000  0.31360  0.40280  Biso   1.000  C
  C1208    1.0000 0.50000  0.40860  0.43990  Biso   1.000  C
  C1209    1.0000 0.50000  0.37570  0.42550  Biso   1.000  C
  O256     1.0000 0.50000  0.52820  0.44950  Biso   1.000  O
  C1210    1.0000 0.50000  0.80940  0.30580  Biso   1.000  C
  C1211    1.0000 0.50000  0.78320  0.35770  Biso   1.000  C
  C1212    1.0000 0.50000  0.81520  0.34180  Biso   1.000  C
  C1213    1.0000 0.50000  0.71850  0.38540  Biso   1.000  C
  C1214    1.0000 0.50000  0.68640  0.40280  Biso   1.000  C
  C1215    1.0000 0.50000  0.59140  0.43990  Biso   1.000  C
  C1216    1.0000 0.50000  0.62430  0.42550  Biso   1.000  C
  O257     1.0000 0.52820  0.44950  0.50000  Biso   1.000  O
  C1217    1.0000 0.80940  0.30580  0.50000  Biso   1.000  C
  C1218    1.0000 0.78320  0.35770  0.50000  Biso   1.000  C
  C1219    1.0000 0.81520  0.34180  0.50000  Biso   1.000  C
  C1220    1.0000 0.71850  0.38540  0.50000  Biso   1.000  C
  C1221    1.0000 0.68640  0.40280  0.50000  Biso   1.000  C
  C1222    1.0000 0.59140  0.43990  0.50000  Biso   1.000  C
  C1223    1.0000 0.62430  0.42550  0.50000  Biso   1.000  C
  O258     1.0000 0.47180  0.44950  0.50000  Biso   1.000  O
  C1224    1.0000 0.19060  0.30580  0.50000  Biso   1.000  C
  C1225    1.0000 0.21680  0.35770  0.50000  Biso   1.000  C
  C1226    1.0000 0.18480  0.34180  0.50000  Biso   1.000  C
  C1227    1.0000 0.28150  0.38540  0.50000  Biso   1.000  C
  C1228    1.0000 0.31360  0.40280  0.50000  Biso   1.000  C
  C1229    1.0000 0.40860  0.43990  0.50000  Biso   1.000  C
  C1230    1.0000 0.37570  0.42550  0.50000  Biso   1.000  C
  O259     1.0000 0.47180  0.55050  0.50000  Biso   1.000  O
  C1231    1.0000 0.19060  0.69420  0.50000  Biso   1.000  C
  C1232    1.0000 0.21680  0.64230  0.50000  Biso   1.000  C
  C1233    1.0000 0.18480  0.65820  0.50000  Biso   1.000  C
  C1234    1.0000 0.28150  0.61460  0.50000  Biso   1.000  C
  C1235    1.0000 0.31360  0.59720  0.50000  Biso   1.000  C
  C1236    1.0000 0.40860  0.56010  0.50000  Biso   1.000  C
  C1237    1.0000 0.37570  0.57450  0.50000  Biso   1.000  C
  O260     1.0000 0.52820  0.55050  0.50000  Biso   1.000  O
  C1238    1.0000 0.80940  0.69420  0.50000  Biso   1.000  C
  C1239    1.0000 0.78320  0.64230  0.50000  Biso   1.000  C
  C1240    1.0000 0.81520  0.65820  0.50000  Biso   1.000  C
  C1241    1.0000 0.71850  0.61460  0.50000  Biso   1.000  C
  C1242    1.0000 0.68640  0.59720  0.50000  Biso   1.000  C
  C1243    1.0000 0.59140  0.56010  0.50000  Biso   1.000  C
  C1244    1.0000 0.62430  0.57450  0.50000  Biso   1.000  C
  O261     1.0000 0.44950  0.50000  0.47180  Biso   1.000  O
  C1245    1.0000 0.30580  0.50000  0.19060  Biso   1.000  C
  C1246    1.0000 0.35770  0.50000  0.21680  Biso   1.000  C
  C1247    1.0000 0.34180  0.50000  0.18480  Biso   1.000  C
  C1248    1.0000 0.38540  0.50000  0.28150  Biso   1.000  C
  C1249    1.0000 0.40280  0.50000  0.31360  Biso   1.000  C
  C1250    1.0000 0.43990  0.50000  0.40860  Biso   1.000  C
  C1251    1.0000 0.42550  0.50000  0.37570  Biso   1.000  C
  O262     1.0000 0.44950  0.50000  0.52820  Biso   1.000  O
  C1252    1.0000 0.30580  0.50000  0.80940  Biso   1.000  C
  C1253    1.0000 0.35770  0.50000  0.78320  Biso   1.000  C
  C1254    1.0000 0.34180  0.50000  0.81520  Biso   1.000  C
  C1255    1.0000 0.38540  0.50000  0.71850  Biso   1.000  C
  C1256    1.0000 0.40280  0.50000  0.68640  Biso   1.000  C
  C1257    1.0000 0.43990  0.50000  0.59140  Biso   1.000  C
  C1258    1.0000 0.42550  0.50000  0.62430  Biso   1.000  C
  O263     1.0000 0.55050  0.50000  0.52820  Biso   1.000  O
  C1259    1.0000 0.69420  0.50000  0.80940  Biso   1.000  C
  C1260    1.0000 0.64230  0.50000  0.78320  Biso   1.000  C
  C1261    1.0000 0.65820  0.50000  0.81520  Biso   1.000  C
  C1262    1.0000 0.61460  0.50000  0.71850  Biso   1.000  C
  C1263    1.0000 0.59720  0.50000  0.68640  Biso   1.000  C
  C1264    1.0000 0.56010  0.50000  0.59140  Biso   1.000  C
  C1265    1.0000 0.57450  0.50000  0.62430  Biso   1.000  C
  O264     1.0000 0.55050  0.50000  0.47180  Biso   1.000  O
  C1266    1.0000 0.69420  0.50000  0.19060  Biso   1.000  C
  C1267    1.0000 0.64230  0.50000  0.21680  Biso   1.000  C
  C1268    1.0000 0.65820  0.50000  0.18480  Biso   1.000  C
  C1269    1.0000 0.61460  0.50000  0.28150  Biso   1.000  C
  C1270    1.0000 0.59720  0.50000  0.31360  Biso   1.000  C
  C1271    1.0000 0.56010  0.50000  0.40860  Biso   1.000  C
  C1272    1.0000 0.57450  0.50000  0.37570  Biso   1.000  C
