data_image0
_cell_length_a       41.516
_cell_length_b       41.516
_cell_length_c       41.516
_cell_angle_alpha    90
_cell_angle_beta     90
_cell_angle_gamma    90

_symmetry_space_group_name_H-M    "P 1"
_symmetry_int_tables_number       1

loop_
  _symmetry_equiv_pos_as_xyz
  'x, y, z'

loop_
  _atom_site_label
  _atom_site_occupancy
  _atom_site_fract_x
  _atom_site_fract_y
  _atom_site_fract_z
  _atom_site_thermal_displace_type
  _atom_site_B_iso_or_equiv
  _atom_site_type_symbol
  O1       1.0000 0.94010  0.56119  0.70420  Biso   1.000  O
  O2       1.0000 0.97260  0.59318  0.74780  Biso   1.000  O
  O3       1.0000 0.03170  0.46570  0.66480  Biso   1.000  O
  C1       1.0000 0.93090  0.57390  0.65020  Biso   1.000  C
  C2       1.0000 0.91900  0.58450  0.59480  Biso   1.000  C
  C3       1.0000 0.93860  0.56930  0.61750  Biso   1.000  C
  C4       1.0000 0.90600  0.59700  0.66030  Biso   1.000  C
  C5       1.0000 0.88590  0.61000  0.63590  Biso   1.000  C
  C6       1.0000 0.89340  0.60570  0.60300  Biso   1.000  C
  C7       1.0000 0.94900  0.55410  0.67510  Biso   1.000  C
  C8       1.0000 0.02960  0.65720  0.72980  Biso   1.000  C
  C9       1.0000 0.87190  0.61970  0.58060  Biso   1.000  C
  C10      1.0000 0.84030  0.60900  0.57720  Biso   1.000  C
  C11      1.0000 0.82050  0.62290  0.55400  Biso   1.000  C
  C12      1.0000 0.83220  0.64730  0.53430  Biso   1.000  C
  C13      1.0000 0.86380  0.65790  0.53780  Biso   1.000  C
  C14      1.0000 0.88360  0.64410  0.56090  Biso   1.000  C
  C15      1.0000 0.02870  0.68980  0.72120  Biso   1.000  C
  O4       1.0000 0.97570  0.94080  0.92200  Biso   1.000  O
  C16      1.0000 0.97720  0.86990  0.77180  Biso   1.000  C
  C17      1.0000 0.97500  0.85180  0.73970  Biso   1.000  C
  C18      1.0000 0.97370  0.90360  0.82990  Biso   1.000  C
  C19      1.0000 0.97520  0.75670  0.70520  Biso   1.000  C
  C20      1.0000 0.97470  0.79020  0.69660  Biso   1.000  C
  C21      1.0000 0.97300  0.91350  0.86220  Biso   1.000  C
  O5       1.0000 0.05990  0.43881  0.70420  Biso   1.000  O
  O6       1.0000 0.02740  0.40682  0.74780  Biso   1.000  O
  O7       1.0000 0.96830  0.53430  0.66480  Biso   1.000  O
  C22      1.0000 0.06910  0.42610  0.65020  Biso   1.000  C
  C23      1.0000 0.08100  0.41550  0.59480  Biso   1.000  C
  C24      1.0000 0.06140  0.43070  0.61750  Biso   1.000  C
  C25      1.0000 0.09400  0.40300  0.66030  Biso   1.000  C
  C26      1.0000 0.11410  0.39000  0.63590  Biso   1.000  C
  C27      1.0000 0.10660  0.39430  0.60300  Biso   1.000  C
  C28      1.0000 0.05100  0.44590  0.67510  Biso   1.000  C
  C29      1.0000 0.97040  0.34280  0.72980  Biso   1.000  C
  C30      1.0000 0.12810  0.38030  0.58060  Biso   1.000  C
  C31      1.0000 0.15970  0.39100  0.57720  Biso   1.000  C
  C32      1.0000 0.17950  0.37710  0.55400  Biso   1.000  C
  C33      1.0000 0.16780  0.35270  0.53430  Biso   1.000  C
  C34      1.0000 0.13620  0.34210  0.53780  Biso   1.000  C
  C35      1.0000 0.11640  0.35590  0.56090  Biso   1.000  C
  C36      1.0000 0.97130  0.31020  0.72120  Biso   1.000  C
  O8       1.0000 0.02430  0.05920  0.92200  Biso   1.000  O
  C37      1.0000 0.02280  0.13010  0.77180  Biso   1.000  C
  C38      1.0000 0.02500  0.14820  0.73970  Biso   1.000  C
  C39      1.0000 0.02630  0.09640  0.82990  Biso   1.000  C
  C40      1.0000 0.02480  0.24330  0.70520  Biso   1.000  C
  C41      1.0000 0.02530  0.20980  0.69660  Biso   1.000  C
  C42      1.0000 0.02700  0.08650  0.86220  Biso   1.000  C
  O9       1.0000 0.05990  0.56119  0.29580  Biso   1.000  O
  O10      1.0000 0.02740  0.59318  0.25220  Biso   1.000  O
  O11      1.0000 0.96830  0.46570  0.33520  Biso   1.000  O
  C43      1.0000 0.06910  0.57390  0.34980  Biso   1.000  C
  C44      1.0000 0.08100  0.58450  0.40520  Biso   1.000  C
  C45      1.0000 0.06140  0.56930  0.38250  Biso   1.000  C
  C46      1.0000 0.09400  0.59700  0.33970  Biso   1.000  C
  C47      1.0000 0.11410  0.61000  0.36410  Biso   1.000  C
  C48      1.0000 0.10660  0.60570  0.39700  Biso   1.000  C
  C49      1.0000 0.05100  0.55410  0.32490  Biso   1.000  C
  C50      1.0000 0.97040  0.65720  0.27020  Biso   1.000  C
  C51      1.0000 0.12810  0.61970  0.41940  Biso   1.000  C
  C52      1.0000 0.15970  0.60900  0.42280  Biso   1.000  C
  C53      1.0000 0.17950  0.62290  0.44600  Biso   1.000  C
  C54      1.0000 0.16780  0.64730  0.46570  Biso   1.000  C
  C55      1.0000 0.13620  0.65790  0.46220  Biso   1.000  C
  C56      1.0000 0.11640  0.64410  0.43910  Biso   1.000  C
  C57      1.0000 0.97130  0.68980  0.27880  Biso   1.000  C
  O12      1.0000 0.02430  0.94080  0.07800  Biso   1.000  O
  C58      1.0000 0.02280  0.86990  0.22820  Biso   1.000  C
  C59      1.0000 0.02500  0.85180  0.26030  Biso   1.000  C
  C60      1.0000 0.02630  0.90360  0.17010  Biso   1.000  C
  C61      1.0000 0.02480  0.75670  0.29480  Biso   1.000  C
  C62      1.0000 0.02530  0.79020  0.30340  Biso   1.000  C
  C63      1.0000 0.02700  0.91350  0.13780  Biso   1.000  C
  O13      1.0000 0.94010  0.43881  0.29580  Biso   1.000  O
  O14      1.0000 0.97260  0.40682  0.25220  Biso   1.000  O
  O15      1.0000 0.03170  0.53430  0.33520  Biso   1.000  O
  C64      1.0000 0.93090  0.42610  0.34980  Biso   1.000  C
  C65      1.0000 0.91900  0.41550  0.40520  Biso   1.000  C
  C66      1.0000 0.93860  0.43070  0.38250  Biso   1.000  C
  C67      1.0000 0.90600  0.40300  0.33970  Biso   1.000  C
  C68      1.0000 0.88590  0.39000  0.36410  Biso   1.000  C
  C69      1.0000 0.89340  0.39430  0.39700  Biso   1.000  C
  C70      1.0000 0.94900  0.44590  0.32490  Biso   1.000  C
  C71      1.0000 0.02960  0.34280  0.27020  Biso   1.000  C
  C72      1.0000 0.87190  0.38030  0.41940  Biso   1.000  C
  C73      1.0000 0.84030  0.39100  0.42280  Biso   1.000  C
  C74      1.0000 0.82050  0.37710  0.44600  Biso   1.000  C
  C75      1.0000 0.83220  0.35270  0.46570  Biso   1.000  C
  C76      1.0000 0.86380  0.34210  0.46220  Biso   1.000  C
  C77      1.0000 0.88360  0.35590  0.43910  Biso   1.000  C
  C78      1.0000 0.02870  0.31020  0.27880  Biso   1.000  C
  O16      1.0000 0.97570  0.05920  0.07800  Biso   1.000  O
  C79      1.0000 0.97720  0.13010  0.22820  Biso   1.000  C
  C80      1.0000 0.97500  0.14820  0.26030  Biso   1.000  C
  C81      1.0000 0.97370  0.09640  0.17010  Biso   1.000  C
  C82      1.0000 0.97520  0.24330  0.29480  Biso   1.000  C
  C83      1.0000 0.97470  0.20980  0.30340  Biso   1.000  C
  C84      1.0000 0.97300  0.08650  0.13780  Biso   1.000  C
  O17      1.0000 0.70420  0.94010  0.56119  Biso   1.000  O
  O18      1.0000 0.74780  0.97260  0.59318  Biso   1.000  O
  O19      1.0000 0.66480  0.03170  0.46570  Biso   1.000  O
  C85      1.0000 0.65020  0.93090  0.57390  Biso   1.000  C
  C86      1.0000 0.59480  0.91900  0.58450  Biso   1.000  C
  C87      1.0000 0.61750  0.93860  0.56930  Biso   1.000  C
  C88      1.0000 0.66030  0.90600  0.59700  Biso   1.000  C
  C89      1.0000 0.63590  0.88590  0.61000  Biso   1.000  C
  C90      1.0000 0.60300  0.89340  0.60570  Biso   1.000  C
  C91      1.0000 0.67510  0.94900  0.55410  Biso   1.000  C
  C92      1.0000 0.72980  0.02960  0.65720  Biso   1.000  C
  C93      1.0000 0.58060  0.87190  0.61970  Biso   1.000  C
  C94      1.0000 0.57720  0.84030  0.60900  Biso   1.000  C
  C95      1.0000 0.55400  0.82050  0.62290  Biso   1.000  C
  C96      1.0000 0.53430  0.83220  0.64730  Biso   1.000  C
  C97      1.0000 0.53780  0.86380  0.65790  Biso   1.000  C
  C98      1.0000 0.56090  0.88360  0.64410  Biso   1.000  C
  C99      1.0000 0.72120  0.02870  0.68980  Biso   1.000  C
  O20      1.0000 0.92200  0.97570  0.94080  Biso   1.000  O
  C100     1.0000 0.77180  0.97720  0.86990  Biso   1.000  C
  C101     1.0000 0.73970  0.97500  0.85180  Biso   1.000  C
  C102     1.0000 0.82990  0.97370  0.90360  Biso   1.000  C
  C103     1.0000 0.70520  0.97520  0.75670  Biso   1.000  C
  C104     1.0000 0.69660  0.97470  0.79020  Biso   1.000  C
  C105     1.0000 0.86220  0.97300  0.91350  Biso   1.000  C
  O21      1.0000 0.70420  0.05990  0.43881  Biso   1.000  O
  O22      1.0000 0.74780  0.02740  0.40682  Biso   1.000  O
  O23      1.0000 0.66480  0.96830  0.53430  Biso   1.000  O
  C106     1.0000 0.65020  0.06910  0.42610  Biso   1.000  C
  C107     1.0000 0.59480  0.08100  0.41550  Biso   1.000  C
  C108     1.0000 0.61750  0.06140  0.43070  Biso   1.000  C
  C109     1.0000 0.66030  0.09400  0.40300  Biso   1.000  C
  C110     1.0000 0.63590  0.11410  0.39000  Biso   1.000  C
  C111     1.0000 0.60300  0.10660  0.39430  Biso   1.000  C
  C112     1.0000 0.67510  0.05100  0.44590  Biso   1.000  C
  C113     1.0000 0.72980  0.97040  0.34280  Biso   1.000  C
  C114     1.0000 0.58060  0.12810  0.38030  Biso   1.000  C
  C115     1.0000 0.57720  0.15970  0.39100  Biso   1.000  C
  C116     1.0000 0.55400  0.17950  0.37710  Biso   1.000  C
  C117     1.0000 0.53430  0.16780  0.35270  Biso   1.000  C
  C118     1.0000 0.53780  0.13620  0.34210  Biso   1.000  C
  C119     1.0000 0.56090  0.11640  0.35590  Biso   1.000  C
  C120     1.0000 0.72120  0.97130  0.31020  Biso   1.000  C
  O24      1.0000 0.92200  0.02430  0.05920  Biso   1.000  O
  C121     1.0000 0.77180  0.02280  0.13010  Biso   1.000  C
  C122     1.0000 0.73970  0.02500  0.14820  Biso   1.000  C
  C123     1.0000 0.82990  0.02630  0.09640  Biso   1.000  C
  C124     1.0000 0.70520  0.02480  0.24330  Biso   1.000  C
  C125     1.0000 0.69660  0.02530  0.20980  Biso   1.000  C
  C126     1.0000 0.86220  0.02700  0.08650  Biso   1.000  C
  O25      1.0000 0.29580  0.05990  0.56119  Biso   1.000  O
  O26      1.0000 0.25220  0.02740  0.59318  Biso   1.000  O
  O27      1.0000 0.33520  0.96830  0.46570  Biso   1.000  O
  C127     1.0000 0.34980  0.06910  0.57390  Biso   1.000  C
  C128     1.0000 0.40520  0.08100  0.58450  Biso   1.000  C
  C129     1.0000 0.38250  0.06140  0.56930  Biso   1.000  C
  C130     1.0000 0.33970  0.09400  0.59700  Biso   1.000  C
  C131     1.0000 0.36410  0.11410  0.61000  Biso   1.000  C
  C132     1.0000 0.39700  0.10660  0.60570  Biso   1.000  C
  C133     1.0000 0.32490  0.05100  0.55410  Biso   1.000  C
  C134     1.0000 0.27020  0.97040  0.65720  Biso   1.000  C
  C135     1.0000 0.41940  0.12810  0.61970  Biso   1.000  C
  C136     1.0000 0.42280  0.15970  0.60900  Biso   1.000  C
  C137     1.0000 0.44600  0.17950  0.62290  Biso   1.000  C
  C138     1.0000 0.46570  0.16780  0.64730  Biso   1.000  C
  C139     1.0000 0.46220  0.13620  0.65790  Biso   1.000  C
  C140     1.0000 0.43910  0.11640  0.64410  Biso   1.000  C
  C141     1.0000 0.27880  0.97130  0.68980  Biso   1.000  C
  O28      1.0000 0.07800  0.02430  0.94080  Biso   1.000  O
  C142     1.0000 0.22820  0.02280  0.86990  Biso   1.000  C
  C143     1.0000 0.26030  0.02500  0.85180  Biso   1.000  C
  C144     1.0000 0.17010  0.02630  0.90360  Biso   1.000  C
  C145     1.0000 0.29480  0.02480  0.75670  Biso   1.000  C
  C146     1.0000 0.30340  0.02530  0.79020  Biso   1.000  C
  C147     1.0000 0.13780  0.02700  0.91350  Biso   1.000  C
  O29      1.0000 0.29580  0.94010  0.43881  Biso   1.000  O
  O30      1.0000 0.25220  0.97260  0.40682  Biso   1.000  O
  O31      1.0000 0.33520  0.03170  0.53430  Biso   1.000  O
  C148     1.0000 0.34980  0.93090  0.42610  Biso   1.000  C
  C149     1.0000 0.40520  0.91900  0.41550  Biso   1.000  C
  C150     1.0000 0.38250  0.93860  0.43070  Biso   1.000  C
  C151     1.0000 0.33970  0.90600  0.40300  Biso   1.000  C
  C152     1.0000 0.36410  0.88590  0.39000  Biso   1.000  C
  C153     1.0000 0.39700  0.89340  0.39430  Biso   1.000  C
  C154     1.0000 0.32490  0.94900  0.44590  Biso   1.000  C
  C155     1.0000 0.27020  0.02960  0.34280  Biso   1.000  C
  C156     1.0000 0.41940  0.87190  0.38030  Biso   1.000  C
  C157     1.0000 0.42280  0.84030  0.39100  Biso   1.000  C
  C158     1.0000 0.44600  0.82050  0.37710  Biso   1.000  C
  C159     1.0000 0.46570  0.83220  0.35270  Biso   1.000  C
  C160     1.0000 0.46220  0.86380  0.34210  Biso   1.000  C
  C161     1.0000 0.43910  0.88360  0.35590  Biso   1.000  C
  C162     1.0000 0.27880  0.02870  0.31020  Biso   1.000  C
  O32      1.0000 0.07800  0.97570  0.05920  Biso   1.000  O
  C163     1.0000 0.22820  0.97720  0.13010  Biso   1.000  C
  C164     1.0000 0.26030  0.97500  0.14820  Biso   1.000  C
  C165     1.0000 0.17010  0.97370  0.09640  Biso   1.000  C
  C166     1.0000 0.29480  0.97520  0.24330  Biso   1.000  C
  C167     1.0000 0.30340  0.97470  0.20980  Biso   1.000  C
  C168     1.0000 0.13780  0.97300  0.08650  Biso   1.000  C
  O33      1.0000 0.56119  0.70420  0.94010  Biso   1.000  O
  O34      1.0000 0.59318  0.74780  0.97260  Biso   1.000  O
  O35      1.0000 0.46570  0.66480  0.03170  Biso   1.000  O
  C169     1.0000 0.57390  0.65020  0.93090  Biso   1.000  C
  C170     1.0000 0.58450  0.59480  0.91900  Biso   1.000  C
  C171     1.0000 0.56930  0.61750  0.93860  Biso   1.000  C
  C172     1.0000 0.59700  0.66030  0.90600  Biso   1.000  C
  C173     1.0000 0.61000  0.63590  0.88590  Biso   1.000  C
  C174     1.0000 0.60570  0.60300  0.89340  Biso   1.000  C
  C175     1.0000 0.55410  0.67510  0.94900  Biso   1.000  C
  C176     1.0000 0.65720  0.72980  0.02960  Biso   1.000  C
  C177     1.0000 0.61970  0.58060  0.87190  Biso   1.000  C
  C178     1.0000 0.60900  0.57720  0.84030  Biso   1.000  C
  C179     1.0000 0.62290  0.55400  0.82050  Biso   1.000  C
  C180     1.0000 0.64730  0.53430  0.83220  Biso   1.000  C
  C181     1.0000 0.65790  0.53780  0.86380  Biso   1.000  C
  C182     1.0000 0.64410  0.56090  0.88360  Biso   1.000  C
  C183     1.0000 0.68980  0.72120  0.02870  Biso   1.000  C
  O36      1.0000 0.94080  0.92200  0.97570  Biso   1.000  O
  C184     1.0000 0.86990  0.77180  0.97720  Biso   1.000  C
  C185     1.0000 0.85180  0.73970  0.97500  Biso   1.000  C
  C186     1.0000 0.90360  0.82990  0.97370  Biso   1.000  C
  C187     1.0000 0.75670  0.70520  0.97520  Biso   1.000  C
  C188     1.0000 0.79020  0.69660  0.97470  Biso   1.000  C
  C189     1.0000 0.91350  0.86220  0.97300  Biso   1.000  C
  O37      1.0000 0.43881  0.70420  0.05990  Biso   1.000  O
  O38      1.0000 0.40682  0.74780  0.02740  Biso   1.000  O
  O39      1.0000 0.53430  0.66480  0.96830  Biso   1.000  O
  C190     1.0000 0.42610  0.65020  0.06910  Biso   1.000  C
  C191     1.0000 0.41550  0.59480  0.08100  Biso   1.000  C
  C192     1.0000 0.43070  0.61750  0.06140  Biso   1.000  C
  C193     1.0000 0.40300  0.66030  0.09400  Biso   1.000  C
  C194     1.0000 0.39000  0.63590  0.11410  Biso   1.000  C
  C195     1.0000 0.39430  0.60300  0.10660  Biso   1.000  C
  C196     1.0000 0.44590  0.67510  0.05100  Biso   1.000  C
  C197     1.0000 0.34280  0.72980  0.97040  Biso   1.000  C
  C198     1.0000 0.38030  0.58060  0.12810  Biso   1.000  C
  C199     1.0000 0.39100  0.57720  0.15970  Biso   1.000  C
  C200     1.0000 0.37710  0.55400  0.17950  Biso   1.000  C
  C201     1.0000 0.35270  0.53430  0.16780  Biso   1.000  C
  C202     1.0000 0.34210  0.53780  0.13620  Biso   1.000  C
  C203     1.0000 0.35590  0.56090  0.11640  Biso   1.000  C
  C204     1.0000 0.31020  0.72120  0.97130  Biso   1.000  C
  O40      1.0000 0.05920  0.92200  0.02430  Biso   1.000  O
  C205     1.0000 0.13010  0.77180  0.02280  Biso   1.000  C
  C206     1.0000 0.14820  0.73970  0.02500  Biso   1.000  C
  C207     1.0000 0.09640  0.82990  0.02630  Biso   1.000  C
  C208     1.0000 0.24330  0.70520  0.02480  Biso   1.000  C
  C209     1.0000 0.20980  0.69660  0.02530  Biso   1.000  C
  C210     1.0000 0.08650  0.86220  0.02700  Biso   1.000  C
  O41      1.0000 0.56119  0.29580  0.05990  Biso   1.000  O
  O42      1.0000 0.59318  0.25220  0.02740  Biso   1.000  O
  O43      1.0000 0.46570  0.33520  0.96830  Biso   1.000  O
  C211     1.0000 0.57390  0.34980  0.06910  Biso   1.000  C
  C212     1.0000 0.58450  0.40520  0.08100  Biso   1.000  C
  C213     1.0000 0.56930  0.38250  0.06140  Biso   1.000  C
  C214     1.0000 0.59700  0.33970  0.09400  Biso   1.000  C
  C215     1.0000 0.61000  0.36410  0.11410  Biso   1.000  C
  C216     1.0000 0.60570  0.39700  0.10660  Biso   1.000  C
  C217     1.0000 0.55410  0.32490  0.05100  Biso   1.000  C
  C218     1.0000 0.65720  0.27020  0.97040  Biso   1.000  C
  C219     1.0000 0.61970  0.41940  0.12810  Biso   1.000  C
  C220     1.0000 0.60900  0.42280  0.15970  Biso   1.000  C
  C221     1.0000 0.62290  0.44600  0.17950  Biso   1.000  C
  C222     1.0000 0.64730  0.46570  0.16780  Biso   1.000  C
  C223     1.0000 0.65790  0.46220  0.13620  Biso   1.000  C
  C224     1.0000 0.64410  0.43910  0.11640  Biso   1.000  C
  C225     1.0000 0.68980  0.27880  0.97130  Biso   1.000  C
  O44      1.0000 0.94080  0.07800  0.02430  Biso   1.000  O
  C226     1.0000 0.86990  0.22820  0.02280  Biso   1.000  C
  C227     1.0000 0.85180  0.26030  0.02500  Biso   1.000  C
  C228     1.0000 0.90360  0.17010  0.02630  Biso   1.000  C
  C229     1.0000 0.75670  0.29480  0.02480  Biso   1.000  C
  C230     1.0000 0.79020  0.30340  0.02530  Biso   1.000  C
  C231     1.0000 0.91350  0.13780  0.02700  Biso   1.000  C
  O45      1.0000 0.43881  0.29580  0.94010  Biso   1.000  O
  O46      1.0000 0.40682  0.25220  0.97260  Biso   1.000  O
  O47      1.0000 0.53430  0.33520  0.03170  Biso   1.000  O
  C232     1.0000 0.42610  0.34980  0.93090  Biso   1.000  C
  C233     1.0000 0.41550  0.40520  0.91900  Biso   1.000  C
  C234     1.0000 0.43070  0.38250  0.93860  Biso   1.000  C
  C235     1.0000 0.40300  0.33970  0.90600  Biso   1.000  C
  C236     1.0000 0.39000  0.36410  0.88590  Biso   1.000  C
  C237     1.0000 0.39430  0.39700  0.89340  Biso   1.000  C
  C238     1.0000 0.44590  0.32490  0.94900  Biso   1.000  C
  C239     1.0000 0.34280  0.27020  0.02960  Biso   1.000  C
  C240     1.0000 0.38030  0.41940  0.87190  Biso   1.000  C
  C241     1.0000 0.39100  0.42280  0.84030  Biso   1.000  C
  C242     1.0000 0.37710  0.44600  0.82050  Biso   1.000  C
  C243     1.0000 0.35270  0.46570  0.83220  Biso   1.000  C
  C244     1.0000 0.34210  0.46220  0.86380  Biso   1.000  C
  C245     1.0000 0.35590  0.43910  0.88360  Biso   1.000  C
  C246     1.0000 0.31020  0.27880  0.02870  Biso   1.000  C
  O48      1.0000 0.05920  0.07800  0.97570  Biso   1.000  O
  C247     1.0000 0.13010  0.22820  0.97720  Biso   1.000  C
  C248     1.0000 0.14820  0.26030  0.97500  Biso   1.000  C
  C249     1.0000 0.09640  0.17010  0.97370  Biso   1.000  C
  C250     1.0000 0.24330  0.29480  0.97520  Biso   1.000  C
  C251     1.0000 0.20980  0.30340  0.97470  Biso   1.000  C
  C252     1.0000 0.08650  0.13780  0.97300  Biso   1.000  C
  O49      1.0000 0.06119  0.44010  0.79580  Biso   1.000  O
  O50      1.0000 0.09318  0.47260  0.75220  Biso   1.000  O
  O51      1.0000 0.96570  0.53170  0.83520  Biso   1.000  O
  C253     1.0000 0.07390  0.43090  0.84980  Biso   1.000  C
  C254     1.0000 0.08450  0.41900  0.90520  Biso   1.000  C
  C255     1.0000 0.06930  0.43860  0.88250  Biso   1.000  C
  C256     1.0000 0.09700  0.40600  0.83970  Biso   1.000  C
  C257     1.0000 0.11000  0.38590  0.86410  Biso   1.000  C
  C258     1.0000 0.10570  0.39340  0.89700  Biso   1.000  C
  C259     1.0000 0.05410  0.44900  0.82490  Biso   1.000  C
  C260     1.0000 0.15720  0.52960  0.77020  Biso   1.000  C
  C261     1.0000 0.11970  0.37190  0.91940  Biso   1.000  C
  C262     1.0000 0.10900  0.34030  0.92280  Biso   1.000  C
  C263     1.0000 0.12290  0.32050  0.94600  Biso   1.000  C
  C264     1.0000 0.14730  0.33220  0.96570  Biso   1.000  C
  C265     1.0000 0.15790  0.36380  0.96220  Biso   1.000  C
  C266     1.0000 0.14410  0.38360  0.93910  Biso   1.000  C
  C267     1.0000 0.18980  0.52870  0.77880  Biso   1.000  C
  O52      1.0000 0.44080  0.47570  0.57800  Biso   1.000  O
  C268     1.0000 0.36990  0.47720  0.72820  Biso   1.000  C
  C269     1.0000 0.35180  0.47500  0.76030  Biso   1.000  C
  C270     1.0000 0.40360  0.47370  0.67010  Biso   1.000  C
  C271     1.0000 0.25670  0.47520  0.79480  Biso   1.000  C
  C272     1.0000 0.29020  0.47470  0.80340  Biso   1.000  C
  C273     1.0000 0.41350  0.47300  0.63780  Biso   1.000  C
  O53      1.0000 0.93881  0.55990  0.79580  Biso   1.000  O
  O54      1.0000 0.90682  0.52740  0.75220  Biso   1.000  O
  O55      1.0000 0.03430  0.46830  0.83520  Biso   1.000  O
  C274     1.0000 0.92610  0.56910  0.84980  Biso   1.000  C
  C275     1.0000 0.91550  0.58100  0.90520  Biso   1.000  C
  C276     1.0000 0.93070  0.56140  0.88250  Biso   1.000  C
  C277     1.0000 0.90300  0.59400  0.83970  Biso   1.000  C
  C278     1.0000 0.89000  0.61410  0.86410  Biso   1.000  C
  C279     1.0000 0.89430  0.60660  0.89700  Biso   1.000  C
  C280     1.0000 0.94590  0.55100  0.82490  Biso   1.000  C
  C281     1.0000 0.84280  0.47040  0.77020  Biso   1.000  C
  C282     1.0000 0.88030  0.62810  0.91940  Biso   1.000  C
  C283     1.0000 0.89100  0.65970  0.92280  Biso   1.000  C
  C284     1.0000 0.87710  0.67950  0.94600  Biso   1.000  C
  C285     1.0000 0.85270  0.66780  0.96570  Biso   1.000  C
  C286     1.0000 0.84210  0.63620  0.96220  Biso   1.000  C
  C287     1.0000 0.85590  0.61640  0.93910  Biso   1.000  C
  C288     1.0000 0.81020  0.47130  0.77880  Biso   1.000  C
  O56      1.0000 0.55920  0.52430  0.57800  Biso   1.000  O
  C289     1.0000 0.63010  0.52280  0.72820  Biso   1.000  C
  C290     1.0000 0.64820  0.52500  0.76030  Biso   1.000  C
  C291     1.0000 0.59640  0.52630  0.67010  Biso   1.000  C
  C292     1.0000 0.74330  0.52480  0.79480  Biso   1.000  C
  C293     1.0000 0.70980  0.52530  0.80340  Biso   1.000  C
  C294     1.0000 0.58650  0.52700  0.63780  Biso   1.000  C
  O57      1.0000 0.06119  0.55990  0.20420  Biso   1.000  O
  O58      1.0000 0.09318  0.52740  0.24780  Biso   1.000  O
  O59      1.0000 0.96570  0.46830  0.16480  Biso   1.000  O
  C295     1.0000 0.07390  0.56910  0.15020  Biso   1.000  C
  C296     1.0000 0.08450  0.58100  0.09480  Biso   1.000  C
  C297     1.0000 0.06930  0.56140  0.11750  Biso   1.000  C
  C298     1.0000 0.09700  0.59400  0.16030  Biso   1.000  C
  C299     1.0000 0.11000  0.61410  0.13590  Biso   1.000  C
  C300     1.0000 0.10570  0.60660  0.10300  Biso   1.000  C
  C301     1.0000 0.05410  0.55100  0.17510  Biso   1.000  C
  C302     1.0000 0.15720  0.47040  0.22980  Biso   1.000  C
  C303     1.0000 0.11970  0.62810  0.08060  Biso   1.000  C
  C304     1.0000 0.10900  0.65970  0.07720  Biso   1.000  C
  C305     1.0000 0.12290  0.67950  0.05400  Biso   1.000  C
  C306     1.0000 0.14730  0.66780  0.03430  Biso   1.000  C
  C307     1.0000 0.15790  0.63620  0.03780  Biso   1.000  C
  C308     1.0000 0.14410  0.61640  0.06090  Biso   1.000  C
  C309     1.0000 0.18980  0.47130  0.22120  Biso   1.000  C
  O60      1.0000 0.44080  0.52430  0.42200  Biso   1.000  O
  C310     1.0000 0.36990  0.52280  0.27180  Biso   1.000  C
  C311     1.0000 0.35180  0.52500  0.23970  Biso   1.000  C
  C312     1.0000 0.40360  0.52630  0.32990  Biso   1.000  C
  C313     1.0000 0.25670  0.52480  0.20520  Biso   1.000  C
  C314     1.0000 0.29020  0.52530  0.19660  Biso   1.000  C
  C315     1.0000 0.41350  0.52700  0.36220  Biso   1.000  C
  O61      1.0000 0.93881  0.44010  0.20420  Biso   1.000  O
  O62      1.0000 0.90682  0.47260  0.24780  Biso   1.000  O
  O63      1.0000 0.03430  0.53170  0.16480  Biso   1.000  O
  C316     1.0000 0.92610  0.43090  0.15020  Biso   1.000  C
  C317     1.0000 0.91550  0.41900  0.09480  Biso   1.000  C
  C318     1.0000 0.93070  0.43860  0.11750  Biso   1.000  C
  C319     1.0000 0.90300  0.40600  0.16030  Biso   1.000  C
  C320     1.0000 0.89000  0.38590  0.13590  Biso   1.000  C
  C321     1.0000 0.89430  0.39340  0.10300  Biso   1.000  C
  C322     1.0000 0.94590  0.44900  0.17510  Biso   1.000  C
  C323     1.0000 0.84280  0.52960  0.22980  Biso   1.000  C
  C324     1.0000 0.88030  0.37190  0.08060  Biso   1.000  C
  C325     1.0000 0.89100  0.34030  0.07720  Biso   1.000  C
  C326     1.0000 0.87710  0.32050  0.05400  Biso   1.000  C
  C327     1.0000 0.85270  0.33220  0.03430  Biso   1.000  C
  C328     1.0000 0.84210  0.36380  0.03780  Biso   1.000  C
  C329     1.0000 0.85590  0.38360  0.06090  Biso   1.000  C
  C330     1.0000 0.81020  0.52870  0.22120  Biso   1.000  C
  O64      1.0000 0.55920  0.47570  0.42200  Biso   1.000  O
  C331     1.0000 0.63010  0.47720  0.27180  Biso   1.000  C
  C332     1.0000 0.64820  0.47500  0.23970  Biso   1.000  C
  C333     1.0000 0.59640  0.47370  0.32990  Biso   1.000  C
  C334     1.0000 0.74330  0.47520  0.20520  Biso   1.000  C
  C335     1.0000 0.70980  0.47470  0.19660  Biso   1.000  C
  C336     1.0000 0.58650  0.47300  0.36220  Biso   1.000  C
  O65      1.0000 0.44010  0.20420  0.93881  Biso   1.000  O
  O66      1.0000 0.47260  0.24780  0.90682  Biso   1.000  O
  O67      1.0000 0.53170  0.16480  0.03430  Biso   1.000  O
  C337     1.0000 0.43090  0.15020  0.92610  Biso   1.000  C
  C338     1.0000 0.41900  0.09480  0.91550  Biso   1.000  C
  C339     1.0000 0.43860  0.11750  0.93070  Biso   1.000  C
  C340     1.0000 0.40600  0.16030  0.90300  Biso   1.000  C
  C341     1.0000 0.38590  0.13590  0.89000  Biso   1.000  C
  C342     1.0000 0.39340  0.10300  0.89430  Biso   1.000  C
  C343     1.0000 0.44900  0.17510  0.94590  Biso   1.000  C
  C344     1.0000 0.52960  0.22980  0.84280  Biso   1.000  C
  C345     1.0000 0.37190  0.08060  0.88030  Biso   1.000  C
  C346     1.0000 0.34030  0.07720  0.89100  Biso   1.000  C
  C347     1.0000 0.32050  0.05400  0.87710  Biso   1.000  C
  C348     1.0000 0.33220  0.03430  0.85270  Biso   1.000  C
  C349     1.0000 0.36380  0.03780  0.84210  Biso   1.000  C
  C350     1.0000 0.38360  0.06090  0.85590  Biso   1.000  C
  C351     1.0000 0.52870  0.22120  0.81020  Biso   1.000  C
  O68      1.0000 0.47570  0.42200  0.55920  Biso   1.000  O
  C352     1.0000 0.47720  0.27180  0.63010  Biso   1.000  C
  C353     1.0000 0.47500  0.23970  0.64820  Biso   1.000  C
  C354     1.0000 0.47370  0.32990  0.59640  Biso   1.000  C
  C355     1.0000 0.47520  0.20520  0.74330  Biso   1.000  C
  C356     1.0000 0.47470  0.19660  0.70980  Biso   1.000  C
  C357     1.0000 0.47300  0.36220  0.58650  Biso   1.000  C
  O69      1.0000 0.55990  0.20420  0.06119  Biso   1.000  O
  O70      1.0000 0.52740  0.24780  0.09318  Biso   1.000  O
  O71      1.0000 0.46830  0.16480  0.96570  Biso   1.000  O
  C358     1.0000 0.56910  0.15020  0.07390  Biso   1.000  C
  C359     1.0000 0.58100  0.09480  0.08450  Biso   1.000  C
  C360     1.0000 0.56140  0.11750  0.06930  Biso   1.000  C
  C361     1.0000 0.59400  0.16030  0.09700  Biso   1.000  C
  C362     1.0000 0.61410  0.13590  0.11000  Biso   1.000  C
  C363     1.0000 0.60660  0.10300  0.10570  Biso   1.000  C
  C364     1.0000 0.55100  0.17510  0.05410  Biso   1.000  C
  C365     1.0000 0.47040  0.22980  0.15720  Biso   1.000  C
  C366     1.0000 0.62810  0.08060  0.11970  Biso   1.000  C
  C367     1.0000 0.65970  0.07720  0.10900  Biso   1.000  C
  C368     1.0000 0.67950  0.05400  0.12290  Biso   1.000  C
  C369     1.0000 0.66780  0.03430  0.14730  Biso   1.000  C
  C370     1.0000 0.63620  0.03780  0.15790  Biso   1.000  C
  C371     1.0000 0.61640  0.06090  0.14410  Biso   1.000  C
  C372     1.0000 0.47130  0.22120  0.18980  Biso   1.000  C
  O72      1.0000 0.52430  0.42200  0.44080  Biso   1.000  O
  C373     1.0000 0.52280  0.27180  0.36990  Biso   1.000  C
  C374     1.0000 0.52500  0.23970  0.35180  Biso   1.000  C
  C375     1.0000 0.52630  0.32990  0.40360  Biso   1.000  C
  C376     1.0000 0.52480  0.20520  0.25670  Biso   1.000  C
  C377     1.0000 0.52530  0.19660  0.29020  Biso   1.000  C
  C378     1.0000 0.52700  0.36220  0.41350  Biso   1.000  C
  O73      1.0000 0.55990  0.79580  0.93881  Biso   1.000  O
  O74      1.0000 0.52740  0.75220  0.90682  Biso   1.000  O
  O75      1.0000 0.46830  0.83520  0.03430  Biso   1.000  O
  C379     1.0000 0.56910  0.84980  0.92610  Biso   1.000  C
  C380     1.0000 0.58100  0.90520  0.91550  Biso   1.000  C
  C381     1.0000 0.56140  0.88250  0.93070  Biso   1.000  C
  C382     1.0000 0.59400  0.83970  0.90300  Biso   1.000  C
  C383     1.0000 0.61410  0.86410  0.89000  Biso   1.000  C
  C384     1.0000 0.60660  0.89700  0.89430  Biso   1.000  C
  C385     1.0000 0.55100  0.82490  0.94590  Biso   1.000  C
  C386     1.0000 0.47040  0.77020  0.84280  Biso   1.000  C
  C387     1.0000 0.62810  0.91940  0.88030  Biso   1.000  C
  C388     1.0000 0.65970  0.92280  0.89100  Biso   1.000  C
  C389     1.0000 0.67950  0.94600  0.87710  Biso   1.000  C
  C390     1.0000 0.66780  0.96570  0.85270  Biso   1.000  C
  C391     1.0000 0.63620  0.96220  0.84210  Biso   1.000  C
  C392     1.0000 0.61640  0.93910  0.85590  Biso   1.000  C
  C393     1.0000 0.47130  0.77880  0.81020  Biso   1.000  C
  O76      1.0000 0.52430  0.57800  0.55920  Biso   1.000  O
  C394     1.0000 0.52280  0.72820  0.63010  Biso   1.000  C
  C395     1.0000 0.52500  0.76030  0.64820  Biso   1.000  C
  C396     1.0000 0.52630  0.67010  0.59640  Biso   1.000  C
  C397     1.0000 0.52480  0.79480  0.74330  Biso   1.000  C
  C398     1.0000 0.52530  0.80340  0.70980  Biso   1.000  C
  C399     1.0000 0.52700  0.63780  0.58650  Biso   1.000  C
  O77      1.0000 0.44010  0.79580  0.06119  Biso   1.000  O
  O78      1.0000 0.47260  0.75220  0.09318  Biso   1.000  O
  O79      1.0000 0.53170  0.83520  0.96570  Biso   1.000  O
  C400     1.0000 0.43090  0.84980  0.07390  Biso   1.000  C
  C401     1.0000 0.41900  0.90520  0.08450  Biso   1.000  C
  C402     1.0000 0.43860  0.88250  0.06930  Biso   1.000  C
  C403     1.0000 0.40600  0.83970  0.09700  Biso   1.000  C
  C404     1.0000 0.38590  0.86410  0.11000  Biso   1.000  C
  C405     1.0000 0.39340  0.89700  0.10570  Biso   1.000  C
  C406     1.0000 0.44900  0.82490  0.05410  Biso   1.000  C
  C407     1.0000 0.52960  0.77020  0.15720  Biso   1.000  C
  C408     1.0000 0.37190  0.91940  0.11970  Biso   1.000  C
  C409     1.0000 0.34030  0.92280  0.10900  Biso   1.000  C
  C410     1.0000 0.32050  0.94600  0.12290  Biso   1.000  C
  C411     1.0000 0.33220  0.96570  0.14730  Biso   1.000  C
  C412     1.0000 0.36380  0.96220  0.15790  Biso   1.000  C
  C413     1.0000 0.38360  0.93910  0.14410  Biso   1.000  C
  C414     1.0000 0.52870  0.77880  0.18980  Biso   1.000  C
  O80      1.0000 0.47570  0.57800  0.44080  Biso   1.000  O
  C415     1.0000 0.47720  0.72820  0.36990  Biso   1.000  C
  C416     1.0000 0.47500  0.76030  0.35180  Biso   1.000  C
  C417     1.0000 0.47370  0.67010  0.40360  Biso   1.000  C
  C418     1.0000 0.47520  0.79480  0.25670  Biso   1.000  C
  C419     1.0000 0.47470  0.80340  0.29020  Biso   1.000  C
  C420     1.0000 0.47300  0.63780  0.41350  Biso   1.000  C
  O81      1.0000 0.20420  0.06119  0.55990  Biso   1.000  O
  O82      1.0000 0.24780  0.09318  0.52740  Biso   1.000  O
  O83      1.0000 0.16480  0.96570  0.46830  Biso   1.000  O
  C421     1.0000 0.15020  0.07390  0.56910  Biso   1.000  C
  C422     1.0000 0.09480  0.08450  0.58100  Biso   1.000  C
  C423     1.0000 0.11750  0.06930  0.56140  Biso   1.000  C
  C424     1.0000 0.16030  0.09700  0.59400  Biso   1.000  C
  C425     1.0000 0.13590  0.11000  0.61410  Biso   1.000  C
  C426     1.0000 0.10300  0.10570  0.60660  Biso   1.000  C
  C427     1.0000 0.17510  0.05410  0.55100  Biso   1.000  C
  C428     1.0000 0.22980  0.15720  0.47040  Biso   1.000  C
  C429     1.0000 0.08060  0.11970  0.62810  Biso   1.000  C
  C430     1.0000 0.07720  0.10900  0.65970  Biso   1.000  C
  C431     1.0000 0.05400  0.12290  0.67950  Biso   1.000  C
  C432     1.0000 0.03430  0.14730  0.66780  Biso   1.000  C
  C433     1.0000 0.03780  0.15790  0.63620  Biso   1.000  C
  C434     1.0000 0.06090  0.14410  0.61640  Biso   1.000  C
  C435     1.0000 0.22120  0.18980  0.47130  Biso   1.000  C
  O84      1.0000 0.42200  0.44080  0.52430  Biso   1.000  O
  C436     1.0000 0.27180  0.36990  0.52280  Biso   1.000  C
  C437     1.0000 0.23970  0.35180  0.52500  Biso   1.000  C
  C438     1.0000 0.32990  0.40360  0.52630  Biso   1.000  C
  C439     1.0000 0.20520  0.25670  0.52480  Biso   1.000  C
  C440     1.0000 0.19660  0.29020  0.52530  Biso   1.000  C
  C441     1.0000 0.36220  0.41350  0.52700  Biso   1.000  C
  O85      1.0000 0.20420  0.93881  0.44010  Biso   1.000  O
  O86      1.0000 0.24780  0.90682  0.47260  Biso   1.000  O
  O87      1.0000 0.16480  0.03430  0.53170  Biso   1.000  O
  C442     1.0000 0.15020  0.92610  0.43090  Biso   1.000  C
  C443     1.0000 0.09480  0.91550  0.41900  Biso   1.000  C
  C444     1.0000 0.11750  0.93070  0.43860  Biso   1.000  C
  C445     1.0000 0.16030  0.90300  0.40600  Biso   1.000  C
  C446     1.0000 0.13590  0.89000  0.38590  Biso   1.000  C
  C447     1.0000 0.10300  0.89430  0.39340  Biso   1.000  C
  C448     1.0000 0.17510  0.94590  0.44900  Biso   1.000  C
  C449     1.0000 0.22980  0.84280  0.52960  Biso   1.000  C
  C450     1.0000 0.08060  0.88030  0.37190  Biso   1.000  C
  C451     1.0000 0.07720  0.89100  0.34030  Biso   1.000  C
  C452     1.0000 0.05400  0.87710  0.32050  Biso   1.000  C
  C453     1.0000 0.03430  0.85270  0.33220  Biso   1.000  C
  C454     1.0000 0.03780  0.84210  0.36380  Biso   1.000  C
  C455     1.0000 0.06090  0.85590  0.38360  Biso   1.000  C
  C456     1.0000 0.22120  0.81020  0.52870  Biso   1.000  C
  O88      1.0000 0.42200  0.55920  0.47570  Biso   1.000  O
  C457     1.0000 0.27180  0.63010  0.47720  Biso   1.000  C
  C458     1.0000 0.23970  0.64820  0.47500  Biso   1.000  C
  C459     1.0000 0.32990  0.59640  0.47370  Biso   1.000  C
  C460     1.0000 0.20520  0.74330  0.47520  Biso   1.000  C
  C461     1.0000 0.19660  0.70980  0.47470  Biso   1.000  C
  C462     1.0000 0.36220  0.58650  0.47300  Biso   1.000  C
  O89      1.0000 0.79580  0.06119  0.44010  Biso   1.000  O
  O90      1.0000 0.75220  0.09318  0.47260  Biso   1.000  O
  O91      1.0000 0.83520  0.96570  0.53170  Biso   1.000  O
  C463     1.0000 0.84980  0.07390  0.43090  Biso   1.000  C
  C464     1.0000 0.90520  0.08450  0.41900  Biso   1.000  C
  C465     1.0000 0.88250  0.06930  0.43860  Biso   1.000  C
  C466     1.0000 0.83970  0.09700  0.40600  Biso   1.000  C
  C467     1.0000 0.86410  0.11000  0.38590  Biso   1.000  C
  C468     1.0000 0.89700  0.10570  0.39340  Biso   1.000  C
  C469     1.0000 0.82490  0.05410  0.44900  Biso   1.000  C
  C470     1.0000 0.77020  0.15720  0.52960  Biso   1.000  C
  C471     1.0000 0.91940  0.11970  0.37190  Biso   1.000  C
  C472     1.0000 0.92280  0.10900  0.34030  Biso   1.000  C
  C473     1.0000 0.94600  0.12290  0.32050  Biso   1.000  C
  C474     1.0000 0.96570  0.14730  0.33220  Biso   1.000  C
  C475     1.0000 0.96220  0.15790  0.36380  Biso   1.000  C
  C476     1.0000 0.93910  0.14410  0.38360  Biso   1.000  C
  C477     1.0000 0.77880  0.18980  0.52870  Biso   1.000  C
  O92      1.0000 0.57800  0.44080  0.47570  Biso   1.000  O
  C478     1.0000 0.72820  0.36990  0.47720  Biso   1.000  C
  C479     1.0000 0.76030  0.35180  0.47500  Biso   1.000  C
  C480     1.0000 0.67010  0.40360  0.47370  Biso   1.000  C
  C481     1.0000 0.79480  0.25670  0.47520  Biso   1.000  C
  C482     1.0000 0.80340  0.29020  0.47470  Biso   1.000  C
  C483     1.0000 0.63780  0.41350  0.47300  Biso   1.000  C
  O93      1.0000 0.79580  0.93881  0.55990  Biso   1.000  O
  O94      1.0000 0.75220  0.90682  0.52740  Biso   1.000  O
  O95      1.0000 0.83520  0.03430  0.46830  Biso   1.000  O
  C484     1.0000 0.84980  0.92610  0.56910  Biso   1.000  C
  C485     1.0000 0.90520  0.91550  0.58100  Biso   1.000  C
  C486     1.0000 0.88250  0.93070  0.56140  Biso   1.000  C
  C487     1.0000 0.83970  0.90300  0.59400  Biso   1.000  C
  C488     1.0000 0.86410  0.89000  0.61410  Biso   1.000  C
  C489     1.0000 0.89700  0.89430  0.60660  Biso   1.000  C
  C490     1.0000 0.82490  0.94590  0.55100  Biso   1.000  C
  C491     1.0000 0.77020  0.84280  0.47040  Biso   1.000  C
  C492     1.0000 0.91940  0.88030  0.62810  Biso   1.000  C
  C493     1.0000 0.92280  0.89100  0.65970  Biso   1.000  C
  C494     1.0000 0.94600  0.87710  0.67950  Biso   1.000  C
  C495     1.0000 0.96570  0.85270  0.66780  Biso   1.000  C
  C496     1.0000 0.96220  0.84210  0.63620  Biso   1.000  C
  C497     1.0000 0.93910  0.85590  0.61640  Biso   1.000  C
  C498     1.0000 0.77880  0.81020  0.47130  Biso   1.000  C
  O96      1.0000 0.57800  0.55920  0.52430  Biso   1.000  O
  C499     1.0000 0.72820  0.63010  0.52280  Biso   1.000  C
  C500     1.0000 0.76030  0.64820  0.52500  Biso   1.000  C
  C501     1.0000 0.67010  0.59640  0.52630  Biso   1.000  C
  C502     1.0000 0.79480  0.74330  0.52480  Biso   1.000  C
  C503     1.0000 0.80340  0.70980  0.52530  Biso   1.000  C
  C504     1.0000 0.63780  0.58650  0.52700  Biso   1.000  C
  O97      1.0000 0.05990  0.43881  0.29580  Biso   1.000  O
  O98      1.0000 0.02740  0.40682  0.25220  Biso   1.000  O
  O99      1.0000 0.96830  0.53430  0.33520  Biso   1.000  O
  C505     1.0000 0.06910  0.42610  0.34980  Biso   1.000  C
  C506     1.0000 0.08100  0.41550  0.40520  Biso   1.000  C
  C507     1.0000 0.06140  0.43070  0.38250  Biso   1.000  C
  C508     1.0000 0.09400  0.40300  0.33970  Biso   1.000  C
  C509     1.0000 0.11410  0.39000  0.36410  Biso   1.000  C
  C510     1.0000 0.10660  0.39430  0.39700  Biso   1.000  C
  C511     1.0000 0.05100  0.44590  0.32490  Biso   1.000  C
  C512     1.0000 0.97040  0.34280  0.27020  Biso   1.000  C
  C513     1.0000 0.12810  0.38030  0.41940  Biso   1.000  C
  C514     1.0000 0.15970  0.39100  0.42280  Biso   1.000  C
  C515     1.0000 0.17950  0.37710  0.44600  Biso   1.000  C
  C516     1.0000 0.16780  0.35270  0.46570  Biso   1.000  C
  C517     1.0000 0.13620  0.34210  0.46220  Biso   1.000  C
  C518     1.0000 0.11640  0.35590  0.43910  Biso   1.000  C
  C519     1.0000 0.97130  0.31020  0.27880  Biso   1.000  C
  O100     1.0000 0.02430  0.05920  0.07800  Biso   1.000  O
  C520     1.0000 0.02280  0.13010  0.22820  Biso   1.000  C
  C521     1.0000 0.02500  0.14820  0.26030  Biso   1.000  C
  C522     1.0000 0.02630  0.09640  0.17010  Biso   1.000  C
  C523     1.0000 0.02480  0.24330  0.29480  Biso   1.000  C
  C524     1.0000 0.02530  0.20980  0.30340  Biso   1.000  C
  C525     1.0000 0.02700  0.08650  0.13780  Biso   1.000  C
  O101     1.0000 0.94010  0.56119  0.29580  Biso   1.000  O
  O102     1.0000 0.97260  0.59318  0.25220  Biso   1.000  O
  O103     1.0000 0.03170  0.46570  0.33520  Biso   1.000  O
  C526     1.0000 0.93090  0.57390  0.34980  Biso   1.000  C
  C527     1.0000 0.91900  0.58450  0.40520  Biso   1.000  C
  C528     1.0000 0.93860  0.56930  0.38250  Biso   1.000  C
  C529     1.0000 0.90600  0.59700  0.33970  Biso   1.000  C
  C530     1.0000 0.88590  0.61000  0.36410  Biso   1.000  C
  C531     1.0000 0.89340  0.60570  0.39700  Biso   1.000  C
  C532     1.0000 0.94900  0.55410  0.32490  Biso   1.000  C
  C533     1.0000 0.02960  0.65720  0.27020  Biso   1.000  C
  C534     1.0000 0.87190  0.61970  0.41940  Biso   1.000  C
  C535     1.0000 0.84030  0.60900  0.42280  Biso   1.000  C
  C536     1.0000 0.82050  0.62290  0.44600  Biso   1.000  C
  C537     1.0000 0.83220  0.64730  0.46570  Biso   1.000  C
  C538     1.0000 0.86380  0.65790  0.46220  Biso   1.000  C
  C539     1.0000 0.88360  0.64410  0.43910  Biso   1.000  C
  C540     1.0000 0.02870  0.68980  0.27880  Biso   1.000  C
  O104     1.0000 0.97570  0.94080  0.07800  Biso   1.000  O
  C541     1.0000 0.97720  0.86990  0.22820  Biso   1.000  C
  C542     1.0000 0.97500  0.85180  0.26030  Biso   1.000  C
  C543     1.0000 0.97370  0.90360  0.17010  Biso   1.000  C
  C544     1.0000 0.97520  0.75670  0.29480  Biso   1.000  C
  C545     1.0000 0.97470  0.79020  0.30340  Biso   1.000  C
  C546     1.0000 0.97300  0.91350  0.13780  Biso   1.000  C
  O105     1.0000 0.94010  0.43881  0.70420  Biso   1.000  O
  O106     1.0000 0.97260  0.40682  0.74780  Biso   1.000  O
  O107     1.0000 0.03170  0.53430  0.66480  Biso   1.000  O
  C547     1.0000 0.93090  0.42610  0.65020  Biso   1.000  C
  C548     1.0000 0.91900  0.41550  0.59480  Biso   1.000  C
  C549     1.0000 0.93860  0.43070  0.61750  Biso   1.000  C
  C550     1.0000 0.90600  0.40300  0.66030  Biso   1.000  C
  C551     1.0000 0.88590  0.39000  0.63590  Biso   1.000  C
  C552     1.0000 0.89340  0.39430  0.60300  Biso   1.000  C
  C553     1.0000 0.94900  0.44590  0.67510  Biso   1.000  C
  C554     1.0000 0.02960  0.34280  0.72980  Biso   1.000  C
  C555     1.0000 0.87190  0.38030  0.58060  Biso   1.000  C
  C556     1.0000 0.84030  0.39100  0.57720  Biso   1.000  C
  C557     1.0000 0.82050  0.37710  0.55400  Biso   1.000  C
  C558     1.0000 0.83220  0.35270  0.53430  Biso   1.000  C
  C559     1.0000 0.86380  0.34210  0.53780  Biso   1.000  C
  C560     1.0000 0.88360  0.35590  0.56090  Biso   1.000  C
  C561     1.0000 0.02870  0.31020  0.72120  Biso   1.000  C
  O108     1.0000 0.97570  0.05920  0.92200  Biso   1.000  O
  C562     1.0000 0.97720  0.13010  0.77180  Biso   1.000  C
  C563     1.0000 0.97500  0.14820  0.73970  Biso   1.000  C
  C564     1.0000 0.97370  0.09640  0.82990  Biso   1.000  C
  C565     1.0000 0.97520  0.24330  0.70520  Biso   1.000  C
  C566     1.0000 0.97470  0.20980  0.69660  Biso   1.000  C
  C567     1.0000 0.97300  0.08650  0.86220  Biso   1.000  C
  O109     1.0000 0.05990  0.56119  0.70420  Biso   1.000  O
  O110     1.0000 0.02740  0.59318  0.74780  Biso   1.000  O
  O111     1.0000 0.96830  0.46570  0.66480  Biso   1.000  O
  C568     1.0000 0.06910  0.57390  0.65020  Biso   1.000  C
  C569     1.0000 0.08100  0.58450  0.59480  Biso   1.000  C
  C570     1.0000 0.06140  0.56930  0.61750  Biso   1.000  C
  C571     1.0000 0.09400  0.59700  0.66030  Biso   1.000  C
  C572     1.0000 0.11410  0.61000  0.63590  Biso   1.000  C
  C573     1.0000 0.10660  0.60570  0.60300  Biso   1.000  C
  C574     1.0000 0.05100  0.55410  0.67510  Biso   1.000  C
  C575     1.0000 0.97040  0.65720  0.72980  Biso   1.000  C
  C576     1.0000 0.12810  0.61970  0.58060  Biso   1.000  C
  C577     1.0000 0.15970  0.60900  0.57720  Biso   1.000  C
  C578     1.0000 0.17950  0.62290  0.55400  Biso   1.000  C
  C579     1.0000 0.16780  0.64730  0.53430  Biso   1.000  C
  C580     1.0000 0.13620  0.65790  0.53780  Biso   1.000  C
  C581     1.0000 0.11640  0.64410  0.56090  Biso   1.000  C
  C582     1.0000 0.97130  0.68980  0.72120  Biso   1.000  C
  O112     1.0000 0.02430  0.94080  0.92200  Biso   1.000  O
  C583     1.0000 0.02280  0.86990  0.77180  Biso   1.000  C
  C584     1.0000 0.02500  0.85180  0.73970  Biso   1.000  C
  C585     1.0000 0.02630  0.90360  0.82990  Biso   1.000  C
  C586     1.0000 0.02480  0.75670  0.70520  Biso   1.000  C
  C587     1.0000 0.02530  0.79020  0.69660  Biso   1.000  C
  C588     1.0000 0.02700  0.91350  0.86220  Biso   1.000  C
  O113     1.0000 0.29580  0.05990  0.43881  Biso   1.000  O
  O114     1.0000 0.25220  0.02740  0.40682  Biso   1.000  O
  O115     1.0000 0.33520  0.96830  0.53430  Biso   1.000  O
  C589     1.0000 0.34980  0.06910  0.42610  Biso   1.000  C
  C590     1.0000 0.40520  0.08100  0.41550  Biso   1.000  C
  C591     1.0000 0.38250  0.06140  0.43070  Biso   1.000  C
  C592     1.0000 0.33970  0.09400  0.40300  Biso   1.000  C
  C593     1.0000 0.36410  0.11410  0.39000  Biso   1.000  C
  C594     1.0000 0.39700  0.10660  0.39430  Biso   1.000  C
  C595     1.0000 0.32490  0.05100  0.44590  Biso   1.000  C
  C596     1.0000 0.27020  0.97040  0.34280  Biso   1.000  C
  C597     1.0000 0.41940  0.12810  0.38030  Biso   1.000  C
  C598     1.0000 0.42280  0.15970  0.39100  Biso   1.000  C
  C599     1.0000 0.44600  0.17950  0.37710  Biso   1.000  C
  C600     1.0000 0.46570  0.16780  0.35270  Biso   1.000  C
  C601     1.0000 0.46220  0.13620  0.34210  Biso   1.000  C
  C602     1.0000 0.43910  0.11640  0.35590  Biso   1.000  C
  C603     1.0000 0.27880  0.97130  0.31020  Biso   1.000  C
  O116     1.0000 0.07800  0.02430  0.05920  Biso   1.000  O
  C604     1.0000 0.22820  0.02280  0.13010  Biso   1.000  C
  C605     1.0000 0.26030  0.02500  0.14820  Biso   1.000  C
  C606     1.0000 0.17010  0.02630  0.09640  Biso   1.000  C
  C607     1.0000 0.29480  0.02480  0.24330  Biso   1.000  C
  C608     1.0000 0.30340  0.02530  0.20980  Biso   1.000  C
  C609     1.0000 0.13780  0.02700  0.08650  Biso   1.000  C
  O117     1.0000 0.29580  0.94010  0.56119  Biso   1.000  O
  O118     1.0000 0.25220  0.97260  0.59318  Biso   1.000  O
  O119     1.0000 0.33520  0.03170  0.46570  Biso   1.000  O
  C610     1.0000 0.34980  0.93090  0.57390  Biso   1.000  C
  C611     1.0000 0.40520  0.91900  0.58450  Biso   1.000  C
  C612     1.0000 0.38250  0.93860  0.56930  Biso   1.000  C
  C613     1.0000 0.33970  0.90600  0.59700  Biso   1.000  C
  C614     1.0000 0.36410  0.88590  0.61000  Biso   1.000  C
  C615     1.0000 0.39700  0.89340  0.60570  Biso   1.000  C
  C616     1.0000 0.32490  0.94900  0.55410  Biso   1.000  C
  C617     1.0000 0.27020  0.02960  0.65720  Biso   1.000  C
  C618     1.0000 0.41940  0.87190  0.61970  Biso   1.000  C
  C619     1.0000 0.42280  0.84030  0.60900  Biso   1.000  C
  C620     1.0000 0.44600  0.82050  0.62290  Biso   1.000  C
  C621     1.0000 0.46570  0.83220  0.64730  Biso   1.000  C
  C622     1.0000 0.46220  0.86380  0.65790  Biso   1.000  C
  C623     1.0000 0.43910  0.88360  0.64410  Biso   1.000  C
  C624     1.0000 0.27880  0.02870  0.68980  Biso   1.000  C
  O120     1.0000 0.07800  0.97570  0.94080  Biso   1.000  O
  C625     1.0000 0.22820  0.97720  0.86990  Biso   1.000  C
  C626     1.0000 0.26030  0.97500  0.85180  Biso   1.000  C
  C627     1.0000 0.17010  0.97370  0.90360  Biso   1.000  C
  C628     1.0000 0.29480  0.97520  0.75670  Biso   1.000  C
  C629     1.0000 0.30340  0.97470  0.79020  Biso   1.000  C
  C630     1.0000 0.13780  0.97300  0.91350  Biso   1.000  C
  O121     1.0000 0.70420  0.94010  0.43881  Biso   1.000  O
  O122     1.0000 0.74780  0.97260  0.40682  Biso   1.000  O
  O123     1.0000 0.66480  0.03170  0.53430  Biso   1.000  O
  C631     1.0000 0.65020  0.93090  0.42610  Biso   1.000  C
  C632     1.0000 0.59480  0.91900  0.41550  Biso   1.000  C
  C633     1.0000 0.61750  0.93860  0.43070  Biso   1.000  C
  C634     1.0000 0.66030  0.90600  0.40300  Biso   1.000  C
  C635     1.0000 0.63590  0.88590  0.39000  Biso   1.000  C
  C636     1.0000 0.60300  0.89340  0.39430  Biso   1.000  C
  C637     1.0000 0.67510  0.94900  0.44590  Biso   1.000  C
  C638     1.0000 0.72980  0.02960  0.34280  Biso   1.000  C
  C639     1.0000 0.58060  0.87190  0.38030  Biso   1.000  C
  C640     1.0000 0.57720  0.84030  0.39100  Biso   1.000  C
  C641     1.0000 0.55400  0.82050  0.37710  Biso   1.000  C
  C642     1.0000 0.53430  0.83220  0.35270  Biso   1.000  C
  C643     1.0000 0.53780  0.86380  0.34210  Biso   1.000  C
  C644     1.0000 0.56090  0.88360  0.35590  Biso   1.000  C
  C645     1.0000 0.72120  0.02870  0.31020  Biso   1.000  C
  O124     1.0000 0.92200  0.97570  0.05920  Biso   1.000  O
  C646     1.0000 0.77180  0.97720  0.13010  Biso   1.000  C
  C647     1.0000 0.73970  0.97500  0.14820  Biso   1.000  C
  C648     1.0000 0.82990  0.97370  0.09640  Biso   1.000  C
  C649     1.0000 0.70520  0.97520  0.24330  Biso   1.000  C
  C650     1.0000 0.69660  0.97470  0.20980  Biso   1.000  C
  C651     1.0000 0.86220  0.97300  0.08650  Biso   1.000  C
  O125     1.0000 0.70420  0.05990  0.56119  Biso   1.000  O
  O126     1.0000 0.74780  0.02740  0.59318  Biso   1.000  O
  O127     1.0000 0.66480  0.96830  0.46570  Biso   1.000  O
  C652     1.0000 0.65020  0.06910  0.57390  Biso   1.000  C
  C653     1.0000 0.59480  0.08100  0.58450  Biso   1.000  C
  C654     1.0000 0.61750  0.06140  0.56930  Biso   1.000  C
  C655     1.0000 0.66030  0.09400  0.59700  Biso   1.000  C
  C656     1.0000 0.63590  0.11410  0.61000  Biso   1.000  C
  C657     1.0000 0.60300  0.10660  0.60570  Biso   1.000  C
  C658     1.0000 0.67510  0.05100  0.55410  Biso   1.000  C
  C659     1.0000 0.72980  0.97040  0.65720  Biso   1.000  C
  C660     1.0000 0.58060  0.12810  0.61970  Biso   1.000  C
  C661     1.0000 0.57720  0.15970  0.60900  Biso   1.000  C
  C662     1.0000 0.55400  0.17950  0.62290  Biso   1.000  C
  C663     1.0000 0.53430  0.16780  0.64730  Biso   1.000  C
  C664     1.0000 0.53780  0.13620  0.65790  Biso   1.000  C
  C665     1.0000 0.56090  0.11640  0.64410  Biso   1.000  C
  C666     1.0000 0.72120  0.97130  0.68980  Biso   1.000  C
  O128     1.0000 0.92200  0.02430  0.94080  Biso   1.000  O
  C667     1.0000 0.77180  0.02280  0.86990  Biso   1.000  C
  C668     1.0000 0.73970  0.02500  0.85180  Biso   1.000  C
  C669     1.0000 0.82990  0.02630  0.90360  Biso   1.000  C
  C670     1.0000 0.70520  0.02480  0.75670  Biso   1.000  C
  C671     1.0000 0.69660  0.02530  0.79020  Biso   1.000  C
  C672     1.0000 0.86220  0.02700  0.91350  Biso   1.000  C
  O129     1.0000 0.43881  0.29580  0.05990  Biso   1.000  O
  O130     1.0000 0.40682  0.25220  0.02740  Biso   1.000  O
  O131     1.0000 0.53430  0.33520  0.96830  Biso   1.000  O
  C673     1.0000 0.42610  0.34980  0.06910  Biso   1.000  C
  C674     1.0000 0.41550  0.40520  0.08100  Biso   1.000  C
  C675     1.0000 0.43070  0.38250  0.06140  Biso   1.000  C
  C676     1.0000 0.40300  0.33970  0.09400  Biso   1.000  C
  C677     1.0000 0.39000  0.36410  0.11410  Biso   1.000  C
  C678     1.0000 0.39430  0.39700  0.10660  Biso   1.000  C
  C679     1.0000 0.44590  0.32490  0.05100  Biso   1.000  C
  C680     1.0000 0.34280  0.27020  0.97040  Biso   1.000  C
  C681     1.0000 0.38030  0.41940  0.12810  Biso   1.000  C
  C682     1.0000 0.39100  0.42280  0.15970  Biso   1.000  C
  C683     1.0000 0.37710  0.44600  0.17950  Biso   1.000  C
  C684     1.0000 0.35270  0.46570  0.16780  Biso   1.000  C
  C685     1.0000 0.34210  0.46220  0.13620  Biso   1.000  C
  C686     1.0000 0.35590  0.43910  0.11640  Biso   1.000  C
  C687     1.0000 0.31020  0.27880  0.97130  Biso   1.000  C
  O132     1.0000 0.05920  0.07800  0.02430  Biso   1.000  O
  C688     1.0000 0.13010  0.22820  0.02280  Biso   1.000  C
  C689     1.0000 0.14820  0.26030  0.02500  Biso   1.000  C
  C690     1.0000 0.09640  0.17010  0.02630  Biso   1.000  C
  C691     1.0000 0.24330  0.29480  0.02480  Biso   1.000  C
  C692     1.0000 0.20980  0.30340  0.02530  Biso   1.000  C
  C693     1.0000 0.08650  0.13780  0.02700  Biso   1.000  C
  O133     1.0000 0.56119  0.29580  0.94010  Biso   1.000  O
  O134     1.0000 0.59318  0.25220  0.97260  Biso   1.000  O
  O135     1.0000 0.46570  0.33520  0.03170  Biso   1.000  O
  C694     1.0000 0.57390  0.34980  0.93090  Biso   1.000  C
  C695     1.0000 0.58450  0.40520  0.91900  Biso   1.000  C
  C696     1.0000 0.56930  0.38250  0.93860  Biso   1.000  C
  C697     1.0000 0.59700  0.33970  0.90600  Biso   1.000  C
  C698     1.0000 0.61000  0.36410  0.88590  Biso   1.000  C
  C699     1.0000 0.60570  0.39700  0.89340  Biso   1.000  C
  C700     1.0000 0.55410  0.32490  0.94900  Biso   1.000  C
  C701     1.0000 0.65720  0.27020  0.02960  Biso   1.000  C
  C702     1.0000 0.61970  0.41940  0.87190  Biso   1.000  C
  C703     1.0000 0.60900  0.42280  0.84030  Biso   1.000  C
  C704     1.0000 0.62290  0.44600  0.82050  Biso   1.000  C
  C705     1.0000 0.64730  0.46570  0.83220  Biso   1.000  C
  C706     1.0000 0.65790  0.46220  0.86380  Biso   1.000  C
  C707     1.0000 0.64410  0.43910  0.88360  Biso   1.000  C
  C708     1.0000 0.68980  0.27880  0.02870  Biso   1.000  C
  O136     1.0000 0.94080  0.07800  0.97570  Biso   1.000  O
  C709     1.0000 0.86990  0.22820  0.97720  Biso   1.000  C
  C710     1.0000 0.85180  0.26030  0.97500  Biso   1.000  C
  C711     1.0000 0.90360  0.17010  0.97370  Biso   1.000  C
  C712     1.0000 0.75670  0.29480  0.97520  Biso   1.000  C
  C713     1.0000 0.79020  0.30340  0.97470  Biso   1.000  C
  C714     1.0000 0.91350  0.13780  0.97300  Biso   1.000  C
  O137     1.0000 0.43881  0.70420  0.94010  Biso   1.000  O
  O138     1.0000 0.40682  0.74780  0.97260  Biso   1.000  O
  O139     1.0000 0.53430  0.66480  0.03170  Biso   1.000  O
  C715     1.0000 0.42610  0.65020  0.93090  Biso   1.000  C
  C716     1.0000 0.41550  0.59480  0.91900  Biso   1.000  C
  C717     1.0000 0.43070  0.61750  0.93860  Biso   1.000  C
  C718     1.0000 0.40300  0.66030  0.90600  Biso   1.000  C
  C719     1.0000 0.39000  0.63590  0.88590  Biso   1.000  C
  C720     1.0000 0.39430  0.60300  0.89340  Biso   1.000  C
  C721     1.0000 0.44590  0.67510  0.94900  Biso   1.000  C
  C722     1.0000 0.34280  0.72980  0.02960  Biso   1.000  C
  C723     1.0000 0.38030  0.58060  0.87190  Biso   1.000  C
  C724     1.0000 0.39100  0.57720  0.84030  Biso   1.000  C
  C725     1.0000 0.37710  0.55400  0.82050  Biso   1.000  C
  C726     1.0000 0.35270  0.53430  0.83220  Biso   1.000  C
  C727     1.0000 0.34210  0.53780  0.86380  Biso   1.000  C
  C728     1.0000 0.35590  0.56090  0.88360  Biso   1.000  C
  C729     1.0000 0.31020  0.72120  0.02870  Biso   1.000  C
  O140     1.0000 0.05920  0.92200  0.97570  Biso   1.000  O
  C730     1.0000 0.13010  0.77180  0.97720  Biso   1.000  C
  C731     1.0000 0.14820  0.73970  0.97500  Biso   1.000  C
  C732     1.0000 0.09640  0.82990  0.97370  Biso   1.000  C
  C733     1.0000 0.24330  0.70520  0.97520  Biso   1.000  C
  C734     1.0000 0.20980  0.69660  0.97470  Biso   1.000  C
  C735     1.0000 0.08650  0.86220  0.97300  Biso   1.000  C
  O141     1.0000 0.56119  0.70420  0.05990  Biso   1.000  O
  O142     1.0000 0.59318  0.74780  0.02740  Biso   1.000  O
  O143     1.0000 0.46570  0.66480  0.96830  Biso   1.000  O
  C736     1.0000 0.57390  0.65020  0.06910  Biso   1.000  C
  C737     1.0000 0.58450  0.59480  0.08100  Biso   1.000  C
  C738     1.0000 0.56930  0.61750  0.06140  Biso   1.000  C
  C739     1.0000 0.59700  0.66030  0.09400  Biso   1.000  C
  C740     1.0000 0.61000  0.63590  0.11410  Biso   1.000  C
  C741     1.0000 0.60570  0.60300  0.10660  Biso   1.000  C
  C742     1.0000 0.55410  0.67510  0.05100  Biso   1.000  C
  C743     1.0000 0.65720  0.72980  0.97040  Biso   1.000  C
  C744     1.0000 0.61970  0.58060  0.12810  Biso   1.000  C
  C745     1.0000 0.60900  0.57720  0.15970  Biso   1.000  C
  C746     1.0000 0.62290  0.55400  0.17950  Biso   1.000  C
  C747     1.0000 0.64730  0.53430  0.16780  Biso   1.000  C
  C748     1.0000 0.65790  0.53780  0.13620  Biso   1.000  C
  C749     1.0000 0.64410  0.56090  0.11640  Biso   1.000  C
  C750     1.0000 0.68980  0.72120  0.97130  Biso   1.000  C
  O144     1.0000 0.94080  0.92200  0.02430  Biso   1.000  O
  C751     1.0000 0.86990  0.77180  0.02280  Biso   1.000  C
  C752     1.0000 0.85180  0.73970  0.02500  Biso   1.000  C
  C753     1.0000 0.90360  0.82990  0.02630  Biso   1.000  C
  C754     1.0000 0.75670  0.70520  0.02480  Biso   1.000  C
  C755     1.0000 0.79020  0.69660  0.02530  Biso   1.000  C
  C756     1.0000 0.91350  0.86220  0.02700  Biso   1.000  C
  O145     1.0000 0.93881  0.55990  0.20420  Biso   1.000  O
  O146     1.0000 0.90682  0.52740  0.24780  Biso   1.000  O
  O147     1.0000 0.03430  0.46830  0.16480  Biso   1.000  O
  C757     1.0000 0.92610  0.56910  0.15020  Biso   1.000  C
  C758     1.0000 0.91550  0.58100  0.09480  Biso   1.000  C
  C759     1.0000 0.93070  0.56140  0.11750  Biso   1.000  C
  C760     1.0000 0.90300  0.59400  0.16030  Biso   1.000  C
  C761     1.0000 0.89000  0.61410  0.13590  Biso   1.000  C
  C762     1.0000 0.89430  0.60660  0.10300  Biso   1.000  C
  C763     1.0000 0.94590  0.55100  0.17510  Biso   1.000  C
  C764     1.0000 0.84280  0.47040  0.22980  Biso   1.000  C
  C765     1.0000 0.88030  0.62810  0.08060  Biso   1.000  C
  C766     1.0000 0.89100  0.65970  0.07720  Biso   1.000  C
  C767     1.0000 0.87710  0.67950  0.05400  Biso   1.000  C
  C768     1.0000 0.85270  0.66780  0.03430  Biso   1.000  C
  C769     1.0000 0.84210  0.63620  0.03780  Biso   1.000  C
  C770     1.0000 0.85590  0.61640  0.06090  Biso   1.000  C
  C771     1.0000 0.81020  0.47130  0.22120  Biso   1.000  C
  O148     1.0000 0.55920  0.52430  0.42200  Biso   1.000  O
  C772     1.0000 0.63010  0.52280  0.27180  Biso   1.000  C
  C773     1.0000 0.64820  0.52500  0.23970  Biso   1.000  C
  C774     1.0000 0.59640  0.52630  0.32990  Biso   1.000  C
  C775     1.0000 0.74330  0.52480  0.20520  Biso   1.000  C
  C776     1.0000 0.70980  0.52530  0.19660  Biso   1.000  C
  C777     1.0000 0.58650  0.52700  0.36220  Biso   1.000  C
  O149     1.0000 0.06119  0.44010  0.20420  Biso   1.000  O
  O150     1.0000 0.09318  0.47260  0.24780  Biso   1.000  O
  O151     1.0000 0.96570  0.53170  0.16480  Biso   1.000  O
  C778     1.0000 0.07390  0.43090  0.15020  Biso   1.000  C
  C779     1.0000 0.08450  0.41900  0.09480  Biso   1.000  C
  C780     1.0000 0.06930  0.43860  0.11750  Biso   1.000  C
  C781     1.0000 0.09700  0.40600  0.16030  Biso   1.000  C
  C782     1.0000 0.11000  0.38590  0.13590  Biso   1.000  C
  C783     1.0000 0.10570  0.39340  0.10300  Biso   1.000  C
  C784     1.0000 0.05410  0.44900  0.17510  Biso   1.000  C
  C785     1.0000 0.15720  0.52960  0.22980  Biso   1.000  C
  C786     1.0000 0.11970  0.37190  0.08060  Biso   1.000  C
  C787     1.0000 0.10900  0.34030  0.07720  Biso   1.000  C
  C788     1.0000 0.12290  0.32050  0.05400  Biso   1.000  C
  C789     1.0000 0.14730  0.33220  0.03430  Biso   1.000  C
  C790     1.0000 0.15790  0.36380  0.03780  Biso   1.000  C
  C791     1.0000 0.14410  0.38360  0.06090  Biso   1.000  C
  C792     1.0000 0.18980  0.52870  0.22120  Biso   1.000  C
  O152     1.0000 0.44080  0.47570  0.42200  Biso   1.000  O
  C793     1.0000 0.36990  0.47720  0.27180  Biso   1.000  C
  C794     1.0000 0.35180  0.47500  0.23970  Biso   1.000  C
  C795     1.0000 0.40360  0.47370  0.32990  Biso   1.000  C
  C796     1.0000 0.25670  0.47520  0.20520  Biso   1.000  C
  C797     1.0000 0.29020  0.47470  0.19660  Biso   1.000  C
  C798     1.0000 0.41350  0.47300  0.36220  Biso   1.000  C
  O153     1.0000 0.93881  0.44010  0.79580  Biso   1.000  O
  O154     1.0000 0.90682  0.47260  0.75220  Biso   1.000  O
  O155     1.0000 0.03430  0.53170  0.83520  Biso   1.000  O
  C799     1.0000 0.92610  0.43090  0.84980  Biso   1.000  C
  C800     1.0000 0.91550  0.41900  0.90520  Biso   1.000  C
  C801     1.0000 0.93070  0.43860  0.88250  Biso   1.000  C
  C802     1.0000 0.90300  0.40600  0.83970  Biso   1.000  C
  C803     1.0000 0.89000  0.38590  0.86410  Biso   1.000  C
  C804     1.0000 0.89430  0.39340  0.89700  Biso   1.000  C
  C805     1.0000 0.94590  0.44900  0.82490  Biso   1.000  C
  C806     1.0000 0.84280  0.52960  0.77020  Biso   1.000  C
  C807     1.0000 0.88030  0.37190  0.91940  Biso   1.000  C
  C808     1.0000 0.89100  0.34030  0.92280  Biso   1.000  C
  C809     1.0000 0.87710  0.32050  0.94600  Biso   1.000  C
  C810     1.0000 0.85270  0.33220  0.96570  Biso   1.000  C
  C811     1.0000 0.84210  0.36380  0.96220  Biso   1.000  C
  C812     1.0000 0.85590  0.38360  0.93910  Biso   1.000  C
  C813     1.0000 0.81020  0.52870  0.77880  Biso   1.000  C
  O156     1.0000 0.55920  0.47570  0.57800  Biso   1.000  O
  C814     1.0000 0.63010  0.47720  0.72820  Biso   1.000  C
  C815     1.0000 0.64820  0.47500  0.76030  Biso   1.000  C
  C816     1.0000 0.59640  0.47370  0.67010  Biso   1.000  C
  C817     1.0000 0.74330  0.47520  0.79480  Biso   1.000  C
  C818     1.0000 0.70980  0.47470  0.80340  Biso   1.000  C
  C819     1.0000 0.58650  0.47300  0.63780  Biso   1.000  C
  O157     1.0000 0.06119  0.55990  0.79580  Biso   1.000  O
  O158     1.0000 0.09318  0.52740  0.75220  Biso   1.000  O
  O159     1.0000 0.96570  0.46830  0.83520  Biso   1.000  O
  C820     1.0000 0.07390  0.56910  0.84980  Biso   1.000  C
  C821     1.0000 0.08450  0.58100  0.90520  Biso   1.000  C
  C822     1.0000 0.06930  0.56140  0.88250  Biso   1.000  C
  C823     1.0000 0.09700  0.59400  0.83970  Biso   1.000  C
  C824     1.0000 0.11000  0.61410  0.86410  Biso   1.000  C
  C825     1.0000 0.10570  0.60660  0.89700  Biso   1.000  C
  C826     1.0000 0.05410  0.55100  0.82490  Biso   1.000  C
  C827     1.0000 0.15720  0.47040  0.77020  Biso   1.000  C
  C828     1.0000 0.11970  0.62810  0.91940  Biso   1.000  C
  C829     1.0000 0.10900  0.65970  0.92280  Biso   1.000  C
  C830     1.0000 0.12290  0.67950  0.94600  Biso   1.000  C
  C831     1.0000 0.14730  0.66780  0.96570  Biso   1.000  C
  C832     1.0000 0.15790  0.63620  0.96220  Biso   1.000  C
  C833     1.0000 0.14410  0.61640  0.93910  Biso   1.000  C
  C834     1.0000 0.18980  0.47130  0.77880  Biso   1.000  C
  O160     1.0000 0.44080  0.52430  0.57800  Biso   1.000  O
  C835     1.0000 0.36990  0.52280  0.72820  Biso   1.000  C
  C836     1.0000 0.35180  0.52500  0.76030  Biso   1.000  C
  C837     1.0000 0.40360  0.52630  0.67010  Biso   1.000  C
  C838     1.0000 0.25670  0.52480  0.79480  Biso   1.000  C
  C839     1.0000 0.29020  0.52530  0.80340  Biso   1.000  C
  C840     1.0000 0.41350  0.52700  0.63780  Biso   1.000  C
  O161     1.0000 0.55990  0.79580  0.06119  Biso   1.000  O
  O162     1.0000 0.52740  0.75220  0.09318  Biso   1.000  O
  O163     1.0000 0.46830  0.83520  0.96570  Biso   1.000  O
  C841     1.0000 0.56910  0.84980  0.07390  Biso   1.000  C
  C842     1.0000 0.58100  0.90520  0.08450  Biso   1.000  C
  C843     1.0000 0.56140  0.88250  0.06930  Biso   1.000  C
  C844     1.0000 0.59400  0.83970  0.09700  Biso   1.000  C
  C845     1.0000 0.61410  0.86410  0.11000  Biso   1.000  C
  C846     1.0000 0.60660  0.89700  0.10570  Biso   1.000  C
  C847     1.0000 0.55100  0.82490  0.05410  Biso   1.000  C
  C848     1.0000 0.47040  0.77020  0.15720  Biso   1.000  C
  C849     1.0000 0.62810  0.91940  0.11970  Biso   1.000  C
  C850     1.0000 0.65970  0.92280  0.10900  Biso   1.000  C
  C851     1.0000 0.67950  0.94600  0.12290  Biso   1.000  C
  C852     1.0000 0.66780  0.96570  0.14730  Biso   1.000  C
  C853     1.0000 0.63620  0.96220  0.15790  Biso   1.000  C
  C854     1.0000 0.61640  0.93910  0.14410  Biso   1.000  C
  C855     1.0000 0.47130  0.77880  0.18980  Biso   1.000  C
  O164     1.0000 0.52430  0.57800  0.44080  Biso   1.000  O
  C856     1.0000 0.52280  0.72820  0.36990  Biso   1.000  C
  C857     1.0000 0.52500  0.76030  0.35180  Biso   1.000  C
  C858     1.0000 0.52630  0.67010  0.40360  Biso   1.000  C
  C859     1.0000 0.52480  0.79480  0.25670  Biso   1.000  C
  C860     1.0000 0.52530  0.80340  0.29020  Biso   1.000  C
  C861     1.0000 0.52700  0.63780  0.41350  Biso   1.000  C
  O165     1.0000 0.44010  0.79580  0.93881  Biso   1.000  O
  O166     1.0000 0.47260  0.75220  0.90682  Biso   1.000  O
  O167     1.0000 0.53170  0.83520  0.03430  Biso   1.000  O
  C862     1.0000 0.43090  0.84980  0.92610  Biso   1.000  C
  C863     1.0000 0.41900  0.90520  0.91550  Biso   1.000  C
  C864     1.0000 0.43860  0.88250  0.93070  Biso   1.000  C
  C865     1.0000 0.40600  0.83970  0.90300  Biso   1.000  C
  C866     1.0000 0.38590  0.86410  0.89000  Biso   1.000  C
  C867     1.0000 0.39340  0.89700  0.89430  Biso   1.000  C
  C868     1.0000 0.44900  0.82490  0.94590  Biso   1.000  C
  C869     1.0000 0.52960  0.77020  0.84280  Biso   1.000  C
  C870     1.0000 0.37190  0.91940  0.88030  Biso   1.000  C
  C871     1.0000 0.34030  0.92280  0.89100  Biso   1.000  C
  C872     1.0000 0.32050  0.94600  0.87710  Biso   1.000  C
  C873     1.0000 0.33220  0.96570  0.85270  Biso   1.000  C
  C874     1.0000 0.36380  0.96220  0.84210  Biso   1.000  C
  C875     1.0000 0.38360  0.93910  0.85590  Biso   1.000  C
  C876     1.0000 0.52870  0.77880  0.81020  Biso   1.000  C
  O168     1.0000 0.47570  0.57800  0.55920  Biso   1.000  O
  C877     1.0000 0.47720  0.72820  0.63010  Biso   1.000  C
  C878     1.0000 0.47500  0.76030  0.64820  Biso   1.000  C
  C879     1.0000 0.47370  0.67010  0.59640  Biso   1.000  C
  C880     1.0000 0.47520  0.79480  0.74330  Biso   1.000  C
  C881     1.0000 0.47470  0.80340  0.70980  Biso   1.000  C
  C882     1.0000 0.47300  0.63780  0.58650  Biso   1.000  C
  O169     1.0000 0.44010  0.20420  0.06119  Biso   1.000  O
  O170     1.0000 0.47260  0.24780  0.09318  Biso   1.000  O
  O171     1.0000 0.53170  0.16480  0.96570  Biso   1.000  O
  C883     1.0000 0.43090  0.15020  0.07390  Biso   1.000  C
  C884     1.0000 0.41900  0.09480  0.08450  Biso   1.000  C
  C885     1.0000 0.43860  0.11750  0.06930  Biso   1.000  C
  C886     1.0000 0.40600  0.16030  0.09700  Biso   1.000  C
  C887     1.0000 0.38590  0.13590  0.11000  Biso   1.000  C
  C888     1.0000 0.39340  0.10300  0.10570  Biso   1.000  C
  C889     1.0000 0.44900  0.17510  0.05410  Biso   1.000  C
  C890     1.0000 0.52960  0.22980  0.15720  Biso   1.000  C
  C891     1.0000 0.37190  0.08060  0.11970  Biso   1.000  C
  C892     1.0000 0.34030  0.07720  0.10900  Biso   1.000  C
  C893     1.0000 0.32050  0.05400  0.12290  Biso   1.000  C
  C894     1.0000 0.33220  0.03430  0.14730  Biso   1.000  C
  C895     1.0000 0.36380  0.03780  0.15790  Biso   1.000  C
  C896     1.0000 0.38360  0.06090  0.14410  Biso   1.000  C
  C897     1.0000 0.52870  0.22120  0.18980  Biso   1.000  C
  O172     1.0000 0.47570  0.42200  0.44080  Biso   1.000  O
  C898     1.0000 0.47720  0.27180  0.36990  Biso   1.000  C
  C899     1.0000 0.47500  0.23970  0.35180  Biso   1.000  C
  C900     1.0000 0.47370  0.32990  0.40360  Biso   1.000  C
  C901     1.0000 0.47520  0.20520  0.25670  Biso   1.000  C
  C902     1.0000 0.47470  0.19660  0.29020  Biso   1.000  C
  C903     1.0000 0.47300  0.36220  0.41350  Biso   1.000  C
  O173     1.0000 0.55990  0.20420  0.93881  Biso   1.000  O
  O174     1.0000 0.52740  0.24780  0.90682  Biso   1.000  O
  O175     1.0000 0.46830  0.16480  0.03430  Biso   1.000  O
  C904     1.0000 0.56910  0.15020  0.92610  Biso   1.000  C
  C905     1.0000 0.58100  0.09480  0.91550  Biso   1.000  C
  C906     1.0000 0.56140  0.11750  0.93070  Biso   1.000  C
  C907     1.0000 0.59400  0.16030  0.90300  Biso   1.000  C
  C908     1.0000 0.61410  0.13590  0.89000  Biso   1.000  C
  C909     1.0000 0.60660  0.10300  0.89430  Biso   1.000  C
  C910     1.0000 0.55100  0.17510  0.94590  Biso   1.000  C
  C911     1.0000 0.47040  0.22980  0.84280  Biso   1.000  C
  C912     1.0000 0.62810  0.08060  0.88030  Biso   1.000  C
  C913     1.0000 0.65970  0.07720  0.89100  Biso   1.000  C
  C914     1.0000 0.67950  0.05400  0.87710  Biso   1.000  C
  C915     1.0000 0.66780  0.03430  0.85270  Biso   1.000  C
  C916     1.0000 0.63620  0.03780  0.84210  Biso   1.000  C
  C917     1.0000 0.61640  0.06090  0.85590  Biso   1.000  C
  C918     1.0000 0.47130  0.22120  0.81020  Biso   1.000  C
  O176     1.0000 0.52430  0.42200  0.55920  Biso   1.000  O
  C919     1.0000 0.52280  0.27180  0.63010  Biso   1.000  C
  C920     1.0000 0.52500  0.23970  0.64820  Biso   1.000  C
  C921     1.0000 0.52630  0.32990  0.59640  Biso   1.000  C
  C922     1.0000 0.52480  0.20520  0.74330  Biso   1.000  C
  C923     1.0000 0.52530  0.19660  0.70980  Biso   1.000  C
  C924     1.0000 0.52700  0.36220  0.58650  Biso   1.000  C
  O177     1.0000 0.79580  0.93881  0.44010  Biso   1.000  O
  O178     1.0000 0.75220  0.90682  0.47260  Biso   1.000  O
  O179     1.0000 0.83520  0.03430  0.53170  Biso   1.000  O
  C925     1.0000 0.84980  0.92610  0.43090  Biso   1.000  C
  C926     1.0000 0.90520  0.91550  0.41900  Biso   1.000  C
  C927     1.0000 0.88250  0.93070  0.43860  Biso   1.000  C
  C928     1.0000 0.83970  0.90300  0.40600  Biso   1.000  C
  C929     1.0000 0.86410  0.89000  0.38590  Biso   1.000  C
  C930     1.0000 0.89700  0.89430  0.39340  Biso   1.000  C
  C931     1.0000 0.82490  0.94590  0.44900  Biso   1.000  C
  C932     1.0000 0.77020  0.84280  0.52960  Biso   1.000  C
  C933     1.0000 0.91940  0.88030  0.37190  Biso   1.000  C
  C934     1.0000 0.92280  0.89100  0.34030  Biso   1.000  C
  C935     1.0000 0.94600  0.87710  0.32050  Biso   1.000  C
  C936     1.0000 0.96570  0.85270  0.33220  Biso   1.000  C
  C937     1.0000 0.96220  0.84210  0.36380  Biso   1.000  C
  C938     1.0000 0.93910  0.85590  0.38360  Biso   1.000  C
  C939     1.0000 0.77880  0.81020  0.52870  Biso   1.000  C
  O180     1.0000 0.57800  0.55920  0.47570  Biso   1.000  O
  C940     1.0000 0.72820  0.63010  0.47720  Biso   1.000  C
  C941     1.0000 0.76030  0.64820  0.47500  Biso   1.000  C
  C942     1.0000 0.67010  0.59640  0.47370  Biso   1.000  C
  C943     1.0000 0.79480  0.74330  0.47520  Biso   1.000  C
  C944     1.0000 0.80340  0.70980  0.47470  Biso   1.000  C
  C945     1.0000 0.63780  0.58650  0.47300  Biso   1.000  C
  O181     1.0000 0.79580  0.06119  0.55990  Biso   1.000  O
  O182     1.0000 0.75220  0.09318  0.52740  Biso   1.000  O
  O183     1.0000 0.83520  0.96570  0.46830  Biso   1.000  O
  C946     1.0000 0.84980  0.07390  0.56910  Biso   1.000  C
  C947     1.0000 0.90520  0.08450  0.58100  Biso   1.000  C
  C948     1.0000 0.88250  0.06930  0.56140  Biso   1.000  C
  C949     1.0000 0.83970  0.09700  0.59400  Biso   1.000  C
  C950     1.0000 0.86410  0.11000  0.61410  Biso   1.000  C
  C951     1.0000 0.89700  0.10570  0.60660  Biso   1.000  C
  C952     1.0000 0.82490  0.05410  0.55100  Biso   1.000  C
  C953     1.0000 0.77020  0.15720  0.47040  Biso   1.000  C
  C954     1.0000 0.91940  0.11970  0.62810  Biso   1.000  C
  C955     1.0000 0.92280  0.10900  0.65970  Biso   1.000  C
  C956     1.0000 0.94600  0.12290  0.67950  Biso   1.000  C
  C957     1.0000 0.96570  0.14730  0.66780  Biso   1.000  C
  C958     1.0000 0.96220  0.15790  0.63620  Biso   1.000  C
  C959     1.0000 0.93910  0.14410  0.61640  Biso   1.000  C
  C960     1.0000 0.77880  0.18980  0.47130  Biso   1.000  C
  O184     1.0000 0.57800  0.44080  0.52430  Biso   1.000  O
  C961     1.0000 0.72820  0.36990  0.52280  Biso   1.000  C
  C962     1.0000 0.76030  0.35180  0.52500  Biso   1.000  C
  C963     1.0000 0.67010  0.40360  0.52630  Biso   1.000  C
  C964     1.0000 0.79480  0.25670  0.52480  Biso   1.000  C
  C965     1.0000 0.80340  0.29020  0.52530  Biso   1.000  C
  C966     1.0000 0.63780  0.41350  0.52700  Biso   1.000  C
  O185     1.0000 0.20420  0.93881  0.55990  Biso   1.000  O
  O186     1.0000 0.24780  0.90682  0.52740  Biso   1.000  O
  O187     1.0000 0.16480  0.03430  0.46830  Biso   1.000  O
  C967     1.0000 0.15020  0.92610  0.56910  Biso   1.000  C
  C968     1.0000 0.09480  0.91550  0.58100  Biso   1.000  C
  C969     1.0000 0.11750  0.93070  0.56140  Biso   1.000  C
  C970     1.0000 0.16030  0.90300  0.59400  Biso   1.000  C
  C971     1.0000 0.13590  0.89000  0.61410  Biso   1.000  C
  C972     1.0000 0.10300  0.89430  0.60660  Biso   1.000  C
  C973     1.0000 0.17510  0.94590  0.55100  Biso   1.000  C
  C974     1.0000 0.22980  0.84280  0.47040  Biso   1.000  C
  C975     1.0000 0.08060  0.88030  0.62810  Biso   1.000  C
  C976     1.0000 0.07720  0.89100  0.65970  Biso   1.000  C
  C977     1.0000 0.05400  0.87710  0.67950  Biso   1.000  C
  C978     1.0000 0.03430  0.85270  0.66780  Biso   1.000  C
  C979     1.0000 0.03780  0.84210  0.63620  Biso   1.000  C
  C980     1.0000 0.06090  0.85590  0.61640  Biso   1.000  C
  C981     1.0000 0.22120  0.81020  0.47130  Biso   1.000  C
  O188     1.0000 0.42200  0.55920  0.52430  Biso   1.000  O
  C982     1.0000 0.27180  0.63010  0.52280  Biso   1.000  C
  C983     1.0000 0.23970  0.64820  0.52500  Biso   1.000  C
  C984     1.0000 0.32990  0.59640  0.52630  Biso   1.000  C
  C985     1.0000 0.20520  0.74330  0.52480  Biso   1.000  C
  C986     1.0000 0.19660  0.70980  0.52530  Biso   1.000  C
  C987     1.0000 0.36220  0.58650  0.52700  Biso   1.000  C
  O189     1.0000 0.20420  0.06119  0.44010  Biso   1.000  O
  O190     1.0000 0.24780  0.09318  0.47260  Biso   1.000  O
  O191     1.0000 0.16480  0.96570  0.53170  Biso   1.000  O
  C988     1.0000 0.15020  0.07390  0.43090  Biso   1.000  C
  C989     1.0000 0.09480  0.08450  0.41900  Biso   1.000  C
  C990     1.0000 0.11750  0.06930  0.43860  Biso   1.000  C
  C991     1.0000 0.16030  0.09700  0.40600  Biso   1.000  C
  C992     1.0000 0.13590  0.11000  0.38590  Biso   1.000  C
  C993     1.0000 0.10300  0.10570  0.39340  Biso   1.000  C
  C994     1.0000 0.17510  0.05410  0.44900  Biso   1.000  C
  C995     1.0000 0.22980  0.15720  0.52960  Biso   1.000  C
  C996     1.0000 0.08060  0.11970  0.37190  Biso   1.000  C
  C997     1.0000 0.07720  0.10900  0.34030  Biso   1.000  C
  C998     1.0000 0.05400  0.12290  0.32050  Biso   1.000  C
  C999     1.0000 0.03430  0.14730  0.33220  Biso   1.000  C
  C1000    1.0000 0.03780  0.15790  0.36380  Biso   1.000  C
  C1001    1.0000 0.06090  0.14410  0.38360  Biso   1.000  C
  C1002    1.0000 0.22120  0.18980  0.52870  Biso   1.000  C
  O192     1.0000 0.42200  0.44080  0.47570  Biso   1.000  O
  C1003    1.0000 0.27180  0.36990  0.47720  Biso   1.000  C
  C1004    1.0000 0.23970  0.35180  0.47500  Biso   1.000  C
  C1005    1.0000 0.32990  0.40360  0.47370  Biso   1.000  C
  C1006    1.0000 0.20520  0.25670  0.47520  Biso   1.000  C
  C1007    1.0000 0.19660  0.29020  0.47470  Biso   1.000  C
  C1008    1.0000 0.36220  0.41350  0.47300  Biso   1.000  C
  Hf1      1.0000 0.95805  0.54195  0.75000  Biso   1.000  Hf
  Hf2      1.0000 0.04195  0.45805  0.75000  Biso   1.000  Hf
  Hf3      1.0000 0.04195  0.54195  0.25000  Biso   1.000  Hf
  Hf4      1.0000 0.95805  0.45805  0.25000  Biso   1.000  Hf
  Hf5      1.0000 0.75000  0.95805  0.54195  Biso   1.000  Hf
  Hf6      1.0000 0.75000  0.04195  0.45805  Biso   1.000  Hf
  Hf7      1.0000 0.25000  0.04195  0.54195  Biso   1.000  Hf
  Hf8      1.0000 0.25000  0.95805  0.45805  Biso   1.000  Hf
  Hf9      1.0000 0.54195  0.75000  0.95805  Biso   1.000  Hf
  Hf10     1.0000 0.45805  0.75000  0.04195  Biso   1.000  Hf
  Hf11     1.0000 0.54195  0.25000  0.04195  Biso   1.000  Hf
  Hf12     1.0000 0.45805  0.25000  0.95805  Biso   1.000  Hf
  Hf13     1.0000 0.04195  0.45805  0.25000  Biso   1.000  Hf
  Hf14     1.0000 0.95805  0.54195  0.25000  Biso   1.000  Hf
  Hf15     1.0000 0.95805  0.45805  0.75000  Biso   1.000  Hf
  Hf16     1.0000 0.04195  0.54195  0.75000  Biso   1.000  Hf
  Hf17     1.0000 0.25000  0.04195  0.45805  Biso   1.000  Hf
  Hf18     1.0000 0.25000  0.95805  0.54195  Biso   1.000  Hf
  Hf19     1.0000 0.75000  0.95805  0.45805  Biso   1.000  Hf
  Hf20     1.0000 0.75000  0.04195  0.54195  Biso   1.000  Hf
  Hf21     1.0000 0.45805  0.25000  0.04195  Biso   1.000  Hf
  Hf22     1.0000 0.54195  0.25000  0.95805  Biso   1.000  Hf
  Hf23     1.0000 0.45805  0.75000  0.95805  Biso   1.000  Hf
  Hf24     1.0000 0.54195  0.75000  0.04195  Biso   1.000  Hf
  Hf25     1.0000 0.00000  0.50000  0.69042  Biso   1.000  Hf
  Hf26     1.0000 0.00000  0.50000  0.30958  Biso   1.000  Hf
  Hf27     1.0000 0.69042  0.00000  0.50000  Biso   1.000  Hf
  Hf28     1.0000 0.30958  0.00000  0.50000  Biso   1.000  Hf
  Hf29     1.0000 0.50000  0.69042  0.00000  Biso   1.000  Hf
  Hf30     1.0000 0.50000  0.30958  0.00000  Biso   1.000  Hf
  Hf31     1.0000 0.00000  0.50000  0.80958  Biso   1.000  Hf
  Hf32     1.0000 0.00000  0.50000  0.19042  Biso   1.000  Hf
  Hf33     1.0000 0.50000  0.19042  0.00000  Biso   1.000  Hf
  Hf34     1.0000 0.50000  0.80958  0.00000  Biso   1.000  Hf
  Hf35     1.0000 0.19042  0.00000  0.50000  Biso   1.000  Hf
  Hf36     1.0000 0.80958  0.00000  0.50000  Biso   1.000  Hf
  O193     1.0000 0.95320  0.50000  0.71720  Biso   1.000  O
  O194     1.0000 0.04680  0.50000  0.71720  Biso   1.000  O
  O195     1.0000 0.04680  0.50000  0.28280  Biso   1.000  O
  O196     1.0000 0.95320  0.50000  0.28280  Biso   1.000  O
  O197     1.0000 0.71720  0.95320  0.50000  Biso   1.000  O
  O198     1.0000 0.71720  0.04680  0.50000  Biso   1.000  O
  O199     1.0000 0.28280  0.04680  0.50000  Biso   1.000  O
  O200     1.0000 0.28280  0.95320  0.50000  Biso   1.000  O
  O201     1.0000 0.50000  0.71720  0.95320  Biso   1.000  O
  O202     1.0000 0.50000  0.71720  0.04680  Biso   1.000  O
  O203     1.0000 0.50000  0.28280  0.04680  Biso   1.000  O
  O204     1.0000 0.50000  0.28280  0.95320  Biso   1.000  O
  O205     1.0000 0.00000  0.45320  0.78280  Biso   1.000  O
  O206     1.0000 0.00000  0.54680  0.78280  Biso   1.000  O
  O207     1.0000 0.00000  0.54680  0.21720  Biso   1.000  O
  O208     1.0000 0.00000  0.45320  0.21720  Biso   1.000  O
  O209     1.0000 0.45320  0.21720  0.00000  Biso   1.000  O
  O210     1.0000 0.54680  0.21720  0.00000  Biso   1.000  O
  O211     1.0000 0.54680  0.78280  0.00000  Biso   1.000  O
  O212     1.0000 0.45320  0.78280  0.00000  Biso   1.000  O
  O213     1.0000 0.21720  0.00000  0.54680  Biso   1.000  O
  O214     1.0000 0.21720  0.00000  0.45320  Biso   1.000  O
  O215     1.0000 0.78280  0.00000  0.45320  Biso   1.000  O
  O216     1.0000 0.78280  0.00000  0.54680  Biso   1.000  O
  O217     1.0000 0.00000  0.53540  0.72380  Biso   1.000  O
  C1009    1.0000 0.00000  0.60730  0.74410  Biso   1.000  C
  C1010    1.0000 0.00000  0.70620  0.71660  Biso   1.000  C
  C1011    1.0000 0.00000  0.64060  0.73490  Biso   1.000  C
  C1012    1.0000 0.00000  0.73930  0.70740  Biso   1.000  C
  O218     1.0000 0.00000  0.95030  0.96820  Biso   1.000  O
  C1013    1.0000 0.00000  0.80650  0.69080  Biso   1.000  C
  C1014    1.0000 0.00000  0.85910  0.71800  Biso   1.000  C
  C1015    1.0000 0.00000  0.84300  0.68650  Biso   1.000  C
  C1016    1.0000 0.00000  0.90640  0.81100  Biso   1.000  C
  C1017    1.0000 0.00000  0.89050  0.78020  Biso   1.000  C
  C1018    1.0000 0.00000  0.92740  0.87640  Biso   1.000  C
  C1019    1.0000 0.00000  0.95200  0.90200  Biso   1.000  C
  O219     1.0000 0.00000  0.46460  0.72380  Biso   1.000  O
  C1020    1.0000 0.00000  0.39270  0.74410  Biso   1.000  C
  C1021    1.0000 0.00000  0.29380  0.71660  Biso   1.000  C
  C1022    1.0000 0.00000  0.35940  0.73490  Biso   1.000  C
  C1023    1.0000 0.00000  0.26070  0.70740  Biso   1.000  C
  O220     1.0000 0.00000  0.04970  0.96820  Biso   1.000  O
  C1024    1.0000 0.00000  0.19350  0.69080  Biso   1.000  C
  C1025    1.0000 0.00000  0.14090  0.71800  Biso   1.000  C
  C1026    1.0000 0.00000  0.15700  0.68650  Biso   1.000  C
  C1027    1.0000 0.00000  0.09360  0.81100  Biso   1.000  C
  C1028    1.0000 0.00000  0.10950  0.78020  Biso   1.000  C
  C1029    1.0000 0.00000  0.07260  0.87640  Biso   1.000  C
  C1030    1.0000 0.00000  0.04800  0.90200  Biso   1.000  C
  O221     1.0000 0.00000  0.53540  0.27620  Biso   1.000  O
  C1031    1.0000 0.00000  0.60730  0.25590  Biso   1.000  C
  C1032    1.0000 0.00000  0.70620  0.28340  Biso   1.000  C
  C1033    1.0000 0.00000  0.64060  0.26510  Biso   1.000  C
  C1034    1.0000 0.00000  0.73930  0.29260  Biso   1.000  C
  O222     1.0000 0.00000  0.95030  0.03180  Biso   1.000  O
  C1035    1.0000 0.00000  0.80650  0.30920  Biso   1.000  C
  C1036    1.0000 0.00000  0.85910  0.28200  Biso   1.000  C
  C1037    1.0000 0.00000  0.84300  0.31350  Biso   1.000  C
  C1038    1.0000 0.00000  0.90640  0.18900  Biso   1.000  C
  C1039    1.0000 0.00000  0.89050  0.21980  Biso   1.000  C
  C1040    1.0000 0.00000  0.92740  0.12360  Biso   1.000  C
  C1041    1.0000 0.00000  0.95200  0.09800  Biso   1.000  C
  O223     1.0000 0.00000  0.46460  0.27620  Biso   1.000  O
  C1042    1.0000 0.00000  0.39270  0.25590  Biso   1.000  C
  C1043    1.0000 0.00000  0.29380  0.28340  Biso   1.000  C
  C1044    1.0000 0.00000  0.35940  0.26510  Biso   1.000  C
  C1045    1.0000 0.00000  0.26070  0.29260  Biso   1.000  C
  O224     1.0000 0.00000  0.04970  0.03180  Biso   1.000  O
  C1046    1.0000 0.00000  0.19350  0.30920  Biso   1.000  C
  C1047    1.0000 0.00000  0.14090  0.28200  Biso   1.000  C
  C1048    1.0000 0.00000  0.15700  0.31350  Biso   1.000  C
  C1049    1.0000 0.00000  0.09360  0.18900  Biso   1.000  C
  C1050    1.0000 0.00000  0.10950  0.21980  Biso   1.000  C
  C1051    1.0000 0.00000  0.07260  0.12360  Biso   1.000  C
  C1052    1.0000 0.00000  0.04800  0.09800  Biso   1.000  C
  O225     1.0000 0.72380  0.00000  0.53540  Biso   1.000  O
  C1053    1.0000 0.74410  0.00000  0.60730  Biso   1.000  C
  C1054    1.0000 0.71660  0.00000  0.70620  Biso   1.000  C
  C1055    1.0000 0.73490  0.00000  0.64060  Biso   1.000  C
  C1056    1.0000 0.70740  0.00000  0.73930  Biso   1.000  C
  O226     1.0000 0.96820  0.00000  0.95030  Biso   1.000  O
  C1057    1.0000 0.69080  0.00000  0.80650  Biso   1.000  C
  C1058    1.0000 0.71800  0.00000  0.85910  Biso   1.000  C
  C1059    1.0000 0.68650  0.00000  0.84300  Biso   1.000  C
  C1060    1.0000 0.81100  0.00000  0.90640  Biso   1.000  C
  C1061    1.0000 0.78020  0.00000  0.89050  Biso   1.000  C
  C1062    1.0000 0.87640  0.00000  0.92740  Biso   1.000  C
  C1063    1.0000 0.90200  0.00000  0.95200  Biso   1.000  C
  O227     1.0000 0.72380  0.00000  0.46460  Biso   1.000  O
  C1064    1.0000 0.74410  0.00000  0.39270  Biso   1.000  C
  C1065    1.0000 0.71660  0.00000  0.29380  Biso   1.000  C
  C1066    1.0000 0.73490  0.00000  0.35940  Biso   1.000  C
  C1067    1.0000 0.70740  0.00000  0.26070  Biso   1.000  C
  O228     1.0000 0.96820  0.00000  0.04970  Biso   1.000  O
  C1068    1.0000 0.69080  0.00000  0.19350  Biso   1.000  C
  C1069    1.0000 0.71800  0.00000  0.14090  Biso   1.000  C
  C1070    1.0000 0.68650  0.00000  0.15700  Biso   1.000  C
  C1071    1.0000 0.81100  0.00000  0.09360  Biso   1.000  C
  C1072    1.0000 0.78020  0.00000  0.10950  Biso   1.000  C
  C1073    1.0000 0.87640  0.00000  0.07260  Biso   1.000  C
  C1074    1.0000 0.90200  0.00000  0.04800  Biso   1.000  C
  O229     1.0000 0.27620  0.00000  0.53540  Biso   1.000  O
  C1075    1.0000 0.25590  0.00000  0.60730  Biso   1.000  C
  C1076    1.0000 0.28340  0.00000  0.70620  Biso   1.000  C
  C1077    1.0000 0.26510  0.00000  0.64060  Biso   1.000  C
  C1078    1.0000 0.29260  0.00000  0.73930  Biso   1.000  C
  O230     1.0000 0.03180  0.00000  0.95030  Biso   1.000  O
  C1079    1.0000 0.30920  0.00000  0.80650  Biso   1.000  C
  C1080    1.0000 0.28200  0.00000  0.85910  Biso   1.000  C
  C1081    1.0000 0.31350  0.00000  0.84300  Biso   1.000  C
  C1082    1.0000 0.18900  0.00000  0.90640  Biso   1.000  C
  C1083    1.0000 0.21980  0.00000  0.89050  Biso   1.000  C
  C1084    1.0000 0.12360  0.00000  0.92740  Biso   1.000  C
  C1085    1.0000 0.09800  0.00000  0.95200  Biso   1.000  C
  O231     1.0000 0.27620  0.00000  0.46460  Biso   1.000  O
  C1086    1.0000 0.25590  0.00000  0.39270  Biso   1.000  C
  C1087    1.0000 0.28340  0.00000  0.29380  Biso   1.000  C
  C1088    1.0000 0.26510  0.00000  0.35940  Biso   1.000  C
  C1089    1.0000 0.29260  0.00000  0.26070  Biso   1.000  C
  O232     1.0000 0.03180  0.00000  0.04970  Biso   1.000  O
  C1090    1.0000 0.30920  0.00000  0.19350  Biso   1.000  C
  C1091    1.0000 0.28200  0.00000  0.14090  Biso   1.000  C
  C1092    1.0000 0.31350  0.00000  0.15700  Biso   1.000  C
  C1093    1.0000 0.18900  0.00000  0.09360  Biso   1.000  C
  C1094    1.0000 0.21980  0.00000  0.10950  Biso   1.000  C
  C1095    1.0000 0.12360  0.00000  0.07260  Biso   1.000  C
  C1096    1.0000 0.09800  0.00000  0.04800  Biso   1.000  C
  O233     1.0000 0.53540  0.72380  0.00000  Biso   1.000  O
  C1097    1.0000 0.60730  0.74410  0.00000  Biso   1.000  C
  C1098    1.0000 0.70620  0.71660  0.00000  Biso   1.000  C
  C1099    1.0000 0.64060  0.73490  0.00000  Biso   1.000  C
  C1100    1.0000 0.73930  0.70740  0.00000  Biso   1.000  C
  O234     1.0000 0.95030  0.96820  0.00000  Biso   1.000  O
  C1101    1.0000 0.80650  0.69080  0.00000  Biso   1.000  C
  C1102    1.0000 0.85910  0.71800  0.00000  Biso   1.000  C
  C1103    1.0000 0.84300  0.68650  0.00000  Biso   1.000  C
  C1104    1.0000 0.90640  0.81100  0.00000  Biso   1.000  C
  C1105    1.0000 0.89050  0.78020  0.00000  Biso   1.000  C
  C1106    1.0000 0.92740  0.87640  0.00000  Biso   1.000  C
  C1107    1.0000 0.95200  0.90200  0.00000  Biso   1.000  C
  O235     1.0000 0.46460  0.72380  0.00000  Biso   1.000  O
  C1108    1.0000 0.39270  0.74410  0.00000  Biso   1.000  C
  C1109    1.0000 0.29380  0.71660  0.00000  Biso   1.000  C
  C1110    1.0000 0.35940  0.73490  0.00000  Biso   1.000  C
  C1111    1.0000 0.26070  0.70740  0.00000  Biso   1.000  C
  O236     1.0000 0.04970  0.96820  0.00000  Biso   1.000  O
  C1112    1.0000 0.19350  0.69080  0.00000  Biso   1.000  C
  C1113    1.0000 0.14090  0.71800  0.00000  Biso   1.000  C
  C1114    1.0000 0.15700  0.68650  0.00000  Biso   1.000  C
  C1115    1.0000 0.09360  0.81100  0.00000  Biso   1.000  C
  C1116    1.0000 0.10950  0.78020  0.00000  Biso   1.000  C
  C1117    1.0000 0.07260  0.87640  0.00000  Biso   1.000  C
  C1118    1.0000 0.04800  0.90200  0.00000  Biso   1.000  C
  O237     1.0000 0.53540  0.27620  0.00000  Biso   1.000  O
  C1119    1.0000 0.60730  0.25590  0.00000  Biso   1.000  C
  C1120    1.0000 0.70620  0.28340  0.00000  Biso   1.000  C
  C1121    1.0000 0.64060  0.26510  0.00000  Biso   1.000  C
  C1122    1.0000 0.73930  0.29260  0.00000  Biso   1.000  C
  O238     1.0000 0.95030  0.03180  0.00000  Biso   1.000  O
  C1123    1.0000 0.80650  0.30920  0.00000  Biso   1.000  C
  C1124    1.0000 0.85910  0.28200  0.00000  Biso   1.000  C
  C1125    1.0000 0.84300  0.31350  0.00000  Biso   1.000  C
  C1126    1.0000 0.90640  0.18900  0.00000  Biso   1.000  C
  C1127    1.0000 0.89050  0.21980  0.00000  Biso   1.000  C
  C1128    1.0000 0.92740  0.12360  0.00000  Biso   1.000  C
  C1129    1.0000 0.95200  0.09800  0.00000  Biso   1.000  C
  O239     1.0000 0.46460  0.27620  0.00000  Biso   1.000  O
  C1130    1.0000 0.39270  0.25590  0.00000  Biso   1.000  C
  C1131    1.0000 0.29380  0.28340  0.00000  Biso   1.000  C
  C1132    1.0000 0.35940  0.26510  0.00000  Biso   1.000  C
  C1133    1.0000 0.26070  0.29260  0.00000  Biso   1.000  C
  O240     1.0000 0.04970  0.03180  0.00000  Biso   1.000  O
  C1134    1.0000 0.19350  0.30920  0.00000  Biso   1.000  C
  C1135    1.0000 0.14090  0.28200  0.00000  Biso   1.000  C
  C1136    1.0000 0.15700  0.31350  0.00000  Biso   1.000  C
  C1137    1.0000 0.09360  0.18900  0.00000  Biso   1.000  C
  C1138    1.0000 0.10950  0.21980  0.00000  Biso   1.000  C
  C1139    1.0000 0.07260  0.12360  0.00000  Biso   1.000  C
  C1140    1.0000 0.04800  0.09800  0.00000  Biso   1.000  C
  O241     1.0000 0.03540  0.50000  0.77620  Biso   1.000  O
  C1141    1.0000 0.10730  0.50000  0.75590  Biso   1.000  C
  C1142    1.0000 0.20620  0.50000  0.78340  Biso   1.000  C
  C1143    1.0000 0.14060  0.50000  0.76510  Biso   1.000  C
  C1144    1.0000 0.23930  0.50000  0.79260  Biso   1.000  C
  O242     1.0000 0.45030  0.50000  0.53180  Biso   1.000  O
  C1145    1.0000 0.30650  0.50000  0.80920  Biso   1.000  C
  C1146    1.0000 0.35910  0.50000  0.78200  Biso   1.000  C
  C1147    1.0000 0.34300  0.50000  0.81350  Biso   1.000  C
  C1148    1.0000 0.40640  0.50000  0.68900  Biso   1.000  C
  C1149    1.0000 0.39050  0.50000  0.71980  Biso   1.000  C
  C1150    1.0000 0.42740  0.50000  0.62360  Biso   1.000  C
  C1151    1.0000 0.45200  0.50000  0.59800  Biso   1.000  C
  O243     1.0000 0.96460  0.50000  0.77620  Biso   1.000  O
  C1152    1.0000 0.89270  0.50000  0.75590  Biso   1.000  C
  C1153    1.0000 0.79380  0.50000  0.78340  Biso   1.000  C
  C1154    1.0000 0.85940  0.50000  0.76510  Biso   1.000  C
  C1155    1.0000 0.76070  0.50000  0.79260  Biso   1.000  C
  O244     1.0000 0.54970  0.50000  0.53180  Biso   1.000  O
  C1156    1.0000 0.69350  0.50000  0.80920  Biso   1.000  C
  C1157    1.0000 0.64090  0.50000  0.78200  Biso   1.000  C
  C1158    1.0000 0.65700  0.50000  0.81350  Biso   1.000  C
  C1159    1.0000 0.59360  0.50000  0.68900  Biso   1.000  C
  C1160    1.0000 0.60950  0.50000  0.71980  Biso   1.000  C
  C1161    1.0000 0.57260  0.50000  0.62360  Biso   1.000  C
  C1162    1.0000 0.54800  0.50000  0.59800  Biso   1.000  C
  O245     1.0000 0.03540  0.50000  0.22380  Biso   1.000  O
  C1163    1.0000 0.10730  0.50000  0.24410  Biso   1.000  C
  C1164    1.0000 0.20620  0.50000  0.21660  Biso   1.000  C
  C1165    1.0000 0.14060  0.50000  0.23490  Biso   1.000  C
  C1166    1.0000 0.23930  0.50000  0.20740  Biso   1.000  C
  O246     1.0000 0.45030  0.50000  0.46820  Biso   1.000  O
  C1167    1.0000 0.30650  0.50000  0.19080  Biso   1.000  C
  C1168    1.0000 0.35910  0.50000  0.21800  Biso   1.000  C
  C1169    1.0000 0.34300  0.50000  0.18650  Biso   1.000  C
  C1170    1.0000 0.40640  0.50000  0.31100  Biso   1.000  C
  C1171    1.0000 0.39050  0.50000  0.28020  Biso   1.000  C
  C1172    1.0000 0.42740  0.50000  0.37640  Biso   1.000  C
  C1173    1.0000 0.45200  0.50000  0.40200  Biso   1.000  C
  O247     1.0000 0.96460  0.50000  0.22380  Biso   1.000  O
  C1174    1.0000 0.89270  0.50000  0.24410  Biso   1.000  C
  C1175    1.0000 0.79380  0.50000  0.21660  Biso   1.000  C
  C1176    1.0000 0.85940  0.50000  0.23490  Biso   1.000  C
  C1177    1.0000 0.76070  0.50000  0.20740  Biso   1.000  C
  O248     1.0000 0.54970  0.50000  0.46820  Biso   1.000  O
  C1178    1.0000 0.69350  0.50000  0.19080  Biso   1.000  C
  C1179    1.0000 0.64090  0.50000  0.21800  Biso   1.000  C
  C1180    1.0000 0.65700  0.50000  0.18650  Biso   1.000  C
  C1181    1.0000 0.59360  0.50000  0.31100  Biso   1.000  C
  C1182    1.0000 0.60950  0.50000  0.28020  Biso   1.000  C
  C1183    1.0000 0.57260  0.50000  0.37640  Biso   1.000  C
  C1184    1.0000 0.54800  0.50000  0.40200  Biso   1.000  C
  O249     1.0000 0.50000  0.22380  0.96460  Biso   1.000  O
  C1185    1.0000 0.50000  0.24410  0.89270  Biso   1.000  C
  C1186    1.0000 0.50000  0.21660  0.79380  Biso   1.000  C
  C1187    1.0000 0.50000  0.23490  0.85940  Biso   1.000  C
  C1188    1.0000 0.50000  0.20740  0.76070  Biso   1.000  C
  O250     1.0000 0.50000  0.46820  0.54970  Biso   1.000  O
  C1189    1.0000 0.50000  0.19080  0.69350  Biso   1.000  C
  C1190    1.0000 0.50000  0.21800  0.64090  Biso   1.000  C
  C1191    1.0000 0.50000  0.18650  0.65700  Biso   1.000  C
  C1192    1.0000 0.50000  0.31100  0.59360  Biso   1.000  C
  C1193    1.0000 0.50000  0.28020  0.60950  Biso   1.000  C
  C1194    1.0000 0.50000  0.37640  0.57260  Biso   1.000  C
  C1195    1.0000 0.50000  0.40200  0.54800  Biso   1.000  C
  O251     1.0000 0.50000  0.22380  0.03540  Biso   1.000  O
  C1196    1.0000 0.50000  0.24410  0.10730  Biso   1.000  C
  C1197    1.0000 0.50000  0.21660  0.20620  Biso   1.000  C
  C1198    1.0000 0.50000  0.23490  0.14060  Biso   1.000  C
  C1199    1.0000 0.50000  0.20740  0.23930  Biso   1.000  C
  O252     1.0000 0.50000  0.46820  0.45030  Biso   1.000  O
  C1200    1.0000 0.50000  0.19080  0.30650  Biso   1.000  C
  C1201    1.0000 0.50000  0.21800  0.35910  Biso   1.000  C
  C1202    1.0000 0.50000  0.18650  0.34300  Biso   1.000  C
  C1203    1.0000 0.50000  0.31100  0.40640  Biso   1.000  C
  C1204    1.0000 0.50000  0.28020  0.39050  Biso   1.000  C
  C1205    1.0000 0.50000  0.37640  0.42740  Biso   1.000  C
  C1206    1.0000 0.50000  0.40200  0.45200  Biso   1.000  C
  O253     1.0000 0.50000  0.77620  0.96460  Biso   1.000  O
  C1207    1.0000 0.50000  0.75590  0.89270  Biso   1.000  C
  C1208    1.0000 0.50000  0.78340  0.79380  Biso   1.000  C
  C1209    1.0000 0.50000  0.76510  0.85940  Biso   1.000  C
  C1210    1.0000 0.50000  0.79260  0.76070  Biso   1.000  C
  O254     1.0000 0.50000  0.53180  0.54970  Biso   1.000  O
  C1211    1.0000 0.50000  0.80920  0.69350  Biso   1.000  C
  C1212    1.0000 0.50000  0.78200  0.64090  Biso   1.000  C
  C1213    1.0000 0.50000  0.81350  0.65700  Biso   1.000  C
  C1214    1.0000 0.50000  0.68900  0.59360  Biso   1.000  C
  C1215    1.0000 0.50000  0.71980  0.60950  Biso   1.000  C
  C1216    1.0000 0.50000  0.62360  0.57260  Biso   1.000  C
  C1217    1.0000 0.50000  0.59800  0.54800  Biso   1.000  C
  O255     1.0000 0.50000  0.77620  0.03540  Biso   1.000  O
  C1218    1.0000 0.50000  0.75590  0.10730  Biso   1.000  C
  C1219    1.0000 0.50000  0.78340  0.20620  Biso   1.000  C
  C1220    1.0000 0.50000  0.76510  0.14060  Biso   1.000  C
  C1221    1.0000 0.50000  0.79260  0.23930  Biso   1.000  C
  O256     1.0000 0.50000  0.53180  0.45030  Biso   1.000  O
  C1222    1.0000 0.50000  0.80920  0.30650  Biso   1.000  C
  C1223    1.0000 0.50000  0.78200  0.35910  Biso   1.000  C
  C1224    1.0000 0.50000  0.81350  0.34300  Biso   1.000  C
  C1225    1.0000 0.50000  0.68900  0.40640  Biso   1.000  C
  C1226    1.0000 0.50000  0.71980  0.39050  Biso   1.000  C
  C1227    1.0000 0.50000  0.62360  0.42740  Biso   1.000  C
  C1228    1.0000 0.50000  0.59800  0.45200  Biso   1.000  C
  O257     1.0000 0.22380  0.03540  0.50000  Biso   1.000  O
  C1229    1.0000 0.24410  0.10730  0.50000  Biso   1.000  C
  C1230    1.0000 0.21660  0.20620  0.50000  Biso   1.000  C
  C1231    1.0000 0.23490  0.14060  0.50000  Biso   1.000  C
  C1232    1.0000 0.20740  0.23930  0.50000  Biso   1.000  C
  O258     1.0000 0.46820  0.45030  0.50000  Biso   1.000  O
  C1233    1.0000 0.19080  0.30650  0.50000  Biso   1.000  C
  C1234    1.0000 0.21800  0.35910  0.50000  Biso   1.000  C
  C1235    1.0000 0.18650  0.34300  0.50000  Biso   1.000  C
  C1236    1.0000 0.31100  0.40640  0.50000  Biso   1.000  C
  C1237    1.0000 0.28020  0.39050  0.50000  Biso   1.000  C
  C1238    1.0000 0.37640  0.42740  0.50000  Biso   1.000  C
  C1239    1.0000 0.40200  0.45200  0.50000  Biso   1.000  C
  O259     1.0000 0.22380  0.96460  0.50000  Biso   1.000  O
  C1240    1.0000 0.24410  0.89270  0.50000  Biso   1.000  C
  C1241    1.0000 0.21660  0.79380  0.50000  Biso   1.000  C
  C1242    1.0000 0.23490  0.85940  0.50000  Biso   1.000  C
  C1243    1.0000 0.20740  0.76070  0.50000  Biso   1.000  C
  O260     1.0000 0.46820  0.54970  0.50000  Biso   1.000  O
  C1244    1.0000 0.19080  0.69350  0.50000  Biso   1.000  C
  C1245    1.0000 0.21800  0.64090  0.50000  Biso   1.000  C
  C1246    1.0000 0.18650  0.65700  0.50000  Biso   1.000  C
  C1247    1.0000 0.31100  0.59360  0.50000  Biso   1.000  C
  C1248    1.0000 0.28020  0.60950  0.50000  Biso   1.000  C
  C1249    1.0000 0.37640  0.57260  0.50000  Biso   1.000  C
  C1250    1.0000 0.40200  0.54800  0.50000  Biso   1.000  C
  O261     1.0000 0.77620  0.03540  0.50000  Biso   1.000  O
  C1251    1.0000 0.75590  0.10730  0.50000  Biso   1.000  C
  C1252    1.0000 0.78340  0.20620  0.50000  Biso   1.000  C
  C1253    1.0000 0.76510  0.14060  0.50000  Biso   1.000  C
  C1254    1.0000 0.79260  0.23930  0.50000  Biso   1.000  C
  O262     1.0000 0.53180  0.45030  0.50000  Biso   1.000  O
  C1255    1.0000 0.80920  0.30650  0.50000  Biso   1.000  C
  C1256    1.0000 0.78200  0.35910  0.50000  Biso   1.000  C
  C1257    1.0000 0.81350  0.34300  0.50000  Biso   1.000  C
  C1258    1.0000 0.68900  0.40640  0.50000  Biso   1.000  C
  C1259    1.0000 0.71980  0.39050  0.50000  Biso   1.000  C
  C1260    1.0000 0.62360  0.42740  0.50000  Biso   1.000  C
  C1261    1.0000 0.59800  0.45200  0.50000  Biso   1.000  C
  O263     1.0000 0.77620  0.96460  0.50000  Biso   1.000  O
  C1262    1.0000 0.75590  0.89270  0.50000  Biso   1.000  C
  C1263    1.0000 0.78340  0.79380  0.50000  Biso   1.000  C
  C1264    1.0000 0.76510  0.85940  0.50000  Biso   1.000  C
  C1265    1.0000 0.79260  0.76070  0.50000  Biso   1.000  C
  O264     1.0000 0.53180  0.54970  0.50000  Biso   1.000  O
  C1266    1.0000 0.80920  0.69350  0.50000  Biso   1.000  C
  C1267    1.0000 0.78200  0.64090  0.50000  Biso   1.000  C
  C1268    1.0000 0.81350  0.65700  0.50000  Biso   1.000  C
  C1269    1.0000 0.68900  0.59360  0.50000  Biso   1.000  C
  C1270    1.0000 0.71980  0.60950  0.50000  Biso   1.000  C
  C1271    1.0000 0.62360  0.57260  0.50000  Biso   1.000  C
  C1272    1.0000 0.59800  0.54800  0.50000  Biso   1.000  C
  Hf37     1.0000 0.96708  0.96708  0.96708  Biso   1.000  Hf
  Hf38     1.0000 0.03292  0.03292  0.96708  Biso   1.000  Hf
  Hf39     1.0000 0.03292  0.96708  0.03292  Biso   1.000  Hf
  Hf40     1.0000 0.96708  0.03292  0.03292  Biso   1.000  Hf
  Hf41     1.0000 0.46708  0.46708  0.53292  Biso   1.000  Hf
  Hf42     1.0000 0.53292  0.53292  0.53292  Biso   1.000  Hf
  Hf43     1.0000 0.46708  0.53292  0.46708  Biso   1.000  Hf
  Hf44     1.0000 0.53292  0.46708  0.46708  Biso   1.000  Hf
  Hf45     1.0000 0.03292  0.03292  0.03292  Biso   1.000  Hf
  Hf46     1.0000 0.96708  0.96708  0.03292  Biso   1.000  Hf
  Hf47     1.0000 0.96708  0.03292  0.96708  Biso   1.000  Hf
  Hf48     1.0000 0.03292  0.96708  0.96708  Biso   1.000  Hf
  Hf49     1.0000 0.53292  0.53292  0.46708  Biso   1.000  Hf
  Hf50     1.0000 0.46708  0.46708  0.46708  Biso   1.000  Hf
  Hf51     1.0000 0.53292  0.46708  0.53292  Biso   1.000  Hf
  Hf52     1.0000 0.46708  0.53292  0.53292  Biso   1.000  Hf
