data_image0
_cell_length_a       37.726
_cell_length_b       37.726
_cell_length_c       37.726
_cell_angle_alpha    90
_cell_angle_beta     90
_cell_angle_gamma    90

_symmetry_space_group_name_H-M    "P 1"
_symmetry_int_tables_number       1

loop_
  _symmetry_equiv_pos_as_xyz
  'x, y, z'

loop_
  _atom_site_label
  _atom_site_occupancy
  _atom_site_fract_x
  _atom_site_fract_y
  _atom_site_fract_z
  _atom_site_thermal_displace_type
  _atom_site_B_iso_or_equiv
  _atom_site_type_symbol
  C1       1.0000 0.35731  0.19494  0.33185  Biso   1.000  C
  C2       1.0000 0.38382  0.22484  0.33887  Biso   1.000  C
  C3       1.0000 0.43700  0.31480  0.38500  Biso   1.000  C
  C4       1.0000 0.41850  0.28400  0.36710  Biso   1.000  C
  C5       1.0000 0.42840  0.26800  0.33780  Biso   1.000  C
  C6       1.0000 0.47290  0.31950  0.38130  Biso   1.000  C
  C7       1.0000 0.48980  0.34220  0.40000  Biso   1.000  C
  C8       1.0000 0.41260  0.24020  0.32550  Biso   1.000  C
  O1       1.0000 0.52410  0.39880  0.43320  Biso   1.000  O
  C9       1.0000 0.49470  0.38860  0.43700  Biso   1.000  C
  C10      1.0000 0.47510  0.36810  0.42100  Biso   1.000  C
  C11      1.0000 0.38650  0.25290  0.30720  Biso   1.000  C
  C12      1.0000 0.42240  0.20950  0.34310  Biso   1.000  C
  C13      1.0000 0.35190  0.29710  0.26890  Biso   1.000  C
  C14      1.0000 0.42440  0.18050  0.37280  Biso   1.000  C
  C15      1.0000 0.35731  0.69494  0.83185  Biso   1.000  C
  C16      1.0000 0.38382  0.72484  0.83887  Biso   1.000  C
  C17      1.0000 0.43700  0.81480  0.88500  Biso   1.000  C
  C18      1.0000 0.41850  0.78400  0.86710  Biso   1.000  C
  C19      1.0000 0.42840  0.76800  0.83780  Biso   1.000  C
  C20      1.0000 0.47290  0.81950  0.88130  Biso   1.000  C
  C21      1.0000 0.48980  0.84220  0.90000  Biso   1.000  C
  C22      1.0000 0.41260  0.74020  0.82550  Biso   1.000  C
  O2       1.0000 0.52410  0.89880  0.93320  Biso   1.000  O
  C23      1.0000 0.49470  0.88860  0.93700  Biso   1.000  C
  C24      1.0000 0.47510  0.86810  0.92100  Biso   1.000  C
  C25      1.0000 0.38650  0.75290  0.80720  Biso   1.000  C
  C26      1.0000 0.42240  0.70950  0.84310  Biso   1.000  C
  C27      1.0000 0.35190  0.79710  0.76890  Biso   1.000  C
  C28      1.0000 0.42440  0.68050  0.87280  Biso   1.000  C
  C29      1.0000 0.85731  0.19494  0.83185  Biso   1.000  C
  C30      1.0000 0.88382  0.22484  0.83887  Biso   1.000  C
  C31      1.0000 0.93700  0.31480  0.88500  Biso   1.000  C
  C32      1.0000 0.91850  0.28400  0.86710  Biso   1.000  C
  C33      1.0000 0.92840  0.26800  0.83780  Biso   1.000  C
  C34      1.0000 0.97290  0.31950  0.88130  Biso   1.000  C
  C35      1.0000 0.98980  0.34220  0.90000  Biso   1.000  C
  C36      1.0000 0.91260  0.24020  0.82550  Biso   1.000  C
  O3       1.0000 0.02410  0.39880  0.93320  Biso   1.000  O
  C37      1.0000 0.99470  0.38860  0.93700  Biso   1.000  C
  C38      1.0000 0.97510  0.36810  0.92100  Biso   1.000  C
  C39      1.0000 0.88650  0.25290  0.80720  Biso   1.000  C
  C40      1.0000 0.92240  0.20950  0.84310  Biso   1.000  C
  C41      1.0000 0.85190  0.29710  0.76890  Biso   1.000  C
  C42      1.0000 0.92440  0.18050  0.87280  Biso   1.000  C
  C43      1.0000 0.85731  0.69494  0.33185  Biso   1.000  C
  C44      1.0000 0.88382  0.72484  0.33887  Biso   1.000  C
  C45      1.0000 0.93700  0.81480  0.38500  Biso   1.000  C
  C46      1.0000 0.91850  0.78400  0.36710  Biso   1.000  C
  C47      1.0000 0.92840  0.76800  0.33780  Biso   1.000  C
  C48      1.0000 0.97290  0.81950  0.38130  Biso   1.000  C
  C49      1.0000 0.98980  0.84220  0.40000  Biso   1.000  C
  C50      1.0000 0.91260  0.74020  0.32550  Biso   1.000  C
  O4       1.0000 0.02410  0.89880  0.43320  Biso   1.000  O
  C51      1.0000 0.99470  0.88860  0.43700  Biso   1.000  C
  C52      1.0000 0.97510  0.86810  0.42100  Biso   1.000  C
  C53      1.0000 0.88650  0.75290  0.30720  Biso   1.000  C
  C54      1.0000 0.92240  0.70950  0.34310  Biso   1.000  C
  C55      1.0000 0.85190  0.79710  0.26890  Biso   1.000  C
  C56      1.0000 0.92440  0.68050  0.37280  Biso   1.000  C
  C57      1.0000 0.64269  0.80506  0.33185  Biso   1.000  C
  C58      1.0000 0.61618  0.77516  0.33887  Biso   1.000  C
  C59      1.0000 0.56300  0.68520  0.38500  Biso   1.000  C
  C60      1.0000 0.58150  0.71600  0.36710  Biso   1.000  C
  C61      1.0000 0.57160  0.73200  0.33780  Biso   1.000  C
  C62      1.0000 0.52710  0.68050  0.38130  Biso   1.000  C
  C63      1.0000 0.51020  0.65780  0.40000  Biso   1.000  C
  C64      1.0000 0.58740  0.75980  0.32550  Biso   1.000  C
  O5       1.0000 0.47590  0.60120  0.43320  Biso   1.000  O
  C65      1.0000 0.50530  0.61140  0.43700  Biso   1.000  C
  C66      1.0000 0.52490  0.63190  0.42100  Biso   1.000  C
  C67      1.0000 0.61350  0.74710  0.30720  Biso   1.000  C
  C68      1.0000 0.57760  0.79050  0.34310  Biso   1.000  C
  C69      1.0000 0.64810  0.70290  0.26890  Biso   1.000  C
  C70      1.0000 0.57560  0.81950  0.37280  Biso   1.000  C
  C71      1.0000 0.64269  0.30506  0.83185  Biso   1.000  C
  C72      1.0000 0.61618  0.27516  0.83887  Biso   1.000  C
  C73      1.0000 0.56300  0.18520  0.88500  Biso   1.000  C
  C74      1.0000 0.58150  0.21600  0.86710  Biso   1.000  C
  C75      1.0000 0.57160  0.23200  0.83780  Biso   1.000  C
  C76      1.0000 0.52710  0.18050  0.88130  Biso   1.000  C
  C77      1.0000 0.51020  0.15780  0.90000  Biso   1.000  C
  C78      1.0000 0.58740  0.25980  0.82550  Biso   1.000  C
  O6       1.0000 0.47590  0.10120  0.93320  Biso   1.000  O
  C79      1.0000 0.50530  0.11140  0.93700  Biso   1.000  C
  C80      1.0000 0.52490  0.13190  0.92100  Biso   1.000  C
  C81      1.0000 0.61350  0.24710  0.80720  Biso   1.000  C
  C82      1.0000 0.57760  0.29050  0.84310  Biso   1.000  C
  C83      1.0000 0.64810  0.20290  0.76890  Biso   1.000  C
  C84      1.0000 0.57560  0.31950  0.87280  Biso   1.000  C
  C85      1.0000 0.14269  0.80506  0.83185  Biso   1.000  C
  C86      1.0000 0.11618  0.77516  0.83887  Biso   1.000  C
  C87      1.0000 0.06300  0.68520  0.88500  Biso   1.000  C
  C88      1.0000 0.08150  0.71600  0.86710  Biso   1.000  C
  C89      1.0000 0.07160  0.73200  0.83780  Biso   1.000  C
  C90      1.0000 0.02710  0.68050  0.88130  Biso   1.000  C
  C91      1.0000 0.01020  0.65780  0.90000  Biso   1.000  C
  C92      1.0000 0.08740  0.75980  0.82550  Biso   1.000  C
  O7       1.0000 0.97590  0.60120  0.93320  Biso   1.000  O
  C93      1.0000 0.00530  0.61140  0.93700  Biso   1.000  C
  C94      1.0000 0.02490  0.63190  0.92100  Biso   1.000  C
  C95      1.0000 0.11350  0.74710  0.80720  Biso   1.000  C
  C96      1.0000 0.07760  0.79050  0.84310  Biso   1.000  C
  C97      1.0000 0.14810  0.70290  0.76890  Biso   1.000  C
  C98      1.0000 0.07560  0.81950  0.87280  Biso   1.000  C
  C99      1.0000 0.14269  0.30506  0.33185  Biso   1.000  C
  C100     1.0000 0.11618  0.27516  0.33887  Biso   1.000  C
  C101     1.0000 0.06300  0.18520  0.38500  Biso   1.000  C
  C102     1.0000 0.08150  0.21600  0.36710  Biso   1.000  C
  C103     1.0000 0.07160  0.23200  0.33780  Biso   1.000  C
  C104     1.0000 0.02710  0.18050  0.38130  Biso   1.000  C
  C105     1.0000 0.01020  0.15780  0.40000  Biso   1.000  C
  C106     1.0000 0.08740  0.25980  0.32550  Biso   1.000  C
  O8       1.0000 0.97590  0.10120  0.43320  Biso   1.000  O
  C107     1.0000 0.00530  0.11140  0.43700  Biso   1.000  C
  C108     1.0000 0.02490  0.13190  0.42100  Biso   1.000  C
  C109     1.0000 0.11350  0.24710  0.30720  Biso   1.000  C
  C110     1.0000 0.07760  0.29050  0.34310  Biso   1.000  C
  C111     1.0000 0.14810  0.20290  0.26890  Biso   1.000  C
  C112     1.0000 0.07560  0.31950  0.37280  Biso   1.000  C
  C113     1.0000 0.64269  0.19494  0.66815  Biso   1.000  C
  C114     1.0000 0.61618  0.22484  0.66113  Biso   1.000  C
  C115     1.0000 0.56300  0.31480  0.61500  Biso   1.000  C
  C116     1.0000 0.58150  0.28400  0.63290  Biso   1.000  C
  C117     1.0000 0.57160  0.26800  0.66220  Biso   1.000  C
  C118     1.0000 0.52710  0.31950  0.61870  Biso   1.000  C
  C119     1.0000 0.51020  0.34220  0.60000  Biso   1.000  C
  C120     1.0000 0.58740  0.24020  0.67450  Biso   1.000  C
  O9       1.0000 0.47590  0.39880  0.56680  Biso   1.000  O
  C121     1.0000 0.50530  0.38860  0.56300  Biso   1.000  C
  C122     1.0000 0.52490  0.36810  0.57900  Biso   1.000  C
  C123     1.0000 0.61350  0.25290  0.69280  Biso   1.000  C
  C124     1.0000 0.57760  0.20950  0.65690  Biso   1.000  C
  C125     1.0000 0.64810  0.29710  0.73110  Biso   1.000  C
  C126     1.0000 0.57560  0.18050  0.62720  Biso   1.000  C
  C127     1.0000 0.64269  0.69494  0.16815  Biso   1.000  C
  C128     1.0000 0.61618  0.72484  0.16113  Biso   1.000  C
  C129     1.0000 0.56300  0.81480  0.11500  Biso   1.000  C
  C130     1.0000 0.58150  0.78400  0.13290  Biso   1.000  C
  C131     1.0000 0.57160  0.76800  0.16220  Biso   1.000  C
  C132     1.0000 0.52710  0.81950  0.11870  Biso   1.000  C
  C133     1.0000 0.51020  0.84220  0.10000  Biso   1.000  C
  C134     1.0000 0.58740  0.74020  0.17450  Biso   1.000  C
  O10      1.0000 0.47590  0.89880  0.06680  Biso   1.000  O
  C135     1.0000 0.50530  0.88860  0.06300  Biso   1.000  C
  C136     1.0000 0.52490  0.86810  0.07900  Biso   1.000  C
  C137     1.0000 0.61350  0.75290  0.19280  Biso   1.000  C
  C138     1.0000 0.57760  0.70950  0.15690  Biso   1.000  C
  C139     1.0000 0.64810  0.79710  0.23110  Biso   1.000  C
  C140     1.0000 0.57560  0.68050  0.12720  Biso   1.000  C
  C141     1.0000 0.14269  0.19494  0.16815  Biso   1.000  C
  C142     1.0000 0.11618  0.22484  0.16113  Biso   1.000  C
  C143     1.0000 0.06300  0.31480  0.11500  Biso   1.000  C
  C144     1.0000 0.08150  0.28400  0.13290  Biso   1.000  C
  C145     1.0000 0.07160  0.26800  0.16220  Biso   1.000  C
  C146     1.0000 0.02710  0.31950  0.11870  Biso   1.000  C
  C147     1.0000 0.01020  0.34220  0.10000  Biso   1.000  C
  C148     1.0000 0.08740  0.24020  0.17450  Biso   1.000  C
  O11      1.0000 0.97590  0.39880  0.06680  Biso   1.000  O
  C149     1.0000 0.00530  0.38860  0.06300  Biso   1.000  C
  C150     1.0000 0.02490  0.36810  0.07900  Biso   1.000  C
  C151     1.0000 0.11350  0.25290  0.19280  Biso   1.000  C
  C152     1.0000 0.07760  0.20950  0.15690  Biso   1.000  C
  C153     1.0000 0.14810  0.29710  0.23110  Biso   1.000  C
  C154     1.0000 0.07560  0.18050  0.12720  Biso   1.000  C
  C155     1.0000 0.14269  0.69494  0.66815  Biso   1.000  C
  C156     1.0000 0.11618  0.72484  0.66113  Biso   1.000  C
  C157     1.0000 0.06300  0.81480  0.61500  Biso   1.000  C
  C158     1.0000 0.08150  0.78400  0.63290  Biso   1.000  C
  C159     1.0000 0.07160  0.76800  0.66220  Biso   1.000  C
  C160     1.0000 0.02710  0.81950  0.61870  Biso   1.000  C
  C161     1.0000 0.01020  0.84220  0.60000  Biso   1.000  C
  C162     1.0000 0.08740  0.74020  0.67450  Biso   1.000  C
  O12      1.0000 0.97590  0.89880  0.56680  Biso   1.000  O
  C163     1.0000 0.00530  0.88860  0.56300  Biso   1.000  C
  C164     1.0000 0.02490  0.86810  0.57900  Biso   1.000  C
  C165     1.0000 0.11350  0.75290  0.69280  Biso   1.000  C
  C166     1.0000 0.07760  0.70950  0.65690  Biso   1.000  C
  C167     1.0000 0.14810  0.79710  0.73110  Biso   1.000  C
  C168     1.0000 0.07560  0.68050  0.62720  Biso   1.000  C
  C169     1.0000 0.35731  0.80506  0.66815  Biso   1.000  C
  C170     1.0000 0.38382  0.77516  0.66113  Biso   1.000  C
  C171     1.0000 0.43700  0.68520  0.61500  Biso   1.000  C
  C172     1.0000 0.41850  0.71600  0.63290  Biso   1.000  C
  C173     1.0000 0.42840  0.73200  0.66220  Biso   1.000  C
  C174     1.0000 0.47290  0.68050  0.61870  Biso   1.000  C
  C175     1.0000 0.48980  0.65780  0.60000  Biso   1.000  C
  C176     1.0000 0.41260  0.75980  0.67450  Biso   1.000  C
  O13      1.0000 0.52410  0.60120  0.56680  Biso   1.000  O
  C177     1.0000 0.49470  0.61140  0.56300  Biso   1.000  C
  C178     1.0000 0.47510  0.63190  0.57900  Biso   1.000  C
  C179     1.0000 0.38650  0.74710  0.69280  Biso   1.000  C
  C180     1.0000 0.42240  0.79050  0.65690  Biso   1.000  C
  C181     1.0000 0.35190  0.70290  0.73110  Biso   1.000  C
  C182     1.0000 0.42440  0.81950  0.62720  Biso   1.000  C
  C183     1.0000 0.35731  0.30506  0.16815  Biso   1.000  C
  C184     1.0000 0.38382  0.27516  0.16113  Biso   1.000  C
  C185     1.0000 0.43700  0.18520  0.11500  Biso   1.000  C
  C186     1.0000 0.41850  0.21600  0.13290  Biso   1.000  C
  C187     1.0000 0.42840  0.23200  0.16220  Biso   1.000  C
  C188     1.0000 0.47290  0.18050  0.11870  Biso   1.000  C
  C189     1.0000 0.48980  0.15780  0.10000  Biso   1.000  C
  C190     1.0000 0.41260  0.25980  0.17450  Biso   1.000  C
  O14      1.0000 0.52410  0.10120  0.06680  Biso   1.000  O
  C191     1.0000 0.49470  0.11140  0.06300  Biso   1.000  C
  C192     1.0000 0.47510  0.13190  0.07900  Biso   1.000  C
  C193     1.0000 0.38650  0.24710  0.19280  Biso   1.000  C
  C194     1.0000 0.42240  0.29050  0.15690  Biso   1.000  C
  C195     1.0000 0.35190  0.20290  0.23110  Biso   1.000  C
  C196     1.0000 0.42440  0.31950  0.12720  Biso   1.000  C
  C197     1.0000 0.85731  0.80506  0.16815  Biso   1.000  C
  C198     1.0000 0.88382  0.77516  0.16113  Biso   1.000  C
  C199     1.0000 0.93700  0.68520  0.11500  Biso   1.000  C
  C200     1.0000 0.91850  0.71600  0.13290  Biso   1.000  C
  C201     1.0000 0.92840  0.73200  0.16220  Biso   1.000  C
  C202     1.0000 0.97290  0.68050  0.11870  Biso   1.000  C
  C203     1.0000 0.98980  0.65780  0.10000  Biso   1.000  C
  C204     1.0000 0.91260  0.75980  0.17450  Biso   1.000  C
  O15      1.0000 0.02410  0.60120  0.06680  Biso   1.000  O
  C205     1.0000 0.99470  0.61140  0.06300  Biso   1.000  C
  C206     1.0000 0.97510  0.63190  0.07900  Biso   1.000  C
  C207     1.0000 0.88650  0.74710  0.19280  Biso   1.000  C
  C208     1.0000 0.92240  0.79050  0.15690  Biso   1.000  C
  C209     1.0000 0.85190  0.70290  0.23110  Biso   1.000  C
  C210     1.0000 0.92440  0.81950  0.12720  Biso   1.000  C
  C211     1.0000 0.85731  0.30506  0.66815  Biso   1.000  C
  C212     1.0000 0.88382  0.27516  0.66113  Biso   1.000  C
  C213     1.0000 0.93700  0.18520  0.61500  Biso   1.000  C
  C214     1.0000 0.91850  0.21600  0.63290  Biso   1.000  C
  C215     1.0000 0.92840  0.23200  0.66220  Biso   1.000  C
  C216     1.0000 0.97290  0.18050  0.61870  Biso   1.000  C
  C217     1.0000 0.98980  0.15780  0.60000  Biso   1.000  C
  C218     1.0000 0.91260  0.25980  0.67450  Biso   1.000  C
  O16      1.0000 0.02410  0.10120  0.56680  Biso   1.000  O
  C219     1.0000 0.99470  0.11140  0.56300  Biso   1.000  C
  C220     1.0000 0.97510  0.13190  0.57900  Biso   1.000  C
  C221     1.0000 0.88650  0.24710  0.69280  Biso   1.000  C
  C222     1.0000 0.92240  0.29050  0.65690  Biso   1.000  C
  C223     1.0000 0.85190  0.20290  0.73110  Biso   1.000  C
  C224     1.0000 0.92440  0.31950  0.62720  Biso   1.000  C
  C225     1.0000 0.33185  0.35731  0.19494  Biso   1.000  C
  C226     1.0000 0.33887  0.38382  0.22484  Biso   1.000  C
  C227     1.0000 0.38500  0.43700  0.31480  Biso   1.000  C
  C228     1.0000 0.36710  0.41850  0.28400  Biso   1.000  C
  C229     1.0000 0.33780  0.42840  0.26800  Biso   1.000  C
  C230     1.0000 0.38130  0.47290  0.31950  Biso   1.000  C
  C231     1.0000 0.40000  0.48980  0.34220  Biso   1.000  C
  C232     1.0000 0.32550  0.41260  0.24020  Biso   1.000  C
  O17      1.0000 0.43320  0.52410  0.39880  Biso   1.000  O
  C233     1.0000 0.43700  0.49470  0.38860  Biso   1.000  C
  C234     1.0000 0.42100  0.47510  0.36810  Biso   1.000  C
  C235     1.0000 0.30720  0.38650  0.25290  Biso   1.000  C
  C236     1.0000 0.34310  0.42240  0.20950  Biso   1.000  C
  C237     1.0000 0.26890  0.35190  0.29710  Biso   1.000  C
  C238     1.0000 0.37280  0.42440  0.18050  Biso   1.000  C
  C239     1.0000 0.33185  0.85731  0.69494  Biso   1.000  C
  C240     1.0000 0.33887  0.88382  0.72484  Biso   1.000  C
  C241     1.0000 0.38500  0.93700  0.81480  Biso   1.000  C
  C242     1.0000 0.36710  0.91850  0.78400  Biso   1.000  C
  C243     1.0000 0.33780  0.92840  0.76800  Biso   1.000  C
  C244     1.0000 0.38130  0.97290  0.81950  Biso   1.000  C
  C245     1.0000 0.40000  0.98980  0.84220  Biso   1.000  C
  C246     1.0000 0.32550  0.91260  0.74020  Biso   1.000  C
  O18      1.0000 0.43320  0.02410  0.89880  Biso   1.000  O
  C247     1.0000 0.43700  0.99470  0.88860  Biso   1.000  C
  C248     1.0000 0.42100  0.97510  0.86810  Biso   1.000  C
  C249     1.0000 0.30720  0.88650  0.75290  Biso   1.000  C
  C250     1.0000 0.34310  0.92240  0.70950  Biso   1.000  C
  C251     1.0000 0.26890  0.85190  0.79710  Biso   1.000  C
  C252     1.0000 0.37280  0.92440  0.68050  Biso   1.000  C
  C253     1.0000 0.83185  0.35731  0.69494  Biso   1.000  C
  C254     1.0000 0.83887  0.38382  0.72484  Biso   1.000  C
  C255     1.0000 0.88500  0.43700  0.81480  Biso   1.000  C
  C256     1.0000 0.86710  0.41850  0.78400  Biso   1.000  C
  C257     1.0000 0.83780  0.42840  0.76800  Biso   1.000  C
  C258     1.0000 0.88130  0.47290  0.81950  Biso   1.000  C
  C259     1.0000 0.90000  0.48980  0.84220  Biso   1.000  C
  C260     1.0000 0.82550  0.41260  0.74020  Biso   1.000  C
  O19      1.0000 0.93320  0.52410  0.89880  Biso   1.000  O
  C261     1.0000 0.93700  0.49470  0.88860  Biso   1.000  C
  C262     1.0000 0.92100  0.47510  0.86810  Biso   1.000  C
  C263     1.0000 0.80720  0.38650  0.75290  Biso   1.000  C
  C264     1.0000 0.84310  0.42240  0.70950  Biso   1.000  C
  C265     1.0000 0.76890  0.35190  0.79710  Biso   1.000  C
  C266     1.0000 0.87280  0.42440  0.68050  Biso   1.000  C
  C267     1.0000 0.83185  0.85731  0.19494  Biso   1.000  C
  C268     1.0000 0.83887  0.88382  0.22484  Biso   1.000  C
  C269     1.0000 0.88500  0.93700  0.31480  Biso   1.000  C
  C270     1.0000 0.86710  0.91850  0.28400  Biso   1.000  C
  C271     1.0000 0.83780  0.92840  0.26800  Biso   1.000  C
  C272     1.0000 0.88130  0.97290  0.31950  Biso   1.000  C
  C273     1.0000 0.90000  0.98980  0.34220  Biso   1.000  C
  C274     1.0000 0.82550  0.91260  0.24020  Biso   1.000  C
  O20      1.0000 0.93320  0.02410  0.39880  Biso   1.000  O
  C275     1.0000 0.93700  0.99470  0.38860  Biso   1.000  C
  C276     1.0000 0.92100  0.97510  0.36810  Biso   1.000  C
  C277     1.0000 0.80720  0.88650  0.25290  Biso   1.000  C
  C278     1.0000 0.84310  0.92240  0.20950  Biso   1.000  C
  C279     1.0000 0.76890  0.85190  0.29710  Biso   1.000  C
  C280     1.0000 0.87280  0.92440  0.18050  Biso   1.000  C
  C281     1.0000 0.33185  0.64269  0.80506  Biso   1.000  C
  C282     1.0000 0.33887  0.61618  0.77516  Biso   1.000  C
  C283     1.0000 0.38500  0.56300  0.68520  Biso   1.000  C
  C284     1.0000 0.36710  0.58150  0.71600  Biso   1.000  C
  C285     1.0000 0.33780  0.57160  0.73200  Biso   1.000  C
  C286     1.0000 0.38130  0.52710  0.68050  Biso   1.000  C
  C287     1.0000 0.40000  0.51020  0.65780  Biso   1.000  C
  C288     1.0000 0.32550  0.58740  0.75980  Biso   1.000  C
  O21      1.0000 0.43320  0.47590  0.60120  Biso   1.000  O
  C289     1.0000 0.43700  0.50530  0.61140  Biso   1.000  C
  C290     1.0000 0.42100  0.52490  0.63190  Biso   1.000  C
  C291     1.0000 0.30720  0.61350  0.74710  Biso   1.000  C
  C292     1.0000 0.34310  0.57760  0.79050  Biso   1.000  C
  C293     1.0000 0.26890  0.64810  0.70290  Biso   1.000  C
  C294     1.0000 0.37280  0.57560  0.81950  Biso   1.000  C
  C295     1.0000 0.33185  0.14269  0.30506  Biso   1.000  C
  C296     1.0000 0.33887  0.11618  0.27516  Biso   1.000  C
  C297     1.0000 0.38500  0.06300  0.18520  Biso   1.000  C
  C298     1.0000 0.36710  0.08150  0.21600  Biso   1.000  C
  C299     1.0000 0.33780  0.07160  0.23200  Biso   1.000  C
  C300     1.0000 0.38130  0.02710  0.18050  Biso   1.000  C
  C301     1.0000 0.40000  0.01020  0.15780  Biso   1.000  C
  C302     1.0000 0.32550  0.08740  0.25980  Biso   1.000  C
  O22      1.0000 0.43320  0.97590  0.10120  Biso   1.000  O
  C303     1.0000 0.43700  0.00530  0.11140  Biso   1.000  C
  C304     1.0000 0.42100  0.02490  0.13190  Biso   1.000  C
  C305     1.0000 0.30720  0.11350  0.24710  Biso   1.000  C
  C306     1.0000 0.34310  0.07760  0.29050  Biso   1.000  C
  C307     1.0000 0.26890  0.14810  0.20290  Biso   1.000  C
  C308     1.0000 0.37280  0.07560  0.31950  Biso   1.000  C
  C309     1.0000 0.83185  0.64269  0.30506  Biso   1.000  C
  C310     1.0000 0.83887  0.61618  0.27516  Biso   1.000  C
  C311     1.0000 0.88500  0.56300  0.18520  Biso   1.000  C
  C312     1.0000 0.86710  0.58150  0.21600  Biso   1.000  C
  C313     1.0000 0.83780  0.57160  0.23200  Biso   1.000  C
  C314     1.0000 0.88130  0.52710  0.18050  Biso   1.000  C
  C315     1.0000 0.90000  0.51020  0.15780  Biso   1.000  C
  C316     1.0000 0.82550  0.58740  0.25980  Biso   1.000  C
  O23      1.0000 0.93320  0.47590  0.10120  Biso   1.000  O
  C317     1.0000 0.93700  0.50530  0.11140  Biso   1.000  C
  C318     1.0000 0.92100  0.52490  0.13190  Biso   1.000  C
  C319     1.0000 0.80720  0.61350  0.24710  Biso   1.000  C
  C320     1.0000 0.84310  0.57760  0.29050  Biso   1.000  C
  C321     1.0000 0.76890  0.64810  0.20290  Biso   1.000  C
  C322     1.0000 0.87280  0.57560  0.31950  Biso   1.000  C
  C323     1.0000 0.83185  0.14269  0.80506  Biso   1.000  C
  C324     1.0000 0.83887  0.11618  0.77516  Biso   1.000  C
  C325     1.0000 0.88500  0.06300  0.68520  Biso   1.000  C
  C326     1.0000 0.86710  0.08150  0.71600  Biso   1.000  C
  C327     1.0000 0.83780  0.07160  0.73200  Biso   1.000  C
  C328     1.0000 0.88130  0.02710  0.68050  Biso   1.000  C
  C329     1.0000 0.90000  0.01020  0.65780  Biso   1.000  C
  C330     1.0000 0.82550  0.08740  0.75980  Biso   1.000  C
  O24      1.0000 0.93320  0.97590  0.60120  Biso   1.000  O
  C331     1.0000 0.93700  0.00530  0.61140  Biso   1.000  C
  C332     1.0000 0.92100  0.02490  0.63190  Biso   1.000  C
  C333     1.0000 0.80720  0.11350  0.74710  Biso   1.000  C
  C334     1.0000 0.84310  0.07760  0.79050  Biso   1.000  C
  C335     1.0000 0.76890  0.14810  0.70290  Biso   1.000  C
  C336     1.0000 0.87280  0.07560  0.81950  Biso   1.000  C
  C337     1.0000 0.66815  0.64269  0.19494  Biso   1.000  C
  C338     1.0000 0.66113  0.61618  0.22484  Biso   1.000  C
  C339     1.0000 0.61500  0.56300  0.31480  Biso   1.000  C
  C340     1.0000 0.63290  0.58150  0.28400  Biso   1.000  C
  C341     1.0000 0.66220  0.57160  0.26800  Biso   1.000  C
  C342     1.0000 0.61870  0.52710  0.31950  Biso   1.000  C
  C343     1.0000 0.60000  0.51020  0.34220  Biso   1.000  C
  C344     1.0000 0.67450  0.58740  0.24020  Biso   1.000  C
  O25      1.0000 0.56680  0.47590  0.39880  Biso   1.000  O
  C345     1.0000 0.56300  0.50530  0.38860  Biso   1.000  C
  C346     1.0000 0.57900  0.52490  0.36810  Biso   1.000  C
  C347     1.0000 0.69280  0.61350  0.25290  Biso   1.000  C
  C348     1.0000 0.65690  0.57760  0.20950  Biso   1.000  C
  C349     1.0000 0.73110  0.64810  0.29710  Biso   1.000  C
  C350     1.0000 0.62720  0.57560  0.18050  Biso   1.000  C
  C351     1.0000 0.66815  0.14269  0.69494  Biso   1.000  C
  C352     1.0000 0.66113  0.11618  0.72484  Biso   1.000  C
  C353     1.0000 0.61500  0.06300  0.81480  Biso   1.000  C
  C354     1.0000 0.63290  0.08150  0.78400  Biso   1.000  C
  C355     1.0000 0.66220  0.07160  0.76800  Biso   1.000  C
  C356     1.0000 0.61870  0.02710  0.81950  Biso   1.000  C
  C357     1.0000 0.60000  0.01020  0.84220  Biso   1.000  C
  C358     1.0000 0.67450  0.08740  0.74020  Biso   1.000  C
  O26      1.0000 0.56680  0.97590  0.89880  Biso   1.000  O
  C359     1.0000 0.56300  0.00530  0.88860  Biso   1.000  C
  C360     1.0000 0.57900  0.02490  0.86810  Biso   1.000  C
  C361     1.0000 0.69280  0.11350  0.75290  Biso   1.000  C
  C362     1.0000 0.65690  0.07760  0.70950  Biso   1.000  C
  C363     1.0000 0.73110  0.14810  0.79710  Biso   1.000  C
  C364     1.0000 0.62720  0.07560  0.68050  Biso   1.000  C
  C365     1.0000 0.16815  0.64269  0.69494  Biso   1.000  C
  C366     1.0000 0.16113  0.61618  0.72484  Biso   1.000  C
  C367     1.0000 0.11500  0.56300  0.81480  Biso   1.000  C
  C368     1.0000 0.13290  0.58150  0.78400  Biso   1.000  C
  C369     1.0000 0.16220  0.57160  0.76800  Biso   1.000  C
  C370     1.0000 0.11870  0.52710  0.81950  Biso   1.000  C
  C371     1.0000 0.10000  0.51020  0.84220  Biso   1.000  C
  C372     1.0000 0.17450  0.58740  0.74020  Biso   1.000  C
  O27      1.0000 0.06680  0.47590  0.89880  Biso   1.000  O
  C373     1.0000 0.06300  0.50530  0.88860  Biso   1.000  C
  C374     1.0000 0.07900  0.52490  0.86810  Biso   1.000  C
  C375     1.0000 0.19280  0.61350  0.75290  Biso   1.000  C
  C376     1.0000 0.15690  0.57760  0.70950  Biso   1.000  C
  C377     1.0000 0.23110  0.64810  0.79710  Biso   1.000  C
  C378     1.0000 0.12720  0.57560  0.68050  Biso   1.000  C
  C379     1.0000 0.16815  0.14269  0.19494  Biso   1.000  C
  C380     1.0000 0.16113  0.11618  0.22484  Biso   1.000  C
  C381     1.0000 0.11500  0.06300  0.31480  Biso   1.000  C
  C382     1.0000 0.13290  0.08150  0.28400  Biso   1.000  C
  C383     1.0000 0.16220  0.07160  0.26800  Biso   1.000  C
  C384     1.0000 0.11870  0.02710  0.31950  Biso   1.000  C
  C385     1.0000 0.10000  0.01020  0.34220  Biso   1.000  C
  C386     1.0000 0.17450  0.08740  0.24020  Biso   1.000  C
  O28      1.0000 0.06680  0.97590  0.39880  Biso   1.000  O
  C387     1.0000 0.06300  0.00530  0.38860  Biso   1.000  C
  C388     1.0000 0.07900  0.02490  0.36810  Biso   1.000  C
  C389     1.0000 0.19280  0.11350  0.25290  Biso   1.000  C
  C390     1.0000 0.15690  0.07760  0.20950  Biso   1.000  C
  C391     1.0000 0.23110  0.14810  0.29710  Biso   1.000  C
  C392     1.0000 0.12720  0.07560  0.18050  Biso   1.000  C
  C393     1.0000 0.66815  0.35731  0.80506  Biso   1.000  C
  C394     1.0000 0.66113  0.38382  0.77516  Biso   1.000  C
  C395     1.0000 0.61500  0.43700  0.68520  Biso   1.000  C
  C396     1.0000 0.63290  0.41850  0.71600  Biso   1.000  C
  C397     1.0000 0.66220  0.42840  0.73200  Biso   1.000  C
  C398     1.0000 0.61870  0.47290  0.68050  Biso   1.000  C
  C399     1.0000 0.60000  0.48980  0.65780  Biso   1.000  C
  C400     1.0000 0.67450  0.41260  0.75980  Biso   1.000  C
  O29      1.0000 0.56680  0.52410  0.60120  Biso   1.000  O
  C401     1.0000 0.56300  0.49470  0.61140  Biso   1.000  C
  C402     1.0000 0.57900  0.47510  0.63190  Biso   1.000  C
  C403     1.0000 0.69280  0.38650  0.74710  Biso   1.000  C
  C404     1.0000 0.65690  0.42240  0.79050  Biso   1.000  C
  C405     1.0000 0.73110  0.35190  0.70290  Biso   1.000  C
  C406     1.0000 0.62720  0.42440  0.81950  Biso   1.000  C
  C407     1.0000 0.66815  0.85731  0.30506  Biso   1.000  C
  C408     1.0000 0.66113  0.88382  0.27516  Biso   1.000  C
  C409     1.0000 0.61500  0.93700  0.18520  Biso   1.000  C
  C410     1.0000 0.63290  0.91850  0.21600  Biso   1.000  C
  C411     1.0000 0.66220  0.92840  0.23200  Biso   1.000  C
  C412     1.0000 0.61870  0.97290  0.18050  Biso   1.000  C
  C413     1.0000 0.60000  0.98980  0.15780  Biso   1.000  C
  C414     1.0000 0.67450  0.91260  0.25980  Biso   1.000  C
  O30      1.0000 0.56680  0.02410  0.10120  Biso   1.000  O
  C415     1.0000 0.56300  0.99470  0.11140  Biso   1.000  C
  C416     1.0000 0.57900  0.97510  0.13190  Biso   1.000  C
  C417     1.0000 0.69280  0.88650  0.24710  Biso   1.000  C
  C418     1.0000 0.65690  0.92240  0.29050  Biso   1.000  C
  C419     1.0000 0.73110  0.85190  0.20290  Biso   1.000  C
  C420     1.0000 0.62720  0.92440  0.31950  Biso   1.000  C
  C421     1.0000 0.16815  0.35731  0.30506  Biso   1.000  C
  C422     1.0000 0.16113  0.38382  0.27516  Biso   1.000  C
  C423     1.0000 0.11500  0.43700  0.18520  Biso   1.000  C
  C424     1.0000 0.13290  0.41850  0.21600  Biso   1.000  C
  C425     1.0000 0.16220  0.42840  0.23200  Biso   1.000  C
  C426     1.0000 0.11870  0.47290  0.18050  Biso   1.000  C
  C427     1.0000 0.10000  0.48980  0.15780  Biso   1.000  C
  C428     1.0000 0.17450  0.41260  0.25980  Biso   1.000  C
  O31      1.0000 0.06680  0.52410  0.10120  Biso   1.000  O
  C429     1.0000 0.06300  0.49470  0.11140  Biso   1.000  C
  C430     1.0000 0.07900  0.47510  0.13190  Biso   1.000  C
  C431     1.0000 0.19280  0.38650  0.24710  Biso   1.000  C
  C432     1.0000 0.15690  0.42240  0.29050  Biso   1.000  C
  C433     1.0000 0.23110  0.35190  0.20290  Biso   1.000  C
  C434     1.0000 0.12720  0.42440  0.31950  Biso   1.000  C
  C435     1.0000 0.16815  0.85731  0.80506  Biso   1.000  C
  C436     1.0000 0.16113  0.88382  0.77516  Biso   1.000  C
  C437     1.0000 0.11500  0.93700  0.68520  Biso   1.000  C
  C438     1.0000 0.13290  0.91850  0.71600  Biso   1.000  C
  C439     1.0000 0.16220  0.92840  0.73200  Biso   1.000  C
  C440     1.0000 0.11870  0.97290  0.68050  Biso   1.000  C
  C441     1.0000 0.10000  0.98980  0.65780  Biso   1.000  C
  C442     1.0000 0.17450  0.91260  0.75980  Biso   1.000  C
  O32      1.0000 0.06680  0.02410  0.60120  Biso   1.000  O
  C443     1.0000 0.06300  0.99470  0.61140  Biso   1.000  C
  C444     1.0000 0.07900  0.97510  0.63190  Biso   1.000  C
  C445     1.0000 0.19280  0.88650  0.74710  Biso   1.000  C
  C446     1.0000 0.15690  0.92240  0.79050  Biso   1.000  C
  C447     1.0000 0.23110  0.85190  0.70290  Biso   1.000  C
  C448     1.0000 0.12720  0.92440  0.81950  Biso   1.000  C
  C449     1.0000 0.19494  0.33185  0.35731  Biso   1.000  C
  C450     1.0000 0.22484  0.33887  0.38382  Biso   1.000  C
  C451     1.0000 0.31480  0.38500  0.43700  Biso   1.000  C
  C452     1.0000 0.28400  0.36710  0.41850  Biso   1.000  C
  C453     1.0000 0.26800  0.33780  0.42840  Biso   1.000  C
  C454     1.0000 0.31950  0.38130  0.47290  Biso   1.000  C
  C455     1.0000 0.34220  0.40000  0.48980  Biso   1.000  C
  C456     1.0000 0.24020  0.32550  0.41260  Biso   1.000  C
  O33      1.0000 0.39880  0.43320  0.52410  Biso   1.000  O
  C457     1.0000 0.38860  0.43700  0.49470  Biso   1.000  C
  C458     1.0000 0.36810  0.42100  0.47510  Biso   1.000  C
  C459     1.0000 0.25290  0.30720  0.38650  Biso   1.000  C
  C460     1.0000 0.20950  0.34310  0.42240  Biso   1.000  C
  C461     1.0000 0.29710  0.26890  0.35190  Biso   1.000  C
  C462     1.0000 0.18050  0.37280  0.42440  Biso   1.000  C
  C463     1.0000 0.19494  0.83185  0.85731  Biso   1.000  C
  C464     1.0000 0.22484  0.83887  0.88382  Biso   1.000  C
  C465     1.0000 0.31480  0.88500  0.93700  Biso   1.000  C
  C466     1.0000 0.28400  0.86710  0.91850  Biso   1.000  C
  C467     1.0000 0.26800  0.83780  0.92840  Biso   1.000  C
  C468     1.0000 0.31950  0.88130  0.97290  Biso   1.000  C
  C469     1.0000 0.34220  0.90000  0.98980  Biso   1.000  C
  C470     1.0000 0.24020  0.82550  0.91260  Biso   1.000  C
  O34      1.0000 0.39880  0.93320  0.02410  Biso   1.000  O
  C471     1.0000 0.38860  0.93700  0.99470  Biso   1.000  C
  C472     1.0000 0.36810  0.92100  0.97510  Biso   1.000  C
  C473     1.0000 0.25290  0.80720  0.88650  Biso   1.000  C
  C474     1.0000 0.20950  0.84310  0.92240  Biso   1.000  C
  C475     1.0000 0.29710  0.76890  0.85190  Biso   1.000  C
  C476     1.0000 0.18050  0.87280  0.92440  Biso   1.000  C
  C477     1.0000 0.69494  0.33185  0.85731  Biso   1.000  C
  C478     1.0000 0.72484  0.33887  0.88382  Biso   1.000  C
  C479     1.0000 0.81480  0.38500  0.93700  Biso   1.000  C
  C480     1.0000 0.78400  0.36710  0.91850  Biso   1.000  C
  C481     1.0000 0.76800  0.33780  0.92840  Biso   1.000  C
  C482     1.0000 0.81950  0.38130  0.97290  Biso   1.000  C
  C483     1.0000 0.84220  0.40000  0.98980  Biso   1.000  C
  C484     1.0000 0.74020  0.32550  0.91260  Biso   1.000  C
  O35      1.0000 0.89880  0.43320  0.02410  Biso   1.000  O
  C485     1.0000 0.88860  0.43700  0.99470  Biso   1.000  C
  C486     1.0000 0.86810  0.42100  0.97510  Biso   1.000  C
  C487     1.0000 0.75290  0.30720  0.88650  Biso   1.000  C
  C488     1.0000 0.70950  0.34310  0.92240  Biso   1.000  C
  C489     1.0000 0.79710  0.26890  0.85190  Biso   1.000  C
  C490     1.0000 0.68050  0.37280  0.92440  Biso   1.000  C
  C491     1.0000 0.69494  0.83185  0.35731  Biso   1.000  C
  C492     1.0000 0.72484  0.83887  0.38382  Biso   1.000  C
  C493     1.0000 0.81480  0.88500  0.43700  Biso   1.000  C
  C494     1.0000 0.78400  0.86710  0.41850  Biso   1.000  C
  C495     1.0000 0.76800  0.83780  0.42840  Biso   1.000  C
  C496     1.0000 0.81950  0.88130  0.47290  Biso   1.000  C
  C497     1.0000 0.84220  0.90000  0.48980  Biso   1.000  C
  C498     1.0000 0.74020  0.82550  0.41260  Biso   1.000  C
  O36      1.0000 0.89880  0.93320  0.52410  Biso   1.000  O
  C499     1.0000 0.88860  0.93700  0.49470  Biso   1.000  C
  C500     1.0000 0.86810  0.92100  0.47510  Biso   1.000  C
  C501     1.0000 0.75290  0.80720  0.38650  Biso   1.000  C
  C502     1.0000 0.70950  0.84310  0.42240  Biso   1.000  C
  C503     1.0000 0.79710  0.76890  0.35190  Biso   1.000  C
  C504     1.0000 0.68050  0.87280  0.42440  Biso   1.000  C
  C505     1.0000 0.80506  0.33185  0.64269  Biso   1.000  C
  C506     1.0000 0.77516  0.33887  0.61618  Biso   1.000  C
  C507     1.0000 0.68520  0.38500  0.56300  Biso   1.000  C
  C508     1.0000 0.71600  0.36710  0.58150  Biso   1.000  C
  C509     1.0000 0.73200  0.33780  0.57160  Biso   1.000  C
  C510     1.0000 0.68050  0.38130  0.52710  Biso   1.000  C
  C511     1.0000 0.65780  0.40000  0.51020  Biso   1.000  C
  C512     1.0000 0.75980  0.32550  0.58740  Biso   1.000  C
  O37      1.0000 0.60120  0.43320  0.47590  Biso   1.000  O
  C513     1.0000 0.61140  0.43700  0.50530  Biso   1.000  C
  C514     1.0000 0.63190  0.42100  0.52490  Biso   1.000  C
  C515     1.0000 0.74710  0.30720  0.61350  Biso   1.000  C
  C516     1.0000 0.79050  0.34310  0.57760  Biso   1.000  C
  C517     1.0000 0.70290  0.26890  0.64810  Biso   1.000  C
  C518     1.0000 0.81950  0.37280  0.57560  Biso   1.000  C
  C519     1.0000 0.80506  0.83185  0.14269  Biso   1.000  C
  C520     1.0000 0.77516  0.83887  0.11618  Biso   1.000  C
  C521     1.0000 0.68520  0.88500  0.06300  Biso   1.000  C
  C522     1.0000 0.71600  0.86710  0.08150  Biso   1.000  C
  C523     1.0000 0.73200  0.83780  0.07160  Biso   1.000  C
  C524     1.0000 0.68050  0.88130  0.02710  Biso   1.000  C
  C525     1.0000 0.65780  0.90000  0.01020  Biso   1.000  C
  C526     1.0000 0.75980  0.82550  0.08740  Biso   1.000  C
  O38      1.0000 0.60120  0.93320  0.97590  Biso   1.000  O
  C527     1.0000 0.61140  0.93700  0.00530  Biso   1.000  C
  C528     1.0000 0.63190  0.92100  0.02490  Biso   1.000  C
  C529     1.0000 0.74710  0.80720  0.11350  Biso   1.000  C
  C530     1.0000 0.79050  0.84310  0.07760  Biso   1.000  C
  C531     1.0000 0.70290  0.76890  0.14810  Biso   1.000  C
  C532     1.0000 0.81950  0.87280  0.07560  Biso   1.000  C
  C533     1.0000 0.30506  0.33185  0.14269  Biso   1.000  C
  C534     1.0000 0.27516  0.33887  0.11618  Biso   1.000  C
  C535     1.0000 0.18520  0.38500  0.06300  Biso   1.000  C
  C536     1.0000 0.21600  0.36710  0.08150  Biso   1.000  C
  C537     1.0000 0.23200  0.33780  0.07160  Biso   1.000  C
  C538     1.0000 0.18050  0.38130  0.02710  Biso   1.000  C
  C539     1.0000 0.15780  0.40000  0.01020  Biso   1.000  C
  C540     1.0000 0.25980  0.32550  0.08740  Biso   1.000  C
  O39      1.0000 0.10120  0.43320  0.97590  Biso   1.000  O
  C541     1.0000 0.11140  0.43700  0.00530  Biso   1.000  C
  C542     1.0000 0.13190  0.42100  0.02490  Biso   1.000  C
  C543     1.0000 0.24710  0.30720  0.11350  Biso   1.000  C
  C544     1.0000 0.29050  0.34310  0.07760  Biso   1.000  C
  C545     1.0000 0.20290  0.26890  0.14810  Biso   1.000  C
  C546     1.0000 0.31950  0.37280  0.07560  Biso   1.000  C
  C547     1.0000 0.30506  0.83185  0.64269  Biso   1.000  C
  C548     1.0000 0.27516  0.83887  0.61618  Biso   1.000  C
  C549     1.0000 0.18520  0.88500  0.56300  Biso   1.000  C
  C550     1.0000 0.21600  0.86710  0.58150  Biso   1.000  C
  C551     1.0000 0.23200  0.83780  0.57160  Biso   1.000  C
  C552     1.0000 0.18050  0.88130  0.52710  Biso   1.000  C
  C553     1.0000 0.15780  0.90000  0.51020  Biso   1.000  C
  C554     1.0000 0.25980  0.82550  0.58740  Biso   1.000  C
  O40      1.0000 0.10120  0.93320  0.47590  Biso   1.000  O
  C555     1.0000 0.11140  0.93700  0.50530  Biso   1.000  C
  C556     1.0000 0.13190  0.92100  0.52490  Biso   1.000  C
  C557     1.0000 0.24710  0.80720  0.61350  Biso   1.000  C
  C558     1.0000 0.29050  0.84310  0.57760  Biso   1.000  C
  C559     1.0000 0.20290  0.76890  0.64810  Biso   1.000  C
  C560     1.0000 0.31950  0.87280  0.57560  Biso   1.000  C
  C561     1.0000 0.19494  0.66815  0.64269  Biso   1.000  C
  C562     1.0000 0.22484  0.66113  0.61618  Biso   1.000  C
  C563     1.0000 0.31480  0.61500  0.56300  Biso   1.000  C
  C564     1.0000 0.28400  0.63290  0.58150  Biso   1.000  C
  C565     1.0000 0.26800  0.66220  0.57160  Biso   1.000  C
  C566     1.0000 0.31950  0.61870  0.52710  Biso   1.000  C
  C567     1.0000 0.34220  0.60000  0.51020  Biso   1.000  C
  C568     1.0000 0.24020  0.67450  0.58740  Biso   1.000  C
  O41      1.0000 0.39880  0.56680  0.47590  Biso   1.000  O
  C569     1.0000 0.38860  0.56300  0.50530  Biso   1.000  C
  C570     1.0000 0.36810  0.57900  0.52490  Biso   1.000  C
  C571     1.0000 0.25290  0.69280  0.61350  Biso   1.000  C
  C572     1.0000 0.20950  0.65690  0.57760  Biso   1.000  C
  C573     1.0000 0.29710  0.73110  0.64810  Biso   1.000  C
  C574     1.0000 0.18050  0.62720  0.57560  Biso   1.000  C
  C575     1.0000 0.19494  0.16815  0.14269  Biso   1.000  C
  C576     1.0000 0.22484  0.16113  0.11618  Biso   1.000  C
  C577     1.0000 0.31480  0.11500  0.06300  Biso   1.000  C
  C578     1.0000 0.28400  0.13290  0.08150  Biso   1.000  C
  C579     1.0000 0.26800  0.16220  0.07160  Biso   1.000  C
  C580     1.0000 0.31950  0.11870  0.02710  Biso   1.000  C
  C581     1.0000 0.34220  0.10000  0.01020  Biso   1.000  C
  C582     1.0000 0.24020  0.17450  0.08740  Biso   1.000  C
  O42      1.0000 0.39880  0.06680  0.97590  Biso   1.000  O
  C583     1.0000 0.38860  0.06300  0.00530  Biso   1.000  C
  C584     1.0000 0.36810  0.07900  0.02490  Biso   1.000  C
  C585     1.0000 0.25290  0.19280  0.11350  Biso   1.000  C
  C586     1.0000 0.20950  0.15690  0.07760  Biso   1.000  C
  C587     1.0000 0.29710  0.23110  0.14810  Biso   1.000  C
  C588     1.0000 0.18050  0.12720  0.07560  Biso   1.000  C
  C589     1.0000 0.69494  0.66815  0.14269  Biso   1.000  C
  C590     1.0000 0.72484  0.66113  0.11618  Biso   1.000  C
  C591     1.0000 0.81480  0.61500  0.06300  Biso   1.000  C
  C592     1.0000 0.78400  0.63290  0.08150  Biso   1.000  C
  C593     1.0000 0.76800  0.66220  0.07160  Biso   1.000  C
  C594     1.0000 0.81950  0.61870  0.02710  Biso   1.000  C
  C595     1.0000 0.84220  0.60000  0.01020  Biso   1.000  C
  C596     1.0000 0.74020  0.67450  0.08740  Biso   1.000  C
  O43      1.0000 0.89880  0.56680  0.97590  Biso   1.000  O
  C597     1.0000 0.88860  0.56300  0.00530  Biso   1.000  C
  C598     1.0000 0.86810  0.57900  0.02490  Biso   1.000  C
  C599     1.0000 0.75290  0.69280  0.11350  Biso   1.000  C
  C600     1.0000 0.70950  0.65690  0.07760  Biso   1.000  C
  C601     1.0000 0.79710  0.73110  0.14810  Biso   1.000  C
  C602     1.0000 0.68050  0.62720  0.07560  Biso   1.000  C
  C603     1.0000 0.69494  0.16815  0.64269  Biso   1.000  C
  C604     1.0000 0.72484  0.16113  0.61618  Biso   1.000  C
  C605     1.0000 0.81480  0.11500  0.56300  Biso   1.000  C
  C606     1.0000 0.78400  0.13290  0.58150  Biso   1.000  C
  C607     1.0000 0.76800  0.16220  0.57160  Biso   1.000  C
  C608     1.0000 0.81950  0.11870  0.52710  Biso   1.000  C
  C609     1.0000 0.84220  0.10000  0.51020  Biso   1.000  C
  C610     1.0000 0.74020  0.17450  0.58740  Biso   1.000  C
  O44      1.0000 0.89880  0.06680  0.47590  Biso   1.000  O
  C611     1.0000 0.88860  0.06300  0.50530  Biso   1.000  C
  C612     1.0000 0.86810  0.07900  0.52490  Biso   1.000  C
  C613     1.0000 0.75290  0.19280  0.61350  Biso   1.000  C
  C614     1.0000 0.70950  0.15690  0.57760  Biso   1.000  C
  C615     1.0000 0.79710  0.23110  0.64810  Biso   1.000  C
  C616     1.0000 0.68050  0.12720  0.57560  Biso   1.000  C
  C617     1.0000 0.80506  0.66815  0.35731  Biso   1.000  C
  C618     1.0000 0.77516  0.66113  0.38382  Biso   1.000  C
  C619     1.0000 0.68520  0.61500  0.43700  Biso   1.000  C
  C620     1.0000 0.71600  0.63290  0.41850  Biso   1.000  C
  C621     1.0000 0.73200  0.66220  0.42840  Biso   1.000  C
  C622     1.0000 0.68050  0.61870  0.47290  Biso   1.000  C
  C623     1.0000 0.65780  0.60000  0.48980  Biso   1.000  C
  C624     1.0000 0.75980  0.67450  0.41260  Biso   1.000  C
  O45      1.0000 0.60120  0.56680  0.52410  Biso   1.000  O
  C625     1.0000 0.61140  0.56300  0.49470  Biso   1.000  C
  C626     1.0000 0.63190  0.57900  0.47510  Biso   1.000  C
  C627     1.0000 0.74710  0.69280  0.38650  Biso   1.000  C
  C628     1.0000 0.79050  0.65690  0.42240  Biso   1.000  C
  C629     1.0000 0.70290  0.73110  0.35190  Biso   1.000  C
  C630     1.0000 0.81950  0.62720  0.42440  Biso   1.000  C
  C631     1.0000 0.80506  0.16815  0.85731  Biso   1.000  C
  C632     1.0000 0.77516  0.16113  0.88382  Biso   1.000  C
  C633     1.0000 0.68520  0.11500  0.93700  Biso   1.000  C
  C634     1.0000 0.71600  0.13290  0.91850  Biso   1.000  C
  C635     1.0000 0.73200  0.16220  0.92840  Biso   1.000  C
  C636     1.0000 0.68050  0.11870  0.97290  Biso   1.000  C
  C637     1.0000 0.65780  0.10000  0.98980  Biso   1.000  C
  C638     1.0000 0.75980  0.17450  0.91260  Biso   1.000  C
  O46      1.0000 0.60120  0.06680  0.02410  Biso   1.000  O
  C639     1.0000 0.61140  0.06300  0.99470  Biso   1.000  C
  C640     1.0000 0.63190  0.07900  0.97510  Biso   1.000  C
  C641     1.0000 0.74710  0.19280  0.88650  Biso   1.000  C
  C642     1.0000 0.79050  0.15690  0.92240  Biso   1.000  C
  C643     1.0000 0.70290  0.23110  0.85190  Biso   1.000  C
  C644     1.0000 0.81950  0.12720  0.92440  Biso   1.000  C
  C645     1.0000 0.30506  0.66815  0.85731  Biso   1.000  C
  C646     1.0000 0.27516  0.66113  0.88382  Biso   1.000  C
  C647     1.0000 0.18520  0.61500  0.93700  Biso   1.000  C
  C648     1.0000 0.21600  0.63290  0.91850  Biso   1.000  C
  C649     1.0000 0.23200  0.66220  0.92840  Biso   1.000  C
  C650     1.0000 0.18050  0.61870  0.97290  Biso   1.000  C
  C651     1.0000 0.15780  0.60000  0.98980  Biso   1.000  C
  C652     1.0000 0.25980  0.67450  0.91260  Biso   1.000  C
  O47      1.0000 0.10120  0.56680  0.02410  Biso   1.000  O
  C653     1.0000 0.11140  0.56300  0.99470  Biso   1.000  C
  C654     1.0000 0.13190  0.57900  0.97510  Biso   1.000  C
  C655     1.0000 0.24710  0.69280  0.88650  Biso   1.000  C
  C656     1.0000 0.29050  0.65690  0.92240  Biso   1.000  C
  C657     1.0000 0.20290  0.73110  0.85190  Biso   1.000  C
  C658     1.0000 0.31950  0.62720  0.92440  Biso   1.000  C
  C659     1.0000 0.30506  0.16815  0.35731  Biso   1.000  C
  C660     1.0000 0.27516  0.16113  0.38382  Biso   1.000  C
  C661     1.0000 0.18520  0.11500  0.43700  Biso   1.000  C
  C662     1.0000 0.21600  0.13290  0.41850  Biso   1.000  C
  C663     1.0000 0.23200  0.16220  0.42840  Biso   1.000  C
  C664     1.0000 0.18050  0.11870  0.47290  Biso   1.000  C
  C665     1.0000 0.15780  0.10000  0.48980  Biso   1.000  C
  C666     1.0000 0.25980  0.17450  0.41260  Biso   1.000  C
  O48      1.0000 0.10120  0.06680  0.52410  Biso   1.000  O
  C667     1.0000 0.11140  0.06300  0.49470  Biso   1.000  C
  C668     1.0000 0.13190  0.07900  0.47510  Biso   1.000  C
  C669     1.0000 0.24710  0.19280  0.38650  Biso   1.000  C
  C670     1.0000 0.29050  0.15690  0.42240  Biso   1.000  C
  C671     1.0000 0.20290  0.23110  0.35190  Biso   1.000  C
  C672     1.0000 0.31950  0.12720  0.42440  Biso   1.000  C
  C673     1.0000 0.19494  0.35731  0.33185  Biso   1.000  C
  C674     1.0000 0.22484  0.38382  0.33887  Biso   1.000  C
  C675     1.0000 0.31480  0.43700  0.38500  Biso   1.000  C
  C676     1.0000 0.28400  0.41850  0.36710  Biso   1.000  C
  C677     1.0000 0.26800  0.42840  0.33780  Biso   1.000  C
  C678     1.0000 0.31950  0.47290  0.38130  Biso   1.000  C
  C679     1.0000 0.34220  0.48980  0.40000  Biso   1.000  C
  C680     1.0000 0.24020  0.41260  0.32550  Biso   1.000  C
  O49      1.0000 0.39880  0.52410  0.43320  Biso   1.000  O
  C681     1.0000 0.38860  0.49470  0.43700  Biso   1.000  C
  C682     1.0000 0.36810  0.47510  0.42100  Biso   1.000  C
  C683     1.0000 0.25290  0.38650  0.30720  Biso   1.000  C
  C684     1.0000 0.20950  0.42240  0.34310  Biso   1.000  C
  C685     1.0000 0.29710  0.35190  0.26890  Biso   1.000  C
  C686     1.0000 0.18050  0.42440  0.37280  Biso   1.000  C
  C687     1.0000 0.19494  0.85731  0.83185  Biso   1.000  C
  C688     1.0000 0.22484  0.88382  0.83887  Biso   1.000  C
  C689     1.0000 0.31480  0.93700  0.88500  Biso   1.000  C
  C690     1.0000 0.28400  0.91850  0.86710  Biso   1.000  C
  C691     1.0000 0.26800  0.92840  0.83780  Biso   1.000  C
  C692     1.0000 0.31950  0.97290  0.88130  Biso   1.000  C
  C693     1.0000 0.34220  0.98980  0.90000  Biso   1.000  C
  C694     1.0000 0.24020  0.91260  0.82550  Biso   1.000  C
  O50      1.0000 0.39880  0.02410  0.93320  Biso   1.000  O
  C695     1.0000 0.38860  0.99470  0.93700  Biso   1.000  C
  C696     1.0000 0.36810  0.97510  0.92100  Biso   1.000  C
  C697     1.0000 0.25290  0.88650  0.80720  Biso   1.000  C
  C698     1.0000 0.20950  0.92240  0.84310  Biso   1.000  C
  C699     1.0000 0.29710  0.85190  0.76890  Biso   1.000  C
  C700     1.0000 0.18050  0.92440  0.87280  Biso   1.000  C
  C701     1.0000 0.69494  0.35731  0.83185  Biso   1.000  C
  C702     1.0000 0.72484  0.38382  0.83887  Biso   1.000  C
  C703     1.0000 0.81480  0.43700  0.88500  Biso   1.000  C
  C704     1.0000 0.78400  0.41850  0.86710  Biso   1.000  C
  C705     1.0000 0.76800  0.42840  0.83780  Biso   1.000  C
  C706     1.0000 0.81950  0.47290  0.88130  Biso   1.000  C
  C707     1.0000 0.84220  0.48980  0.90000  Biso   1.000  C
  C708     1.0000 0.74020  0.41260  0.82550  Biso   1.000  C
  O51      1.0000 0.89880  0.52410  0.93320  Biso   1.000  O
  C709     1.0000 0.88860  0.49470  0.93700  Biso   1.000  C
  C710     1.0000 0.86810  0.47510  0.92100  Biso   1.000  C
  C711     1.0000 0.75290  0.38650  0.80720  Biso   1.000  C
  C712     1.0000 0.70950  0.42240  0.84310  Biso   1.000  C
  C713     1.0000 0.79710  0.35190  0.76890  Biso   1.000  C
  C714     1.0000 0.68050  0.42440  0.87280  Biso   1.000  C
  C715     1.0000 0.69494  0.85731  0.33185  Biso   1.000  C
  C716     1.0000 0.72484  0.88382  0.33887  Biso   1.000  C
  C717     1.0000 0.81480  0.93700  0.38500  Biso   1.000  C
  C718     1.0000 0.78400  0.91850  0.36710  Biso   1.000  C
  C719     1.0000 0.76800  0.92840  0.33780  Biso   1.000  C
  C720     1.0000 0.81950  0.97290  0.38130  Biso   1.000  C
  C721     1.0000 0.84220  0.98980  0.40000  Biso   1.000  C
  C722     1.0000 0.74020  0.91260  0.32550  Biso   1.000  C
  O52      1.0000 0.89880  0.02410  0.43320  Biso   1.000  O
  C723     1.0000 0.88860  0.99470  0.43700  Biso   1.000  C
  C724     1.0000 0.86810  0.97510  0.42100  Biso   1.000  C
  C725     1.0000 0.75290  0.88650  0.30720  Biso   1.000  C
  C726     1.0000 0.70950  0.92240  0.34310  Biso   1.000  C
  C727     1.0000 0.79710  0.85190  0.26890  Biso   1.000  C
  C728     1.0000 0.68050  0.92440  0.37280  Biso   1.000  C
  C729     1.0000 0.80506  0.64269  0.33185  Biso   1.000  C
  C730     1.0000 0.77516  0.61618  0.33887  Biso   1.000  C
  C731     1.0000 0.68520  0.56300  0.38500  Biso   1.000  C
  C732     1.0000 0.71600  0.58150  0.36710  Biso   1.000  C
  C733     1.0000 0.73200  0.57160  0.33780  Biso   1.000  C
  C734     1.0000 0.68050  0.52710  0.38130  Biso   1.000  C
  C735     1.0000 0.65780  0.51020  0.40000  Biso   1.000  C
  C736     1.0000 0.75980  0.58740  0.32550  Biso   1.000  C
  O53      1.0000 0.60120  0.47590  0.43320  Biso   1.000  O
  C737     1.0000 0.61140  0.50530  0.43700  Biso   1.000  C
  C738     1.0000 0.63190  0.52490  0.42100  Biso   1.000  C
  C739     1.0000 0.74710  0.61350  0.30720  Biso   1.000  C
  C740     1.0000 0.79050  0.57760  0.34310  Biso   1.000  C
  C741     1.0000 0.70290  0.64810  0.26890  Biso   1.000  C
  C742     1.0000 0.81950  0.57560  0.37280  Biso   1.000  C
  C743     1.0000 0.80506  0.14269  0.83185  Biso   1.000  C
  C744     1.0000 0.77516  0.11618  0.83887  Biso   1.000  C
  C745     1.0000 0.68520  0.06300  0.88500  Biso   1.000  C
  C746     1.0000 0.71600  0.08150  0.86710  Biso   1.000  C
  C747     1.0000 0.73200  0.07160  0.83780  Biso   1.000  C
  C748     1.0000 0.68050  0.02710  0.88130  Biso   1.000  C
  C749     1.0000 0.65780  0.01020  0.90000  Biso   1.000  C
  C750     1.0000 0.75980  0.08740  0.82550  Biso   1.000  C
  O54      1.0000 0.60120  0.97590  0.93320  Biso   1.000  O
  C751     1.0000 0.61140  0.00530  0.93700  Biso   1.000  C
  C752     1.0000 0.63190  0.02490  0.92100  Biso   1.000  C
  C753     1.0000 0.74710  0.11350  0.80720  Biso   1.000  C
  C754     1.0000 0.79050  0.07760  0.84310  Biso   1.000  C
  C755     1.0000 0.70290  0.14810  0.76890  Biso   1.000  C
  C756     1.0000 0.81950  0.07560  0.87280  Biso   1.000  C
  C757     1.0000 0.30506  0.64269  0.83185  Biso   1.000  C
  C758     1.0000 0.27516  0.61618  0.83887  Biso   1.000  C
  C759     1.0000 0.18520  0.56300  0.88500  Biso   1.000  C
  C760     1.0000 0.21600  0.58150  0.86710  Biso   1.000  C
  C761     1.0000 0.23200  0.57160  0.83780  Biso   1.000  C
  C762     1.0000 0.18050  0.52710  0.88130  Biso   1.000  C
  C763     1.0000 0.15780  0.51020  0.90000  Biso   1.000  C
  C764     1.0000 0.25980  0.58740  0.82550  Biso   1.000  C
  O55      1.0000 0.10120  0.47590  0.93320  Biso   1.000  O
  C765     1.0000 0.11140  0.50530  0.93700  Biso   1.000  C
  C766     1.0000 0.13190  0.52490  0.92100  Biso   1.000  C
  C767     1.0000 0.24710  0.61350  0.80720  Biso   1.000  C
  C768     1.0000 0.29050  0.57760  0.84310  Biso   1.000  C
  C769     1.0000 0.20290  0.64810  0.76890  Biso   1.000  C
  C770     1.0000 0.31950  0.57560  0.87280  Biso   1.000  C
  C771     1.0000 0.30506  0.14269  0.33185  Biso   1.000  C
  C772     1.0000 0.27516  0.11618  0.33887  Biso   1.000  C
  C773     1.0000 0.18520  0.06300  0.38500  Biso   1.000  C
  C774     1.0000 0.21600  0.08150  0.36710  Biso   1.000  C
  C775     1.0000 0.23200  0.07160  0.33780  Biso   1.000  C
  C776     1.0000 0.18050  0.02710  0.38130  Biso   1.000  C
  C777     1.0000 0.15780  0.01020  0.40000  Biso   1.000  C
  C778     1.0000 0.25980  0.08740  0.32550  Biso   1.000  C
  O56      1.0000 0.10120  0.97590  0.43320  Biso   1.000  O
  C779     1.0000 0.11140  0.00530  0.43700  Biso   1.000  C
  C780     1.0000 0.13190  0.02490  0.42100  Biso   1.000  C
  C781     1.0000 0.24710  0.11350  0.30720  Biso   1.000  C
  C782     1.0000 0.29050  0.07760  0.34310  Biso   1.000  C
  C783     1.0000 0.20290  0.14810  0.26890  Biso   1.000  C
  C784     1.0000 0.31950  0.07560  0.37280  Biso   1.000  C
  C785     1.0000 0.19494  0.64269  0.66815  Biso   1.000  C
  C786     1.0000 0.22484  0.61618  0.66113  Biso   1.000  C
  C787     1.0000 0.31480  0.56300  0.61500  Biso   1.000  C
  C788     1.0000 0.28400  0.58150  0.63290  Biso   1.000  C
  C789     1.0000 0.26800  0.57160  0.66220  Biso   1.000  C
  C790     1.0000 0.31950  0.52710  0.61870  Biso   1.000  C
  C791     1.0000 0.34220  0.51020  0.60000  Biso   1.000  C
  C792     1.0000 0.24020  0.58740  0.67450  Biso   1.000  C
  O57      1.0000 0.39880  0.47590  0.56680  Biso   1.000  O
  C793     1.0000 0.38860  0.50530  0.56300  Biso   1.000  C
  C794     1.0000 0.36810  0.52490  0.57900  Biso   1.000  C
  C795     1.0000 0.25290  0.61350  0.69280  Biso   1.000  C
  C796     1.0000 0.20950  0.57760  0.65690  Biso   1.000  C
  C797     1.0000 0.29710  0.64810  0.73110  Biso   1.000  C
  C798     1.0000 0.18050  0.57560  0.62720  Biso   1.000  C
  C799     1.0000 0.19494  0.14269  0.16815  Biso   1.000  C
  C800     1.0000 0.22484  0.11618  0.16113  Biso   1.000  C
  C801     1.0000 0.31480  0.06300  0.11500  Biso   1.000  C
  C802     1.0000 0.28400  0.08150  0.13290  Biso   1.000  C
  C803     1.0000 0.26800  0.07160  0.16220  Biso   1.000  C
  C804     1.0000 0.31950  0.02710  0.11870  Biso   1.000  C
  C805     1.0000 0.34220  0.01020  0.10000  Biso   1.000  C
  C806     1.0000 0.24020  0.08740  0.17450  Biso   1.000  C
  O58      1.0000 0.39880  0.97590  0.06680  Biso   1.000  O
  C807     1.0000 0.38860  0.00530  0.06300  Biso   1.000  C
  C808     1.0000 0.36810  0.02490  0.07900  Biso   1.000  C
  C809     1.0000 0.25290  0.11350  0.19280  Biso   1.000  C
  C810     1.0000 0.20950  0.07760  0.15690  Biso   1.000  C
  C811     1.0000 0.29710  0.14810  0.23110  Biso   1.000  C
  C812     1.0000 0.18050  0.07560  0.12720  Biso   1.000  C
  C813     1.0000 0.69494  0.64269  0.16815  Biso   1.000  C
  C814     1.0000 0.72484  0.61618  0.16113  Biso   1.000  C
  C815     1.0000 0.81480  0.56300  0.11500  Biso   1.000  C
  C816     1.0000 0.78400  0.58150  0.13290  Biso   1.000  C
  C817     1.0000 0.76800  0.57160  0.16220  Biso   1.000  C
  C818     1.0000 0.81950  0.52710  0.11870  Biso   1.000  C
  C819     1.0000 0.84220  0.51020  0.10000  Biso   1.000  C
  C820     1.0000 0.74020  0.58740  0.17450  Biso   1.000  C
  O59      1.0000 0.89880  0.47590  0.06680  Biso   1.000  O
  C821     1.0000 0.88860  0.50530  0.06300  Biso   1.000  C
  C822     1.0000 0.86810  0.52490  0.07900  Biso   1.000  C
  C823     1.0000 0.75290  0.61350  0.19280  Biso   1.000  C
  C824     1.0000 0.70950  0.57760  0.15690  Biso   1.000  C
  C825     1.0000 0.79710  0.64810  0.23110  Biso   1.000  C
  C826     1.0000 0.68050  0.57560  0.12720  Biso   1.000  C
  C827     1.0000 0.69494  0.14269  0.66815  Biso   1.000  C
  C828     1.0000 0.72484  0.11618  0.66113  Biso   1.000  C
  C829     1.0000 0.81480  0.06300  0.61500  Biso   1.000  C
  C830     1.0000 0.78400  0.08150  0.63290  Biso   1.000  C
  C831     1.0000 0.76800  0.07160  0.66220  Biso   1.000  C
  C832     1.0000 0.81950  0.02710  0.61870  Biso   1.000  C
  C833     1.0000 0.84220  0.01020  0.60000  Biso   1.000  C
  C834     1.0000 0.74020  0.08740  0.67450  Biso   1.000  C
  O60      1.0000 0.89880  0.97590  0.56680  Biso   1.000  O
  C835     1.0000 0.88860  0.00530  0.56300  Biso   1.000  C
  C836     1.0000 0.86810  0.02490  0.57900  Biso   1.000  C
  C837     1.0000 0.75290  0.11350  0.69280  Biso   1.000  C
  C838     1.0000 0.70950  0.07760  0.65690  Biso   1.000  C
  C839     1.0000 0.79710  0.14810  0.73110  Biso   1.000  C
  C840     1.0000 0.68050  0.07560  0.62720  Biso   1.000  C
  C841     1.0000 0.80506  0.35731  0.66815  Biso   1.000  C
  C842     1.0000 0.77516  0.38382  0.66113  Biso   1.000  C
  C843     1.0000 0.68520  0.43700  0.61500  Biso   1.000  C
  C844     1.0000 0.71600  0.41850  0.63290  Biso   1.000  C
  C845     1.0000 0.73200  0.42840  0.66220  Biso   1.000  C
  C846     1.0000 0.68050  0.47290  0.61870  Biso   1.000  C
  C847     1.0000 0.65780  0.48980  0.60000  Biso   1.000  C
  C848     1.0000 0.75980  0.41260  0.67450  Biso   1.000  C
  O61      1.0000 0.60120  0.52410  0.56680  Biso   1.000  O
  C849     1.0000 0.61140  0.49470  0.56300  Biso   1.000  C
  C850     1.0000 0.63190  0.47510  0.57900  Biso   1.000  C
  C851     1.0000 0.74710  0.38650  0.69280  Biso   1.000  C
  C852     1.0000 0.79050  0.42240  0.65690  Biso   1.000  C
  C853     1.0000 0.70290  0.35190  0.73110  Biso   1.000  C
  C854     1.0000 0.81950  0.42440  0.62720  Biso   1.000  C
  C855     1.0000 0.80506  0.85731  0.16815  Biso   1.000  C
  C856     1.0000 0.77516  0.88382  0.16113  Biso   1.000  C
  C857     1.0000 0.68520  0.93700  0.11500  Biso   1.000  C
  C858     1.0000 0.71600  0.91850  0.13290  Biso   1.000  C
  C859     1.0000 0.73200  0.92840  0.16220  Biso   1.000  C
  C860     1.0000 0.68050  0.97290  0.11870  Biso   1.000  C
  C861     1.0000 0.65780  0.98980  0.10000  Biso   1.000  C
  C862     1.0000 0.75980  0.91260  0.17450  Biso   1.000  C
  O62      1.0000 0.60120  0.02410  0.06680  Biso   1.000  O
  C863     1.0000 0.61140  0.99470  0.06300  Biso   1.000  C
  C864     1.0000 0.63190  0.97510  0.07900  Biso   1.000  C
  C865     1.0000 0.74710  0.88650  0.19280  Biso   1.000  C
  C866     1.0000 0.79050  0.92240  0.15690  Biso   1.000  C
  C867     1.0000 0.70290  0.85190  0.23110  Biso   1.000  C
  C868     1.0000 0.81950  0.92440  0.12720  Biso   1.000  C
  C869     1.0000 0.30506  0.35731  0.16815  Biso   1.000  C
  C870     1.0000 0.27516  0.38382  0.16113  Biso   1.000  C
  C871     1.0000 0.18520  0.43700  0.11500  Biso   1.000  C
  C872     1.0000 0.21600  0.41850  0.13290  Biso   1.000  C
  C873     1.0000 0.23200  0.42840  0.16220  Biso   1.000  C
  C874     1.0000 0.18050  0.47290  0.11870  Biso   1.000  C
  C875     1.0000 0.15780  0.48980  0.10000  Biso   1.000  C
  C876     1.0000 0.25980  0.41260  0.17450  Biso   1.000  C
  O63      1.0000 0.10120  0.52410  0.06680  Biso   1.000  O
  C877     1.0000 0.11140  0.49470  0.06300  Biso   1.000  C
  C878     1.0000 0.13190  0.47510  0.07900  Biso   1.000  C
  C879     1.0000 0.24710  0.38650  0.19280  Biso   1.000  C
  C880     1.0000 0.29050  0.42240  0.15690  Biso   1.000  C
  C881     1.0000 0.20290  0.35190  0.23110  Biso   1.000  C
  C882     1.0000 0.31950  0.42440  0.12720  Biso   1.000  C
  C883     1.0000 0.30506  0.85731  0.66815  Biso   1.000  C
  C884     1.0000 0.27516  0.88382  0.66113  Biso   1.000  C
  C885     1.0000 0.18520  0.93700  0.61500  Biso   1.000  C
  C886     1.0000 0.21600  0.91850  0.63290  Biso   1.000  C
  C887     1.0000 0.23200  0.92840  0.66220  Biso   1.000  C
  C888     1.0000 0.18050  0.97290  0.61870  Biso   1.000  C
  C889     1.0000 0.15780  0.98980  0.60000  Biso   1.000  C
  C890     1.0000 0.25980  0.91260  0.67450  Biso   1.000  C
  O64      1.0000 0.10120  0.02410  0.56680  Biso   1.000  O
  C891     1.0000 0.11140  0.99470  0.56300  Biso   1.000  C
  C892     1.0000 0.13190  0.97510  0.57900  Biso   1.000  C
  C893     1.0000 0.24710  0.88650  0.69280  Biso   1.000  C
  C894     1.0000 0.29050  0.92240  0.65690  Biso   1.000  C
  C895     1.0000 0.20290  0.85190  0.73110  Biso   1.000  C
  C896     1.0000 0.31950  0.92440  0.62720  Biso   1.000  C
  C897     1.0000 0.35731  0.33185  0.19494  Biso   1.000  C
  C898     1.0000 0.38382  0.33887  0.22484  Biso   1.000  C
  C899     1.0000 0.43700  0.38500  0.31480  Biso   1.000  C
  C900     1.0000 0.41850  0.36710  0.28400  Biso   1.000  C
  C901     1.0000 0.42840  0.33780  0.26800  Biso   1.000  C
  C902     1.0000 0.47290  0.38130  0.31950  Biso   1.000  C
  C903     1.0000 0.48980  0.40000  0.34220  Biso   1.000  C
  C904     1.0000 0.41260  0.32550  0.24020  Biso   1.000  C
  O65      1.0000 0.52410  0.43320  0.39880  Biso   1.000  O
  C905     1.0000 0.49470  0.43700  0.38860  Biso   1.000  C
  C906     1.0000 0.47510  0.42100  0.36810  Biso   1.000  C
  C907     1.0000 0.38650  0.30720  0.25290  Biso   1.000  C
  C908     1.0000 0.42240  0.34310  0.20950  Biso   1.000  C
  C909     1.0000 0.35190  0.26890  0.29710  Biso   1.000  C
  C910     1.0000 0.42440  0.37280  0.18050  Biso   1.000  C
  C911     1.0000 0.35731  0.83185  0.69494  Biso   1.000  C
  C912     1.0000 0.38382  0.83887  0.72484  Biso   1.000  C
  C913     1.0000 0.43700  0.88500  0.81480  Biso   1.000  C
  C914     1.0000 0.41850  0.86710  0.78400  Biso   1.000  C
  C915     1.0000 0.42840  0.83780  0.76800  Biso   1.000  C
  C916     1.0000 0.47290  0.88130  0.81950  Biso   1.000  C
  C917     1.0000 0.48980  0.90000  0.84220  Biso   1.000  C
  C918     1.0000 0.41260  0.82550  0.74020  Biso   1.000  C
  O66      1.0000 0.52410  0.93320  0.89880  Biso   1.000  O
  C919     1.0000 0.49470  0.93700  0.88860  Biso   1.000  C
  C920     1.0000 0.47510  0.92100  0.86810  Biso   1.000  C
  C921     1.0000 0.38650  0.80720  0.75290  Biso   1.000  C
  C922     1.0000 0.42240  0.84310  0.70950  Biso   1.000  C
  C923     1.0000 0.35190  0.76890  0.79710  Biso   1.000  C
  C924     1.0000 0.42440  0.87280  0.68050  Biso   1.000  C
  C925     1.0000 0.85731  0.33185  0.69494  Biso   1.000  C
  C926     1.0000 0.88382  0.33887  0.72484  Biso   1.000  C
  C927     1.0000 0.93700  0.38500  0.81480  Biso   1.000  C
  C928     1.0000 0.91850  0.36710  0.78400  Biso   1.000  C
  C929     1.0000 0.92840  0.33780  0.76800  Biso   1.000  C
  C930     1.0000 0.97290  0.38130  0.81950  Biso   1.000  C
  C931     1.0000 0.98980  0.40000  0.84220  Biso   1.000  C
  C932     1.0000 0.91260  0.32550  0.74020  Biso   1.000  C
  O67      1.0000 0.02410  0.43320  0.89880  Biso   1.000  O
  C933     1.0000 0.99470  0.43700  0.88860  Biso   1.000  C
  C934     1.0000 0.97510  0.42100  0.86810  Biso   1.000  C
  C935     1.0000 0.88650  0.30720  0.75290  Biso   1.000  C
  C936     1.0000 0.92240  0.34310  0.70950  Biso   1.000  C
  C937     1.0000 0.85190  0.26890  0.79710  Biso   1.000  C
  C938     1.0000 0.92440  0.37280  0.68050  Biso   1.000  C
  C939     1.0000 0.85731  0.83185  0.19494  Biso   1.000  C
  C940     1.0000 0.88382  0.83887  0.22484  Biso   1.000  C
  C941     1.0000 0.93700  0.88500  0.31480  Biso   1.000  C
  C942     1.0000 0.91850  0.86710  0.28400  Biso   1.000  C
  C943     1.0000 0.92840  0.83780  0.26800  Biso   1.000  C
  C944     1.0000 0.97290  0.88130  0.31950  Biso   1.000  C
  C945     1.0000 0.98980  0.90000  0.34220  Biso   1.000  C
  C946     1.0000 0.91260  0.82550  0.24020  Biso   1.000  C
  O68      1.0000 0.02410  0.93320  0.39880  Biso   1.000  O
  C947     1.0000 0.99470  0.93700  0.38860  Biso   1.000  C
  C948     1.0000 0.97510  0.92100  0.36810  Biso   1.000  C
  C949     1.0000 0.88650  0.80720  0.25290  Biso   1.000  C
  C950     1.0000 0.92240  0.84310  0.20950  Biso   1.000  C
  C951     1.0000 0.85190  0.76890  0.29710  Biso   1.000  C
  C952     1.0000 0.92440  0.87280  0.18050  Biso   1.000  C
  C953     1.0000 0.64269  0.33185  0.80506  Biso   1.000  C
  C954     1.0000 0.61618  0.33887  0.77516  Biso   1.000  C
  C955     1.0000 0.56300  0.38500  0.68520  Biso   1.000  C
  C956     1.0000 0.58150  0.36710  0.71600  Biso   1.000  C
  C957     1.0000 0.57160  0.33780  0.73200  Biso   1.000  C
  C958     1.0000 0.52710  0.38130  0.68050  Biso   1.000  C
  C959     1.0000 0.51020  0.40000  0.65780  Biso   1.000  C
  C960     1.0000 0.58740  0.32550  0.75980  Biso   1.000  C
  O69      1.0000 0.47590  0.43320  0.60120  Biso   1.000  O
  C961     1.0000 0.50530  0.43700  0.61140  Biso   1.000  C
  C962     1.0000 0.52490  0.42100  0.63190  Biso   1.000  C
  C963     1.0000 0.61350  0.30720  0.74710  Biso   1.000  C
  C964     1.0000 0.57760  0.34310  0.79050  Biso   1.000  C
  C965     1.0000 0.64810  0.26890  0.70290  Biso   1.000  C
  C966     1.0000 0.57560  0.37280  0.81950  Biso   1.000  C
  C967     1.0000 0.64269  0.83185  0.30506  Biso   1.000  C
  C968     1.0000 0.61618  0.83887  0.27516  Biso   1.000  C
  C969     1.0000 0.56300  0.88500  0.18520  Biso   1.000  C
  C970     1.0000 0.58150  0.86710  0.21600  Biso   1.000  C
  C971     1.0000 0.57160  0.83780  0.23200  Biso   1.000  C
  C972     1.0000 0.52710  0.88130  0.18050  Biso   1.000  C
  C973     1.0000 0.51020  0.90000  0.15780  Biso   1.000  C
  C974     1.0000 0.58740  0.82550  0.25980  Biso   1.000  C
  O70      1.0000 0.47590  0.93320  0.10120  Biso   1.000  O
  C975     1.0000 0.50530  0.93700  0.11140  Biso   1.000  C
  C976     1.0000 0.52490  0.92100  0.13190  Biso   1.000  C
  C977     1.0000 0.61350  0.80720  0.24710  Biso   1.000  C
  C978     1.0000 0.57760  0.84310  0.29050  Biso   1.000  C
  C979     1.0000 0.64810  0.76890  0.20290  Biso   1.000  C
  C980     1.0000 0.57560  0.87280  0.31950  Biso   1.000  C
  C981     1.0000 0.14269  0.33185  0.30506  Biso   1.000  C
  C982     1.0000 0.11618  0.33887  0.27516  Biso   1.000  C
  C983     1.0000 0.06300  0.38500  0.18520  Biso   1.000  C
  C984     1.0000 0.08150  0.36710  0.21600  Biso   1.000  C
  C985     1.0000 0.07160  0.33780  0.23200  Biso   1.000  C
  C986     1.0000 0.02710  0.38130  0.18050  Biso   1.000  C
  C987     1.0000 0.01020  0.40000  0.15780  Biso   1.000  C
  C988     1.0000 0.08740  0.32550  0.25980  Biso   1.000  C
  O71      1.0000 0.97590  0.43320  0.10120  Biso   1.000  O
  C989     1.0000 0.00530  0.43700  0.11140  Biso   1.000  C
  C990     1.0000 0.02490  0.42100  0.13190  Biso   1.000  C
  C991     1.0000 0.11350  0.30720  0.24710  Biso   1.000  C
  C992     1.0000 0.07760  0.34310  0.29050  Biso   1.000  C
  C993     1.0000 0.14810  0.26890  0.20290  Biso   1.000  C
  C994     1.0000 0.07560  0.37280  0.31950  Biso   1.000  C
  C995     1.0000 0.14269  0.83185  0.80506  Biso   1.000  C
  C996     1.0000 0.11618  0.83887  0.77516  Biso   1.000  C
  C997     1.0000 0.06300  0.88500  0.68520  Biso   1.000  C
  C998     1.0000 0.08150  0.86710  0.71600  Biso   1.000  C
  C999     1.0000 0.07160  0.83780  0.73200  Biso   1.000  C
  C1000    1.0000 0.02710  0.88130  0.68050  Biso   1.000  C
  C1001    1.0000 0.01020  0.90000  0.65780  Biso   1.000  C
  C1002    1.0000 0.08740  0.82550  0.75980  Biso   1.000  C
  O72      1.0000 0.97590  0.93320  0.60120  Biso   1.000  O
  C1003    1.0000 0.00530  0.93700  0.61140  Biso   1.000  C
  C1004    1.0000 0.02490  0.92100  0.63190  Biso   1.000  C
  C1005    1.0000 0.11350  0.80720  0.74710  Biso   1.000  C
  C1006    1.0000 0.07760  0.84310  0.79050  Biso   1.000  C
  C1007    1.0000 0.14810  0.76890  0.70290  Biso   1.000  C
  C1008    1.0000 0.07560  0.87280  0.81950  Biso   1.000  C
  C1009    1.0000 0.64269  0.66815  0.19494  Biso   1.000  C
  C1010    1.0000 0.61618  0.66113  0.22484  Biso   1.000  C
  C1011    1.0000 0.56300  0.61500  0.31480  Biso   1.000  C
  C1012    1.0000 0.58150  0.63290  0.28400  Biso   1.000  C
  C1013    1.0000 0.57160  0.66220  0.26800  Biso   1.000  C
  C1014    1.0000 0.52710  0.61870  0.31950  Biso   1.000  C
  C1015    1.0000 0.51020  0.60000  0.34220  Biso   1.000  C
  C1016    1.0000 0.58740  0.67450  0.24020  Biso   1.000  C
  O73      1.0000 0.47590  0.56680  0.39880  Biso   1.000  O
  C1017    1.0000 0.50530  0.56300  0.38860  Biso   1.000  C
  C1018    1.0000 0.52490  0.57900  0.36810  Biso   1.000  C
  C1019    1.0000 0.61350  0.69280  0.25290  Biso   1.000  C
  C1020    1.0000 0.57760  0.65690  0.20950  Biso   1.000  C
  C1021    1.0000 0.64810  0.73110  0.29710  Biso   1.000  C
  C1022    1.0000 0.57560  0.62720  0.18050  Biso   1.000  C
  C1023    1.0000 0.64269  0.16815  0.69494  Biso   1.000  C
  C1024    1.0000 0.61618  0.16113  0.72484  Biso   1.000  C
  C1025    1.0000 0.56300  0.11500  0.81480  Biso   1.000  C
  C1026    1.0000 0.58150  0.13290  0.78400  Biso   1.000  C
  C1027    1.0000 0.57160  0.16220  0.76800  Biso   1.000  C
  C1028    1.0000 0.52710  0.11870  0.81950  Biso   1.000  C
  C1029    1.0000 0.51020  0.10000  0.84220  Biso   1.000  C
  C1030    1.0000 0.58740  0.17450  0.74020  Biso   1.000  C
  O74      1.0000 0.47590  0.06680  0.89880  Biso   1.000  O
  C1031    1.0000 0.50530  0.06300  0.88860  Biso   1.000  C
  C1032    1.0000 0.52490  0.07900  0.86810  Biso   1.000  C
  C1033    1.0000 0.61350  0.19280  0.75290  Biso   1.000  C
  C1034    1.0000 0.57760  0.15690  0.70950  Biso   1.000  C
  C1035    1.0000 0.64810  0.23110  0.79710  Biso   1.000  C
  C1036    1.0000 0.57560  0.12720  0.68050  Biso   1.000  C
  C1037    1.0000 0.14269  0.66815  0.69494  Biso   1.000  C
  C1038    1.0000 0.11618  0.66113  0.72484  Biso   1.000  C
  C1039    1.0000 0.06300  0.61500  0.81480  Biso   1.000  C
  C1040    1.0000 0.08150  0.63290  0.78400  Biso   1.000  C
  C1041    1.0000 0.07160  0.66220  0.76800  Biso   1.000  C
  C1042    1.0000 0.02710  0.61870  0.81950  Biso   1.000  C
  C1043    1.0000 0.01020  0.60000  0.84220  Biso   1.000  C
  C1044    1.0000 0.08740  0.67450  0.74020  Biso   1.000  C
  O75      1.0000 0.97590  0.56680  0.89880  Biso   1.000  O
  C1045    1.0000 0.00530  0.56300  0.88860  Biso   1.000  C
  C1046    1.0000 0.02490  0.57900  0.86810  Biso   1.000  C
  C1047    1.0000 0.11350  0.69280  0.75290  Biso   1.000  C
  C1048    1.0000 0.07760  0.65690  0.70950  Biso   1.000  C
  C1049    1.0000 0.14810  0.73110  0.79710  Biso   1.000  C
  C1050    1.0000 0.07560  0.62720  0.68050  Biso   1.000  C
  C1051    1.0000 0.14269  0.16815  0.19494  Biso   1.000  C
  C1052    1.0000 0.11618  0.16113  0.22484  Biso   1.000  C
  C1053    1.0000 0.06300  0.11500  0.31480  Biso   1.000  C
  C1054    1.0000 0.08150  0.13290  0.28400  Biso   1.000  C
  C1055    1.0000 0.07160  0.16220  0.26800  Biso   1.000  C
  C1056    1.0000 0.02710  0.11870  0.31950  Biso   1.000  C
  C1057    1.0000 0.01020  0.10000  0.34220  Biso   1.000  C
  C1058    1.0000 0.08740  0.17450  0.24020  Biso   1.000  C
  O76      1.0000 0.97590  0.06680  0.39880  Biso   1.000  O
  C1059    1.0000 0.00530  0.06300  0.38860  Biso   1.000  C
  C1060    1.0000 0.02490  0.07900  0.36810  Biso   1.000  C
  C1061    1.0000 0.11350  0.19280  0.25290  Biso   1.000  C
  C1062    1.0000 0.07760  0.15690  0.20950  Biso   1.000  C
  C1063    1.0000 0.14810  0.23110  0.29710  Biso   1.000  C
  C1064    1.0000 0.07560  0.12720  0.18050  Biso   1.000  C
  C1065    1.0000 0.35731  0.66815  0.80506  Biso   1.000  C
  C1066    1.0000 0.38382  0.66113  0.77516  Biso   1.000  C
  C1067    1.0000 0.43700  0.61500  0.68520  Biso   1.000  C
  C1068    1.0000 0.41850  0.63290  0.71600  Biso   1.000  C
  C1069    1.0000 0.42840  0.66220  0.73200  Biso   1.000  C
  C1070    1.0000 0.47290  0.61870  0.68050  Biso   1.000  C
  C1071    1.0000 0.48980  0.60000  0.65780  Biso   1.000  C
  C1072    1.0000 0.41260  0.67450  0.75980  Biso   1.000  C
  O77      1.0000 0.52410  0.56680  0.60120  Biso   1.000  O
  C1073    1.0000 0.49470  0.56300  0.61140  Biso   1.000  C
  C1074    1.0000 0.47510  0.57900  0.63190  Biso   1.000  C
  C1075    1.0000 0.38650  0.69280  0.74710  Biso   1.000  C
  C1076    1.0000 0.42240  0.65690  0.79050  Biso   1.000  C
  C1077    1.0000 0.35190  0.73110  0.70290  Biso   1.000  C
  C1078    1.0000 0.42440  0.62720  0.81950  Biso   1.000  C
  C1079    1.0000 0.35731  0.16815  0.30506  Biso   1.000  C
  C1080    1.0000 0.38382  0.16113  0.27516  Biso   1.000  C
  C1081    1.0000 0.43700  0.11500  0.18520  Biso   1.000  C
  C1082    1.0000 0.41850  0.13290  0.21600  Biso   1.000  C
  C1083    1.0000 0.42840  0.16220  0.23200  Biso   1.000  C
  C1084    1.0000 0.47290  0.11870  0.18050  Biso   1.000  C
  C1085    1.0000 0.48980  0.10000  0.15780  Biso   1.000  C
  C1086    1.0000 0.41260  0.17450  0.25980  Biso   1.000  C
  O78      1.0000 0.52410  0.06680  0.10120  Biso   1.000  O
  C1087    1.0000 0.49470  0.06300  0.11140  Biso   1.000  C
  C1088    1.0000 0.47510  0.07900  0.13190  Biso   1.000  C
  C1089    1.0000 0.38650  0.19280  0.24710  Biso   1.000  C
  C1090    1.0000 0.42240  0.15690  0.29050  Biso   1.000  C
  C1091    1.0000 0.35190  0.23110  0.20290  Biso   1.000  C
  C1092    1.0000 0.42440  0.12720  0.31950  Biso   1.000  C
  C1093    1.0000 0.85731  0.66815  0.30506  Biso   1.000  C
  C1094    1.0000 0.88382  0.66113  0.27516  Biso   1.000  C
  C1095    1.0000 0.93700  0.61500  0.18520  Biso   1.000  C
  C1096    1.0000 0.91850  0.63290  0.21600  Biso   1.000  C
  C1097    1.0000 0.92840  0.66220  0.23200  Biso   1.000  C
  C1098    1.0000 0.97290  0.61870  0.18050  Biso   1.000  C
  C1099    1.0000 0.98980  0.60000  0.15780  Biso   1.000  C
  C1100    1.0000 0.91260  0.67450  0.25980  Biso   1.000  C
  O79      1.0000 0.02410  0.56680  0.10120  Biso   1.000  O
  C1101    1.0000 0.99470  0.56300  0.11140  Biso   1.000  C
  C1102    1.0000 0.97510  0.57900  0.13190  Biso   1.000  C
  C1103    1.0000 0.88650  0.69280  0.24710  Biso   1.000  C
  C1104    1.0000 0.92240  0.65690  0.29050  Biso   1.000  C
  C1105    1.0000 0.85190  0.73110  0.20290  Biso   1.000  C
  C1106    1.0000 0.92440  0.62720  0.31950  Biso   1.000  C
  C1107    1.0000 0.85731  0.16815  0.80506  Biso   1.000  C
  C1108    1.0000 0.88382  0.16113  0.77516  Biso   1.000  C
  C1109    1.0000 0.93700  0.11500  0.68520  Biso   1.000  C
  C1110    1.0000 0.91850  0.13290  0.71600  Biso   1.000  C
  C1111    1.0000 0.92840  0.16220  0.73200  Biso   1.000  C
  C1112    1.0000 0.97290  0.11870  0.68050  Biso   1.000  C
  C1113    1.0000 0.98980  0.10000  0.65780  Biso   1.000  C
  C1114    1.0000 0.91260  0.17450  0.75980  Biso   1.000  C
  O80      1.0000 0.02410  0.06680  0.60120  Biso   1.000  O
  C1115    1.0000 0.99470  0.06300  0.61140  Biso   1.000  C
  C1116    1.0000 0.97510  0.07900  0.63190  Biso   1.000  C
  C1117    1.0000 0.88650  0.19280  0.74710  Biso   1.000  C
  C1118    1.0000 0.92240  0.15690  0.79050  Biso   1.000  C
  C1119    1.0000 0.85190  0.23110  0.70290  Biso   1.000  C
  C1120    1.0000 0.92440  0.12720  0.81950  Biso   1.000  C
  C1121    1.0000 0.33185  0.19494  0.35731  Biso   1.000  C
  C1122    1.0000 0.33887  0.22484  0.38382  Biso   1.000  C
  C1123    1.0000 0.38500  0.31480  0.43700  Biso   1.000  C
  C1124    1.0000 0.36710  0.28400  0.41850  Biso   1.000  C
  C1125    1.0000 0.33780  0.26800  0.42840  Biso   1.000  C
  C1126    1.0000 0.38130  0.31950  0.47290  Biso   1.000  C
  C1127    1.0000 0.40000  0.34220  0.48980  Biso   1.000  C
  C1128    1.0000 0.32550  0.24020  0.41260  Biso   1.000  C
  O81      1.0000 0.43320  0.39880  0.52410  Biso   1.000  O
  C1129    1.0000 0.43700  0.38860  0.49470  Biso   1.000  C
  C1130    1.0000 0.42100  0.36810  0.47510  Biso   1.000  C
  C1131    1.0000 0.30720  0.25290  0.38650  Biso   1.000  C
  C1132    1.0000 0.34310  0.20950  0.42240  Biso   1.000  C
  C1133    1.0000 0.26890  0.29710  0.35190  Biso   1.000  C
  C1134    1.0000 0.37280  0.18050  0.42440  Biso   1.000  C
  C1135    1.0000 0.33185  0.69494  0.85731  Biso   1.000  C
  C1136    1.0000 0.33887  0.72484  0.88382  Biso   1.000  C
  C1137    1.0000 0.38500  0.81480  0.93700  Biso   1.000  C
  C1138    1.0000 0.36710  0.78400  0.91850  Biso   1.000  C
  C1139    1.0000 0.33780  0.76800  0.92840  Biso   1.000  C
  C1140    1.0000 0.38130  0.81950  0.97290  Biso   1.000  C
  C1141    1.0000 0.40000  0.84220  0.98980  Biso   1.000  C
  C1142    1.0000 0.32550  0.74020  0.91260  Biso   1.000  C
  O82      1.0000 0.43320  0.89880  0.02410  Biso   1.000  O
  C1143    1.0000 0.43700  0.88860  0.99470  Biso   1.000  C
  C1144    1.0000 0.42100  0.86810  0.97510  Biso   1.000  C
  C1145    1.0000 0.30720  0.75290  0.88650  Biso   1.000  C
  C1146    1.0000 0.34310  0.70950  0.92240  Biso   1.000  C
  C1147    1.0000 0.26890  0.79710  0.85190  Biso   1.000  C
  C1148    1.0000 0.37280  0.68050  0.92440  Biso   1.000  C
  C1149    1.0000 0.83185  0.19494  0.85731  Biso   1.000  C
  C1150    1.0000 0.83887  0.22484  0.88382  Biso   1.000  C
  C1151    1.0000 0.88500  0.31480  0.93700  Biso   1.000  C
  C1152    1.0000 0.86710  0.28400  0.91850  Biso   1.000  C
  C1153    1.0000 0.83780  0.26800  0.92840  Biso   1.000  C
  C1154    1.0000 0.88130  0.31950  0.97290  Biso   1.000  C
  C1155    1.0000 0.90000  0.34220  0.98980  Biso   1.000  C
  C1156    1.0000 0.82550  0.24020  0.91260  Biso   1.000  C
  O83      1.0000 0.93320  0.39880  0.02410  Biso   1.000  O
  C1157    1.0000 0.93700  0.38860  0.99470  Biso   1.000  C
  C1158    1.0000 0.92100  0.36810  0.97510  Biso   1.000  C
  C1159    1.0000 0.80720  0.25290  0.88650  Biso   1.000  C
  C1160    1.0000 0.84310  0.20950  0.92240  Biso   1.000  C
  C1161    1.0000 0.76890  0.29710  0.85190  Biso   1.000  C
  C1162    1.0000 0.87280  0.18050  0.92440  Biso   1.000  C
  C1163    1.0000 0.83185  0.69494  0.35731  Biso   1.000  C
  C1164    1.0000 0.83887  0.72484  0.38382  Biso   1.000  C
  C1165    1.0000 0.88500  0.81480  0.43700  Biso   1.000  C
  C1166    1.0000 0.86710  0.78400  0.41850  Biso   1.000  C
  C1167    1.0000 0.83780  0.76800  0.42840  Biso   1.000  C
  C1168    1.0000 0.88130  0.81950  0.47290  Biso   1.000  C
  C1169    1.0000 0.90000  0.84220  0.48980  Biso   1.000  C
  C1170    1.0000 0.82550  0.74020  0.41260  Biso   1.000  C
  O84      1.0000 0.93320  0.89880  0.52410  Biso   1.000  O
  C1171    1.0000 0.93700  0.88860  0.49470  Biso   1.000  C
  C1172    1.0000 0.92100  0.86810  0.47510  Biso   1.000  C
  C1173    1.0000 0.80720  0.75290  0.38650  Biso   1.000  C
  C1174    1.0000 0.84310  0.70950  0.42240  Biso   1.000  C
  C1175    1.0000 0.76890  0.79710  0.35190  Biso   1.000  C
  C1176    1.0000 0.87280  0.68050  0.42440  Biso   1.000  C
  C1177    1.0000 0.33185  0.80506  0.64269  Biso   1.000  C
  C1178    1.0000 0.33887  0.77516  0.61618  Biso   1.000  C
  C1179    1.0000 0.38500  0.68520  0.56300  Biso   1.000  C
  C1180    1.0000 0.36710  0.71600  0.58150  Biso   1.000  C
  C1181    1.0000 0.33780  0.73200  0.57160  Biso   1.000  C
  C1182    1.0000 0.38130  0.68050  0.52710  Biso   1.000  C
  C1183    1.0000 0.40000  0.65780  0.51020  Biso   1.000  C
  C1184    1.0000 0.32550  0.75980  0.58740  Biso   1.000  C
  O85      1.0000 0.43320  0.60120  0.47590  Biso   1.000  O
  C1185    1.0000 0.43700  0.61140  0.50530  Biso   1.000  C
  C1186    1.0000 0.42100  0.63190  0.52490  Biso   1.000  C
  C1187    1.0000 0.30720  0.74710  0.61350  Biso   1.000  C
  C1188    1.0000 0.34310  0.79050  0.57760  Biso   1.000  C
  C1189    1.0000 0.26890  0.70290  0.64810  Biso   1.000  C
  C1190    1.0000 0.37280  0.81950  0.57560  Biso   1.000  C
  C1191    1.0000 0.33185  0.30506  0.14269  Biso   1.000  C
  C1192    1.0000 0.33887  0.27516  0.11618  Biso   1.000  C
  C1193    1.0000 0.38500  0.18520  0.06300  Biso   1.000  C
  C1194    1.0000 0.36710  0.21600  0.08150  Biso   1.000  C
  C1195    1.0000 0.33780  0.23200  0.07160  Biso   1.000  C
  C1196    1.0000 0.38130  0.18050  0.02710  Biso   1.000  C
  C1197    1.0000 0.40000  0.15780  0.01020  Biso   1.000  C
  C1198    1.0000 0.32550  0.25980  0.08740  Biso   1.000  C
  O86      1.0000 0.43320  0.10120  0.97590  Biso   1.000  O
  C1199    1.0000 0.43700  0.11140  0.00530  Biso   1.000  C
  C1200    1.0000 0.42100  0.13190  0.02490  Biso   1.000  C
  C1201    1.0000 0.30720  0.24710  0.11350  Biso   1.000  C
  C1202    1.0000 0.34310  0.29050  0.07760  Biso   1.000  C
  C1203    1.0000 0.26890  0.20290  0.14810  Biso   1.000  C
  C1204    1.0000 0.37280  0.31950  0.07560  Biso   1.000  C
  C1205    1.0000 0.83185  0.80506  0.14269  Biso   1.000  C
  C1206    1.0000 0.83887  0.77516  0.11618  Biso   1.000  C
  C1207    1.0000 0.88500  0.68520  0.06300  Biso   1.000  C
  C1208    1.0000 0.86710  0.71600  0.08150  Biso   1.000  C
  C1209    1.0000 0.83780  0.73200  0.07160  Biso   1.000  C
  C1210    1.0000 0.88130  0.68050  0.02710  Biso   1.000  C
  C1211    1.0000 0.90000  0.65780  0.01020  Biso   1.000  C
  C1212    1.0000 0.82550  0.75980  0.08740  Biso   1.000  C
  O87      1.0000 0.93320  0.60120  0.97590  Biso   1.000  O
  C1213    1.0000 0.93700  0.61140  0.00530  Biso   1.000  C
  C1214    1.0000 0.92100  0.63190  0.02490  Biso   1.000  C
  C1215    1.0000 0.80720  0.74710  0.11350  Biso   1.000  C
  C1216    1.0000 0.84310  0.79050  0.07760  Biso   1.000  C
  C1217    1.0000 0.76890  0.70290  0.14810  Biso   1.000  C
  C1218    1.0000 0.87280  0.81950  0.07560  Biso   1.000  C
  C1219    1.0000 0.83185  0.30506  0.64269  Biso   1.000  C
  C1220    1.0000 0.83887  0.27516  0.61618  Biso   1.000  C
  C1221    1.0000 0.88500  0.18520  0.56300  Biso   1.000  C
  C1222    1.0000 0.86710  0.21600  0.58150  Biso   1.000  C
  C1223    1.0000 0.83780  0.23200  0.57160  Biso   1.000  C
  C1224    1.0000 0.88130  0.18050  0.52710  Biso   1.000  C
  C1225    1.0000 0.90000  0.15780  0.51020  Biso   1.000  C
  C1226    1.0000 0.82550  0.25980  0.58740  Biso   1.000  C
  O88      1.0000 0.93320  0.10120  0.47590  Biso   1.000  O
  C1227    1.0000 0.93700  0.11140  0.50530  Biso   1.000  C
  C1228    1.0000 0.92100  0.13190  0.52490  Biso   1.000  C
  C1229    1.0000 0.80720  0.24710  0.61350  Biso   1.000  C
  C1230    1.0000 0.84310  0.29050  0.57760  Biso   1.000  C
  C1231    1.0000 0.76890  0.20290  0.64810  Biso   1.000  C
  C1232    1.0000 0.87280  0.31950  0.57560  Biso   1.000  C
  C1233    1.0000 0.66815  0.19494  0.64269  Biso   1.000  C
  C1234    1.0000 0.66113  0.22484  0.61618  Biso   1.000  C
  C1235    1.0000 0.61500  0.31480  0.56300  Biso   1.000  C
  C1236    1.0000 0.63290  0.28400  0.58150  Biso   1.000  C
  C1237    1.0000 0.66220  0.26800  0.57160  Biso   1.000  C
  C1238    1.0000 0.61870  0.31950  0.52710  Biso   1.000  C
  C1239    1.0000 0.60000  0.34220  0.51020  Biso   1.000  C
  C1240    1.0000 0.67450  0.24020  0.58740  Biso   1.000  C
  O89      1.0000 0.56680  0.39880  0.47590  Biso   1.000  O
  C1241    1.0000 0.56300  0.38860  0.50530  Biso   1.000  C
  C1242    1.0000 0.57900  0.36810  0.52490  Biso   1.000  C
  C1243    1.0000 0.69280  0.25290  0.61350  Biso   1.000  C
  C1244    1.0000 0.65690  0.20950  0.57760  Biso   1.000  C
  C1245    1.0000 0.73110  0.29710  0.64810  Biso   1.000  C
  C1246    1.0000 0.62720  0.18050  0.57560  Biso   1.000  C
  C1247    1.0000 0.66815  0.69494  0.14269  Biso   1.000  C
  C1248    1.0000 0.66113  0.72484  0.11618  Biso   1.000  C
  C1249    1.0000 0.61500  0.81480  0.06300  Biso   1.000  C
  C1250    1.0000 0.63290  0.78400  0.08150  Biso   1.000  C
  C1251    1.0000 0.66220  0.76800  0.07160  Biso   1.000  C
  C1252    1.0000 0.61870  0.81950  0.02710  Biso   1.000  C
  C1253    1.0000 0.60000  0.84220  0.01020  Biso   1.000  C
  C1254    1.0000 0.67450  0.74020  0.08740  Biso   1.000  C
  O90      1.0000 0.56680  0.89880  0.97590  Biso   1.000  O
  C1255    1.0000 0.56300  0.88860  0.00530  Biso   1.000  C
  C1256    1.0000 0.57900  0.86810  0.02490  Biso   1.000  C
  C1257    1.0000 0.69280  0.75290  0.11350  Biso   1.000  C
  C1258    1.0000 0.65690  0.70950  0.07760  Biso   1.000  C
  C1259    1.0000 0.73110  0.79710  0.14810  Biso   1.000  C
  C1260    1.0000 0.62720  0.68050  0.07560  Biso   1.000  C
  C1261    1.0000 0.16815  0.19494  0.14269  Biso   1.000  C
  C1262    1.0000 0.16113  0.22484  0.11618  Biso   1.000  C
  C1263    1.0000 0.11500  0.31480  0.06300  Biso   1.000  C
  C1264    1.0000 0.13290  0.28400  0.08150  Biso   1.000  C
  C1265    1.0000 0.16220  0.26800  0.07160  Biso   1.000  C
  C1266    1.0000 0.11870  0.31950  0.02710  Biso   1.000  C
  C1267    1.0000 0.10000  0.34220  0.01020  Biso   1.000  C
  C1268    1.0000 0.17450  0.24020  0.08740  Biso   1.000  C
  O91      1.0000 0.06680  0.39880  0.97590  Biso   1.000  O
  C1269    1.0000 0.06300  0.38860  0.00530  Biso   1.000  C
  C1270    1.0000 0.07900  0.36810  0.02490  Biso   1.000  C
  C1271    1.0000 0.19280  0.25290  0.11350  Biso   1.000  C
  C1272    1.0000 0.15690  0.20950  0.07760  Biso   1.000  C
  C1273    1.0000 0.23110  0.29710  0.14810  Biso   1.000  C
  C1274    1.0000 0.12720  0.18050  0.07560  Biso   1.000  C
  C1275    1.0000 0.16815  0.69494  0.64269  Biso   1.000  C
  C1276    1.0000 0.16113  0.72484  0.61618  Biso   1.000  C
  C1277    1.0000 0.11500  0.81480  0.56300  Biso   1.000  C
  C1278    1.0000 0.13290  0.78400  0.58150  Biso   1.000  C
  C1279    1.0000 0.16220  0.76800  0.57160  Biso   1.000  C
  C1280    1.0000 0.11870  0.81950  0.52710  Biso   1.000  C
  C1281    1.0000 0.10000  0.84220  0.51020  Biso   1.000  C
  C1282    1.0000 0.17450  0.74020  0.58740  Biso   1.000  C
  O92      1.0000 0.06680  0.89880  0.47590  Biso   1.000  O
  C1283    1.0000 0.06300  0.88860  0.50530  Biso   1.000  C
  C1284    1.0000 0.07900  0.86810  0.52490  Biso   1.000  C
  C1285    1.0000 0.19280  0.75290  0.61350  Biso   1.000  C
  C1286    1.0000 0.15690  0.70950  0.57760  Biso   1.000  C
  C1287    1.0000 0.23110  0.79710  0.64810  Biso   1.000  C
  C1288    1.0000 0.12720  0.68050  0.57560  Biso   1.000  C
  C1289    1.0000 0.66815  0.80506  0.35731  Biso   1.000  C
  C1290    1.0000 0.66113  0.77516  0.38382  Biso   1.000  C
  C1291    1.0000 0.61500  0.68520  0.43700  Biso   1.000  C
  C1292    1.0000 0.63290  0.71600  0.41850  Biso   1.000  C
  C1293    1.0000 0.66220  0.73200  0.42840  Biso   1.000  C
  C1294    1.0000 0.61870  0.68050  0.47290  Biso   1.000  C
  C1295    1.0000 0.60000  0.65780  0.48980  Biso   1.000  C
  C1296    1.0000 0.67450  0.75980  0.41260  Biso   1.000  C
  O93      1.0000 0.56680  0.60120  0.52410  Biso   1.000  O
  C1297    1.0000 0.56300  0.61140  0.49470  Biso   1.000  C
  C1298    1.0000 0.57900  0.63190  0.47510  Biso   1.000  C
  C1299    1.0000 0.69280  0.74710  0.38650  Biso   1.000  C
  C1300    1.0000 0.65690  0.79050  0.42240  Biso   1.000  C
  C1301    1.0000 0.73110  0.70290  0.35190  Biso   1.000  C
  C1302    1.0000 0.62720  0.81950  0.42440  Biso   1.000  C
  C1303    1.0000 0.66815  0.30506  0.85731  Biso   1.000  C
  C1304    1.0000 0.66113  0.27516  0.88382  Biso   1.000  C
  C1305    1.0000 0.61500  0.18520  0.93700  Biso   1.000  C
  C1306    1.0000 0.63290  0.21600  0.91850  Biso   1.000  C
  C1307    1.0000 0.66220  0.23200  0.92840  Biso   1.000  C
  C1308    1.0000 0.61870  0.18050  0.97290  Biso   1.000  C
  C1309    1.0000 0.60000  0.15780  0.98980  Biso   1.000  C
  C1310    1.0000 0.67450  0.25980  0.91260  Biso   1.000  C
  O94      1.0000 0.56680  0.10120  0.02410  Biso   1.000  O
  C1311    1.0000 0.56300  0.11140  0.99470  Biso   1.000  C
  C1312    1.0000 0.57900  0.13190  0.97510  Biso   1.000  C
  C1313    1.0000 0.69280  0.24710  0.88650  Biso   1.000  C
  C1314    1.0000 0.65690  0.29050  0.92240  Biso   1.000  C
  C1315    1.0000 0.73110  0.20290  0.85190  Biso   1.000  C
  C1316    1.0000 0.62720  0.31950  0.92440  Biso   1.000  C
  C1317    1.0000 0.16815  0.80506  0.85731  Biso   1.000  C
  C1318    1.0000 0.16113  0.77516  0.88382  Biso   1.000  C
  C1319    1.0000 0.11500  0.68520  0.93700  Biso   1.000  C
  C1320    1.0000 0.13290  0.71600  0.91850  Biso   1.000  C
  C1321    1.0000 0.16220  0.73200  0.92840  Biso   1.000  C
  C1322    1.0000 0.11870  0.68050  0.97290  Biso   1.000  C
  C1323    1.0000 0.10000  0.65780  0.98980  Biso   1.000  C
  C1324    1.0000 0.17450  0.75980  0.91260  Biso   1.000  C
  O95      1.0000 0.06680  0.60120  0.02410  Biso   1.000  O
  C1325    1.0000 0.06300  0.61140  0.99470  Biso   1.000  C
  C1326    1.0000 0.07900  0.63190  0.97510  Biso   1.000  C
  C1327    1.0000 0.19280  0.74710  0.88650  Biso   1.000  C
  C1328    1.0000 0.15690  0.79050  0.92240  Biso   1.000  C
  C1329    1.0000 0.23110  0.70290  0.85190  Biso   1.000  C
  C1330    1.0000 0.12720  0.81950  0.92440  Biso   1.000  C
  C1331    1.0000 0.16815  0.30506  0.35731  Biso   1.000  C
  C1332    1.0000 0.16113  0.27516  0.38382  Biso   1.000  C
  C1333    1.0000 0.11500  0.18520  0.43700  Biso   1.000  C
  C1334    1.0000 0.13290  0.21600  0.41850  Biso   1.000  C
  C1335    1.0000 0.16220  0.23200  0.42840  Biso   1.000  C
  C1336    1.0000 0.11870  0.18050  0.47290  Biso   1.000  C
  C1337    1.0000 0.10000  0.15780  0.48980  Biso   1.000  C
  C1338    1.0000 0.17450  0.25980  0.41260  Biso   1.000  C
  O96      1.0000 0.06680  0.10120  0.52410  Biso   1.000  O
  C1339    1.0000 0.06300  0.11140  0.49470  Biso   1.000  C
  C1340    1.0000 0.07900  0.13190  0.47510  Biso   1.000  C
  C1341    1.0000 0.19280  0.24710  0.38650  Biso   1.000  C
  C1342    1.0000 0.15690  0.29050  0.42240  Biso   1.000  C
  C1343    1.0000 0.23110  0.20290  0.35190  Biso   1.000  C
  C1344    1.0000 0.12720  0.31950  0.42440  Biso   1.000  C
  Zn1      1.0000 0.55983  0.44017  0.44017  Biso   1.000  Zn
  O97      1.0000 0.53050  0.46950  0.46950  Biso   1.000  O
  Zn2      1.0000 0.55983  0.94017  0.94017  Biso   1.000  Zn
  O98      1.0000 0.53050  0.96950  0.96950  Biso   1.000  O
  Zn3      1.0000 0.05983  0.44017  0.94017  Biso   1.000  Zn
  O99      1.0000 0.03050  0.46950  0.96950  Biso   1.000  O
  Zn4      1.0000 0.05983  0.94017  0.44017  Biso   1.000  Zn
  O100     1.0000 0.03050  0.96950  0.46950  Biso   1.000  O
  Zn5      1.0000 0.44017  0.55983  0.44017  Biso   1.000  Zn
  O101     1.0000 0.46950  0.53050  0.46950  Biso   1.000  O
  Zn6      1.0000 0.44017  0.05983  0.94017  Biso   1.000  Zn
  O102     1.0000 0.46950  0.03050  0.96950  Biso   1.000  O
  Zn7      1.0000 0.94017  0.55983  0.94017  Biso   1.000  Zn
  O103     1.0000 0.96950  0.53050  0.96950  Biso   1.000  O
  Zn8      1.0000 0.94017  0.05983  0.44017  Biso   1.000  Zn
  O104     1.0000 0.96950  0.03050  0.46950  Biso   1.000  O
  Zn9      1.0000 0.44017  0.44017  0.55983  Biso   1.000  Zn
  O105     1.0000 0.46950  0.46950  0.53050  Biso   1.000  O
  Zn10     1.0000 0.44017  0.94017  0.05983  Biso   1.000  Zn
  O106     1.0000 0.46950  0.96950  0.03050  Biso   1.000  O
  Zn11     1.0000 0.94017  0.44017  0.05983  Biso   1.000  Zn
  O107     1.0000 0.96950  0.46950  0.03050  Biso   1.000  O
  Zn12     1.0000 0.94017  0.94017  0.55983  Biso   1.000  Zn
  O108     1.0000 0.96950  0.96950  0.53050  Biso   1.000  O
  Zn13     1.0000 0.55983  0.55983  0.55983  Biso   1.000  Zn
  O109     1.0000 0.53050  0.53050  0.53050  Biso   1.000  O
  Zn14     1.0000 0.55983  0.05983  0.05983  Biso   1.000  Zn
  O110     1.0000 0.53050  0.03050  0.03050  Biso   1.000  O
  Zn15     1.0000 0.05983  0.55983  0.05983  Biso   1.000  Zn
  O111     1.0000 0.03050  0.53050  0.03050  Biso   1.000  O
  Zn16     1.0000 0.05983  0.05983  0.55983  Biso   1.000  Zn
  O112     1.0000 0.03050  0.03050  0.53050  Biso   1.000  O
  Zn17     1.0000 0.55937  0.50000  0.50000  Biso   1.000  Zn
  Zn18     1.0000 0.55937  0.00000  0.00000  Biso   1.000  Zn
  Zn19     1.0000 0.05937  0.50000  0.00000  Biso   1.000  Zn
  Zn20     1.0000 0.05937  0.00000  0.50000  Biso   1.000  Zn
  Zn21     1.0000 0.44063  0.50000  0.50000  Biso   1.000  Zn
  Zn22     1.0000 0.44063  0.00000  0.00000  Biso   1.000  Zn
  Zn23     1.0000 0.94063  0.50000  0.00000  Biso   1.000  Zn
  Zn24     1.0000 0.94063  0.00000  0.50000  Biso   1.000  Zn
  Zn25     1.0000 0.50000  0.55937  0.50000  Biso   1.000  Zn
  Zn26     1.0000 0.50000  0.05937  0.00000  Biso   1.000  Zn
  Zn27     1.0000 0.00000  0.55937  0.00000  Biso   1.000  Zn
  Zn28     1.0000 0.00000  0.05937  0.50000  Biso   1.000  Zn
  Zn29     1.0000 0.50000  0.44063  0.50000  Biso   1.000  Zn
  Zn30     1.0000 0.50000  0.94063  0.00000  Biso   1.000  Zn
  Zn31     1.0000 0.00000  0.44063  0.00000  Biso   1.000  Zn
  Zn32     1.0000 0.00000  0.94063  0.50000  Biso   1.000  Zn
  Zn33     1.0000 0.50000  0.50000  0.55937  Biso   1.000  Zn
  Zn34     1.0000 0.50000  0.00000  0.05937  Biso   1.000  Zn
  Zn35     1.0000 0.00000  0.50000  0.05937  Biso   1.000  Zn
  Zn36     1.0000 0.00000  0.00000  0.55937  Biso   1.000  Zn
  Zn37     1.0000 0.50000  0.50000  0.44063  Biso   1.000  Zn
  Zn38     1.0000 0.50000  0.00000  0.94063  Biso   1.000  Zn
  Zn39     1.0000 0.00000  0.50000  0.94063  Biso   1.000  Zn
  Zn40     1.0000 0.00000  0.00000  0.44063  Biso   1.000  Zn
  C1345    1.0000 0.38634  0.26970  0.38634  Biso   1.000  C
  C1346    1.0000 0.37038  0.24130  0.37038  Biso   1.000  C
  C1347    1.0000 0.41420  0.33920  0.41420  Biso   1.000  C
  C1348    1.0000 0.43190  0.36220  0.43190  Biso   1.000  C
  C1349    1.0000 0.38634  0.76970  0.88634  Biso   1.000  C
  C1350    1.0000 0.37038  0.74130  0.87038  Biso   1.000  C
  C1351    1.0000 0.41420  0.83920  0.91420  Biso   1.000  C
  C1352    1.0000 0.43190  0.86220  0.93190  Biso   1.000  C
  C1353    1.0000 0.88634  0.26970  0.88634  Biso   1.000  C
  C1354    1.0000 0.87038  0.24130  0.87038  Biso   1.000  C
  C1355    1.0000 0.91420  0.33920  0.91420  Biso   1.000  C
  C1356    1.0000 0.93190  0.36220  0.93190  Biso   1.000  C
  C1357    1.0000 0.88634  0.76970  0.38634  Biso   1.000  C
  C1358    1.0000 0.87038  0.74130  0.37038  Biso   1.000  C
  C1359    1.0000 0.91420  0.83920  0.41420  Biso   1.000  C
  C1360    1.0000 0.93190  0.86220  0.43190  Biso   1.000  C
  C1361    1.0000 0.61366  0.73030  0.38634  Biso   1.000  C
  C1362    1.0000 0.62962  0.75870  0.37038  Biso   1.000  C
  C1363    1.0000 0.58580  0.66080  0.41420  Biso   1.000  C
  C1364    1.0000 0.56810  0.63780  0.43190  Biso   1.000  C
  C1365    1.0000 0.61366  0.23030  0.88634  Biso   1.000  C
  C1366    1.0000 0.62962  0.25870  0.87038  Biso   1.000  C
  C1367    1.0000 0.58580  0.16080  0.91420  Biso   1.000  C
  C1368    1.0000 0.56810  0.13780  0.93190  Biso   1.000  C
  C1369    1.0000 0.11366  0.73030  0.88634  Biso   1.000  C
  C1370    1.0000 0.12962  0.75870  0.87038  Biso   1.000  C
  C1371    1.0000 0.08580  0.66080  0.91420  Biso   1.000  C
  C1372    1.0000 0.06810  0.63780  0.93190  Biso   1.000  C
  C1373    1.0000 0.11366  0.23030  0.38634  Biso   1.000  C
  C1374    1.0000 0.12962  0.25870  0.37038  Biso   1.000  C
  C1375    1.0000 0.08580  0.16080  0.41420  Biso   1.000  C
  C1376    1.0000 0.06810  0.13780  0.43190  Biso   1.000  C
  C1377    1.0000 0.61366  0.26970  0.61366  Biso   1.000  C
  C1378    1.0000 0.62962  0.24130  0.62962  Biso   1.000  C
  C1379    1.0000 0.58580  0.33920  0.58580  Biso   1.000  C
  C1380    1.0000 0.56810  0.36220  0.56810  Biso   1.000  C
  C1381    1.0000 0.61366  0.76970  0.11366  Biso   1.000  C
  C1382    1.0000 0.62962  0.74130  0.12962  Biso   1.000  C
  C1383    1.0000 0.58580  0.83920  0.08580  Biso   1.000  C
  C1384    1.0000 0.56810  0.86220  0.06810  Biso   1.000  C
  C1385    1.0000 0.11366  0.26970  0.11366  Biso   1.000  C
  C1386    1.0000 0.12962  0.24130  0.12962  Biso   1.000  C
  C1387    1.0000 0.08580  0.33920  0.08580  Biso   1.000  C
  C1388    1.0000 0.06810  0.36220  0.06810  Biso   1.000  C
  C1389    1.0000 0.11366  0.76970  0.61366  Biso   1.000  C
  C1390    1.0000 0.12962  0.74130  0.62962  Biso   1.000  C
  C1391    1.0000 0.08580  0.83920  0.58580  Biso   1.000  C
  C1392    1.0000 0.06810  0.86220  0.56810  Biso   1.000  C
  C1393    1.0000 0.38634  0.73030  0.61366  Biso   1.000  C
  C1394    1.0000 0.37038  0.75870  0.62962  Biso   1.000  C
  C1395    1.0000 0.41420  0.66080  0.58580  Biso   1.000  C
  C1396    1.0000 0.43190  0.63780  0.56810  Biso   1.000  C
  C1397    1.0000 0.38634  0.23030  0.11366  Biso   1.000  C
  C1398    1.0000 0.37038  0.25870  0.12962  Biso   1.000  C
  C1399    1.0000 0.41420  0.16080  0.08580  Biso   1.000  C
  C1400    1.0000 0.43190  0.13780  0.06810  Biso   1.000  C
  C1401    1.0000 0.88634  0.73030  0.11366  Biso   1.000  C
  C1402    1.0000 0.87038  0.75870  0.12962  Biso   1.000  C
  C1403    1.0000 0.91420  0.66080  0.08580  Biso   1.000  C
  C1404    1.0000 0.93190  0.63780  0.06810  Biso   1.000  C
  C1405    1.0000 0.88634  0.23030  0.61366  Biso   1.000  C
  C1406    1.0000 0.87038  0.25870  0.62962  Biso   1.000  C
  C1407    1.0000 0.91420  0.16080  0.58580  Biso   1.000  C
  C1408    1.0000 0.93190  0.13780  0.56810  Biso   1.000  C
  C1409    1.0000 0.38634  0.38634  0.26970  Biso   1.000  C
  C1410    1.0000 0.37038  0.37038  0.24130  Biso   1.000  C
  C1411    1.0000 0.41420  0.41420  0.33920  Biso   1.000  C
  C1412    1.0000 0.43190  0.43190  0.36220  Biso   1.000  C
  C1413    1.0000 0.38634  0.88634  0.76970  Biso   1.000  C
  C1414    1.0000 0.37038  0.87038  0.74130  Biso   1.000  C
  C1415    1.0000 0.41420  0.91420  0.83920  Biso   1.000  C
  C1416    1.0000 0.43190  0.93190  0.86220  Biso   1.000  C
  C1417    1.0000 0.88634  0.38634  0.76970  Biso   1.000  C
  C1418    1.0000 0.87038  0.37038  0.74130  Biso   1.000  C
  C1419    1.0000 0.91420  0.41420  0.83920  Biso   1.000  C
  C1420    1.0000 0.93190  0.43190  0.86220  Biso   1.000  C
  C1421    1.0000 0.88634  0.88634  0.26970  Biso   1.000  C
  C1422    1.0000 0.87038  0.87038  0.24130  Biso   1.000  C
  C1423    1.0000 0.91420  0.91420  0.33920  Biso   1.000  C
  C1424    1.0000 0.93190  0.93190  0.36220  Biso   1.000  C
  C1425    1.0000 0.38634  0.61366  0.73030  Biso   1.000  C
  C1426    1.0000 0.37038  0.62962  0.75870  Biso   1.000  C
  C1427    1.0000 0.41420  0.58580  0.66080  Biso   1.000  C
  C1428    1.0000 0.43190  0.56810  0.63780  Biso   1.000  C
  C1429    1.0000 0.38634  0.11366  0.23030  Biso   1.000  C
  C1430    1.0000 0.37038  0.12962  0.25870  Biso   1.000  C
  C1431    1.0000 0.41420  0.08580  0.16080  Biso   1.000  C
  C1432    1.0000 0.43190  0.06810  0.13780  Biso   1.000  C
  C1433    1.0000 0.88634  0.61366  0.23030  Biso   1.000  C
  C1434    1.0000 0.87038  0.62962  0.25870  Biso   1.000  C
  C1435    1.0000 0.91420  0.58580  0.16080  Biso   1.000  C
  C1436    1.0000 0.93190  0.56810  0.13780  Biso   1.000  C
  C1437    1.0000 0.88634  0.11366  0.73030  Biso   1.000  C
  C1438    1.0000 0.87038  0.12962  0.75870  Biso   1.000  C
  C1439    1.0000 0.91420  0.08580  0.66080  Biso   1.000  C
  C1440    1.0000 0.93190  0.06810  0.63780  Biso   1.000  C
  C1441    1.0000 0.61366  0.61366  0.26970  Biso   1.000  C
  C1442    1.0000 0.62962  0.62962  0.24130  Biso   1.000  C
  C1443    1.0000 0.58580  0.58580  0.33920  Biso   1.000  C
  C1444    1.0000 0.56810  0.56810  0.36220  Biso   1.000  C
  C1445    1.0000 0.61366  0.11366  0.76970  Biso   1.000  C
  C1446    1.0000 0.62962  0.12962  0.74130  Biso   1.000  C
  C1447    1.0000 0.58580  0.08580  0.83920  Biso   1.000  C
  C1448    1.0000 0.56810  0.06810  0.86220  Biso   1.000  C
  C1449    1.0000 0.11366  0.61366  0.76970  Biso   1.000  C
  C1450    1.0000 0.12962  0.62962  0.74130  Biso   1.000  C
  C1451    1.0000 0.08580  0.58580  0.83920  Biso   1.000  C
  C1452    1.0000 0.06810  0.56810  0.86220  Biso   1.000  C
  C1453    1.0000 0.11366  0.11366  0.26970  Biso   1.000  C
  C1454    1.0000 0.12962  0.12962  0.24130  Biso   1.000  C
  C1455    1.0000 0.08580  0.08580  0.33920  Biso   1.000  C
  C1456    1.0000 0.06810  0.06810  0.36220  Biso   1.000  C
  C1457    1.0000 0.61366  0.38634  0.73030  Biso   1.000  C
  C1458    1.0000 0.62962  0.37038  0.75870  Biso   1.000  C
  C1459    1.0000 0.58580  0.41420  0.66080  Biso   1.000  C
  C1460    1.0000 0.56810  0.43190  0.63780  Biso   1.000  C
  C1461    1.0000 0.61366  0.88634  0.23030  Biso   1.000  C
  C1462    1.0000 0.62962  0.87038  0.25870  Biso   1.000  C
  C1463    1.0000 0.58580  0.91420  0.16080  Biso   1.000  C
  C1464    1.0000 0.56810  0.93190  0.13780  Biso   1.000  C
  C1465    1.0000 0.11366  0.38634  0.23030  Biso   1.000  C
  C1466    1.0000 0.12962  0.37038  0.25870  Biso   1.000  C
  C1467    1.0000 0.08580  0.41420  0.16080  Biso   1.000  C
  C1468    1.0000 0.06810  0.43190  0.13780  Biso   1.000  C
  C1469    1.0000 0.11366  0.88634  0.73030  Biso   1.000  C
  C1470    1.0000 0.12962  0.87038  0.75870  Biso   1.000  C
  C1471    1.0000 0.08580  0.91420  0.66080  Biso   1.000  C
  C1472    1.0000 0.06810  0.93190  0.63780  Biso   1.000  C
  C1473    1.0000 0.26970  0.38634  0.38634  Biso   1.000  C
  C1474    1.0000 0.24130  0.37038  0.37038  Biso   1.000  C
  C1475    1.0000 0.33920  0.41420  0.41420  Biso   1.000  C
  C1476    1.0000 0.36220  0.43190  0.43190  Biso   1.000  C
  C1477    1.0000 0.26970  0.88634  0.88634  Biso   1.000  C
  C1478    1.0000 0.24130  0.87038  0.87038  Biso   1.000  C
  C1479    1.0000 0.33920  0.91420  0.91420  Biso   1.000  C
  C1480    1.0000 0.36220  0.93190  0.93190  Biso   1.000  C
  C1481    1.0000 0.76970  0.38634  0.88634  Biso   1.000  C
  C1482    1.0000 0.74130  0.37038  0.87038  Biso   1.000  C
  C1483    1.0000 0.83920  0.41420  0.91420  Biso   1.000  C
  C1484    1.0000 0.86220  0.43190  0.93190  Biso   1.000  C
  C1485    1.0000 0.76970  0.88634  0.38634  Biso   1.000  C
  C1486    1.0000 0.74130  0.87038  0.37038  Biso   1.000  C
  C1487    1.0000 0.83920  0.91420  0.41420  Biso   1.000  C
  C1488    1.0000 0.86220  0.93190  0.43190  Biso   1.000  C
  C1489    1.0000 0.73030  0.38634  0.61366  Biso   1.000  C
  C1490    1.0000 0.75870  0.37038  0.62962  Biso   1.000  C
  C1491    1.0000 0.66080  0.41420  0.58580  Biso   1.000  C
  C1492    1.0000 0.63780  0.43190  0.56810  Biso   1.000  C
  C1493    1.0000 0.73030  0.88634  0.11366  Biso   1.000  C
  C1494    1.0000 0.75870  0.87038  0.12962  Biso   1.000  C
  C1495    1.0000 0.66080  0.91420  0.08580  Biso   1.000  C
  C1496    1.0000 0.63780  0.93190  0.06810  Biso   1.000  C
  C1497    1.0000 0.23030  0.38634  0.11366  Biso   1.000  C
  C1498    1.0000 0.25870  0.37038  0.12962  Biso   1.000  C
  C1499    1.0000 0.16080  0.41420  0.08580  Biso   1.000  C
  C1500    1.0000 0.13780  0.43190  0.06810  Biso   1.000  C
  C1501    1.0000 0.23030  0.88634  0.61366  Biso   1.000  C
  C1502    1.0000 0.25870  0.87038  0.62962  Biso   1.000  C
  C1503    1.0000 0.16080  0.91420  0.58580  Biso   1.000  C
  C1504    1.0000 0.13780  0.93190  0.56810  Biso   1.000  C
  C1505    1.0000 0.26970  0.61366  0.61366  Biso   1.000  C
  C1506    1.0000 0.24130  0.62962  0.62962  Biso   1.000  C
  C1507    1.0000 0.33920  0.58580  0.58580  Biso   1.000  C
  C1508    1.0000 0.36220  0.56810  0.56810  Biso   1.000  C
  C1509    1.0000 0.26970  0.11366  0.11366  Biso   1.000  C
  C1510    1.0000 0.24130  0.12962  0.12962  Biso   1.000  C
  C1511    1.0000 0.33920  0.08580  0.08580  Biso   1.000  C
  C1512    1.0000 0.36220  0.06810  0.06810  Biso   1.000  C
  C1513    1.0000 0.76970  0.61366  0.11366  Biso   1.000  C
  C1514    1.0000 0.74130  0.62962  0.12962  Biso   1.000  C
  C1515    1.0000 0.83920  0.58580  0.08580  Biso   1.000  C
  C1516    1.0000 0.86220  0.56810  0.06810  Biso   1.000  C
  C1517    1.0000 0.76970  0.11366  0.61366  Biso   1.000  C
  C1518    1.0000 0.74130  0.12962  0.62962  Biso   1.000  C
  C1519    1.0000 0.83920  0.08580  0.58580  Biso   1.000  C
  C1520    1.0000 0.86220  0.06810  0.56810  Biso   1.000  C
  C1521    1.0000 0.73030  0.61366  0.38634  Biso   1.000  C
  C1522    1.0000 0.75870  0.62962  0.37038  Biso   1.000  C
  C1523    1.0000 0.66080  0.58580  0.41420  Biso   1.000  C
  C1524    1.0000 0.63780  0.56810  0.43190  Biso   1.000  C
  C1525    1.0000 0.73030  0.11366  0.88634  Biso   1.000  C
  C1526    1.0000 0.75870  0.12962  0.87038  Biso   1.000  C
  C1527    1.0000 0.66080  0.08580  0.91420  Biso   1.000  C
  C1528    1.0000 0.63780  0.06810  0.93190  Biso   1.000  C
  C1529    1.0000 0.23030  0.61366  0.88634  Biso   1.000  C
  C1530    1.0000 0.25870  0.62962  0.87038  Biso   1.000  C
  C1531    1.0000 0.16080  0.58580  0.91420  Biso   1.000  C
  C1532    1.0000 0.13780  0.56810  0.93190  Biso   1.000  C
  C1533    1.0000 0.23030  0.11366  0.38634  Biso   1.000  C
  C1534    1.0000 0.25870  0.12962  0.37038  Biso   1.000  C
  C1535    1.0000 0.16080  0.08580  0.41420  Biso   1.000  C
  C1536    1.0000 0.13780  0.06810  0.43190  Biso   1.000  C
