data_image0
_cell_length_a       47.02
_cell_length_b       10.77
_cell_length_c       23.78
_cell_angle_alpha    90
_cell_angle_beta     94.87
_cell_angle_gamma    90

_symmetry_space_group_name_H-M    "P 1"
_symmetry_int_tables_number       1

loop_
  _symmetry_equiv_pos_as_xyz
  'x, y, z'

loop_
  _atom_site_label
  _atom_site_occupancy
  _atom_site_fract_x
  _atom_site_fract_y
  _atom_site_fract_z
  _atom_site_thermal_displace_type
  _atom_site_B_iso_or_equiv
  _atom_site_type_symbol
  Co1      1.0000 0.78453  0.34792  0.42515  Biso   1.000  Co
  Co2      1.0000 0.49162  0.16544  0.43025  Biso   1.000  Co
  O1       1.0000 0.75190  0.20210  0.41890  Biso   1.000  O
  O2       1.0000 0.98184  0.18490  0.54310  Biso   1.000  O
  O3       1.0000 0.52262  0.12740  0.37690  Biso   1.000  O
  O4       1.0000 0.91870  0.00040  0.75720  Biso   1.000  O
  O5       1.0000 0.51211  0.94390  0.33600  Biso   1.000  O
  O6       1.0000 0.90361  0.79450  0.60810  Biso   1.000  O
  O7       1.0000 0.87741  0.99720  0.37730  Biso   1.000  O
  O8       1.0000 0.74668  0.36640  0.36450  Biso   1.000  O
  O9       1.0000 0.85324  0.90940  0.74240  Biso   1.000  O
  N1       1.0000 0.80606  0.73310  0.85830  Biso   1.000  N
  O10      1.0000 0.87379  0.08560  0.59980  Biso   1.000  O
  O11      1.0000 0.80834  0.50580  0.41820  Biso   1.000  O
  O12      1.0000 0.63826  0.05690  0.26060  Biso   1.000  O
  N2       1.0000 0.96259  0.68890  0.49510  Biso   1.000  N
  O13      1.0000 0.97147  0.36010  0.50020  Biso   1.000  O
  C1       1.0000 0.66182  0.10680  0.29250  Biso   1.000  C
  C2       1.0000 0.86233  0.23280  0.52930  Biso   1.000  C
  H1       1.0000 0.88120  0.25950  0.53250  Biso   1.000  H
  O14      1.0000 0.79940  0.60960  0.49620  Biso   1.000  O
  C3       1.0000 0.82497  0.10410  0.55680  Biso   1.000  C
  H2       1.0000 0.81830  0.04040  0.57850  Biso   1.000  H
  C4       1.0000 0.91191  0.00200  0.45930  Biso   1.000  C
  H3       1.0000 0.90720  0.92160  0.46930  Biso   1.000  H
  C5       1.0000 0.67610  0.04370  0.33620  Biso   1.000  C
  H4       1.0000 0.66950  0.96650  0.34680  Biso   1.000  H
  N3       1.0000 0.96597  0.22850  0.87110  Biso   1.000  N
  C6       1.0000 0.88743  0.94250  0.67630  Biso   1.000  C
  C7       1.0000 0.52855  0.03220  0.34730  Biso   1.000  C
  N4       1.0000 0.81458  0.25840  0.48430  Biso   1.000  N
  C8       1.0000 0.89752  0.05900  0.41330  Biso   1.000  C
  C9       1.0000 0.67210  0.22170  0.27690  Biso   1.000  C
  H5       1.0000 0.66250  0.26550  0.24740  Biso   1.000  H
  C10      1.0000 0.90351  0.17940  0.39910  Biso   1.000  C
  H6       1.0000 0.89350  0.21750  0.36840  Biso   1.000  H
  C11      1.0000 0.91490  0.68280  0.52730  Biso   1.000  C
  H7       1.0000 0.89620  0.65370  0.52200  Biso   1.000  H
  C12      1.0000 0.82350  0.66780  0.82630  Biso   1.000  C
  H8       1.0000 0.82480  0.58240  0.83180  Biso   1.000  H
  C13      1.0000 0.89941  0.05240  0.71270  Biso   1.000  C
  H9       1.0000 0.90950  0.10970  0.69000  Biso   1.000  H
  H10      1.0000 0.88400  0.09680  0.72860  Biso   1.000  H
  C14      1.0000 0.85338  0.13590  0.56330  Biso   1.000  C
  C15      1.0000 0.93361  0.07990  0.79310  Biso   1.000  C
  C16      1.0000 0.70090  0.09490  0.36520  Biso   1.000  C
  H11      1.0000 0.71030  0.05200  0.39520  Biso   1.000  H
  C17      1.0000 0.55843  0.03540  0.32570  Biso   1.000  C
  C18      1.0000 0.93520  0.65380  0.48980  Biso   1.000  C
  H12      1.0000 0.92920  0.60610  0.45840  Biso   1.000  H
  C19      1.0000 0.59100  0.97700  0.25770  Biso   1.000  C
  H13      1.0000 0.59470  0.93400  0.22520  Biso   1.000  H
  C20      1.0000 0.93259  0.20740  0.78830  Biso   1.000  C
  H14      1.0000 0.92140  0.24620  0.75940  Biso   1.000  H
  C21      1.0000 0.96548  0.24740  0.50870  Biso   1.000  C
  C22      1.0000 0.73765  0.26290  0.37980  Biso   1.000  C
  C23      1.0000 0.84237  0.28770  0.49070  Biso   1.000  C
  H15      1.0000 0.84880  0.34950  0.46760  Biso   1.000  H
  C24      1.0000 0.86339  0.98500  0.63340  Biso   1.000  C
  H16      1.0000 0.85710  0.91630  0.60900  Biso   1.000  H
  H17      1.0000 0.84730  0.01330  0.65280  Biso   1.000  H
  C25      1.0000 0.86280  0.89700  0.39860  Biso   1.000  C
  C26      1.0000 0.94906  0.27550  0.82870  Biso   1.000  C
  H18      1.0000 0.94820  0.36160  0.82580  Biso   1.000  H
  C27      1.0000 0.83010  0.81650  0.46050  Biso   1.000  C
  H19      1.0000 0.81920  0.82830  0.49090  Biso   1.000  H
  C28      1.0000 0.83925  0.71910  0.78680  Biso   1.000  C
  H20      1.0000 0.85070  0.66980  0.76590  Biso   1.000  H
  C29      1.0000 0.84640  0.91310  0.44200  Biso   1.000  C
  H21      1.0000 0.84590  0.99010  0.45960  Biso   1.000  H
  C30      1.0000 0.93354  0.06590  0.49040  Biso   1.000  C
  H22      1.0000 0.94330  0.02750  0.52140  Biso   1.000  H
  C31      1.0000 0.92419  0.75860  0.57380  Biso   1.000  C
  C32      1.0000 0.56397  0.96870  0.27790  Biso   1.000  C
  H23      1.0000 0.54990  0.91910  0.25950  Biso   1.000  H
  C33      1.0000 0.60688  0.11210  0.33450  Biso   1.000  C
  H24      1.0000 0.62120  0.15760  0.35430  Biso   1.000  H
  C34      1.0000 0.57997  0.10610  0.35270  Biso   1.000  C
  H25      1.0000 0.57610  0.15150  0.38440  Biso   1.000  H
  C35      1.0000 0.83010  0.70060  0.43330  Biso   1.000  C
  C36      1.0000 0.92478  0.24310  0.43140  Biso   1.000  C
  H26      1.0000 0.92830  0.32570  0.42290  Biso   1.000  H
  C37      1.0000 0.94099  0.18680  0.47610  Biso   1.000  C
  C38      1.0000 0.80460  0.85410  0.84800  Biso   1.000  C
  H27      1.0000 0.79260  0.90160  0.86860  Biso   1.000  H
  C39      1.0000 0.87441  0.84570  0.71220  Biso   1.000  C
  H28      1.0000 0.86550  0.78050  0.68870  Biso   1.000  H
  H29      1.0000 0.88890  0.80890  0.73850  Biso   1.000  H
  C40      1.0000 0.80598  0.16630  0.51780  Biso   1.000  C
  H30      1.0000 0.78680  0.14360  0.51480  Biso   1.000  H
  C41      1.0000 0.61212  0.04790  0.28520  Biso   1.000  C
  C42      1.0000 0.91320  0.88980  0.64890  Biso   1.000  C
  H31      1.0000 0.92280  0.95580  0.63020  Biso   1.000  H
  H32      1.0000 0.92670  0.85430  0.67770  Biso   1.000  H
  C43      1.0000 0.95100  0.02800  0.83570  Biso   1.000  C
  H33      1.0000 0.95240  0.94210  0.83900  Biso   1.000  H
  C44      1.0000 0.86360  0.78460  0.37230  Biso   1.000  C
  H34      1.0000 0.87520  0.77350  0.34290  Biso   1.000  H
  C45      1.0000 0.95297  0.79190  0.58170  Biso   1.000  C
  H35      1.0000 0.95990  0.83740  0.61310  Biso   1.000  H
  C46      1.0000 0.81960  0.91380  0.80880  Biso   1.000  C
  H36      1.0000 0.81740  0.99870  0.80290  Biso   1.000  H
  C47      1.0000 0.71110  0.20760  0.34910  Biso   1.000  C
  C48      1.0000 0.84731  0.68780  0.38930  Biso   1.000  C
  H37      1.0000 0.84790  0.61190  0.37080  Biso   1.000  H
  C49      1.0000 0.83794  0.84560  0.77850  Biso   1.000  C
  C50      1.0000 0.69636  0.27140  0.30470  Biso   1.000  C
  H38      1.0000 0.70300  0.34830  0.29380  Biso   1.000  H
  C51      1.0000 0.81090  0.59850  0.45100  Biso   1.000  C
  C52      1.0000 0.97050  0.75560  0.54190  Biso   1.000  C
  H39      1.0000 0.98960  0.77880  0.54750  Biso   1.000  H
  C53      1.0000 0.96640  0.10430  0.87400  Biso   1.000  C
  H40      1.0000 0.97770  0.06730  0.90340  Biso   1.000  H
  Co3      1.0000 0.28453  0.84792  0.42515  Biso   1.000  Co
  Co4      1.0000 0.99162  0.66544  0.43025  Biso   1.000  Co
  O15      1.0000 0.25190  0.70210  0.41890  Biso   1.000  O
  O16      1.0000 0.48184  0.68490  0.54310  Biso   1.000  O
  O17      1.0000 0.02262  0.62740  0.37690  Biso   1.000  O
  O18      1.0000 0.41870  0.50040  0.75720  Biso   1.000  O
  O19      1.0000 0.01211  0.44390  0.33600  Biso   1.000  O
  O20      1.0000 0.40361  0.29450  0.60810  Biso   1.000  O
  O21      1.0000 0.37741  0.49720  0.37730  Biso   1.000  O
  O22      1.0000 0.24668  0.86640  0.36450  Biso   1.000  O
  O23      1.0000 0.35324  0.40940  0.74240  Biso   1.000  O
  N5       1.0000 0.30606  0.23310  0.85830  Biso   1.000  N
  O24      1.0000 0.37379  0.58560  0.59980  Biso   1.000  O
  O25      1.0000 0.30834  0.00580  0.41820  Biso   1.000  O
  O26      1.0000 0.13826  0.55690  0.26060  Biso   1.000  O
  N6       1.0000 0.46259  0.18890  0.49510  Biso   1.000  N
  O27      1.0000 0.47147  0.86010  0.50020  Biso   1.000  O
  C54      1.0000 0.16182  0.60680  0.29250  Biso   1.000  C
  C55      1.0000 0.36233  0.73280  0.52930  Biso   1.000  C
  H41      1.0000 0.38120  0.75950  0.53250  Biso   1.000  H
  O28      1.0000 0.29940  0.10960  0.49620  Biso   1.000  O
  C56      1.0000 0.32497  0.60410  0.55680  Biso   1.000  C
  H42      1.0000 0.31830  0.54040  0.57850  Biso   1.000  H
  C57      1.0000 0.41191  0.50200  0.45930  Biso   1.000  C
  H43      1.0000 0.40720  0.42160  0.46930  Biso   1.000  H
  C58      1.0000 0.17610  0.54370  0.33620  Biso   1.000  C
  H44      1.0000 0.16950  0.46650  0.34680  Biso   1.000  H
  N7       1.0000 0.46597  0.72850  0.87110  Biso   1.000  N
  C59      1.0000 0.38743  0.44250  0.67630  Biso   1.000  C
  C60      1.0000 0.02855  0.53220  0.34730  Biso   1.000  C
  N8       1.0000 0.31458  0.75840  0.48430  Biso   1.000  N
  C61      1.0000 0.39752  0.55900  0.41330  Biso   1.000  C
  C62      1.0000 0.17210  0.72170  0.27690  Biso   1.000  C
  H45      1.0000 0.16250  0.76550  0.24740  Biso   1.000  H
  C63      1.0000 0.40351  0.67940  0.39910  Biso   1.000  C
  H46      1.0000 0.39350  0.71750  0.36840  Biso   1.000  H
  C64      1.0000 0.41490  0.18280  0.52730  Biso   1.000  C
  H47      1.0000 0.39620  0.15370  0.52200  Biso   1.000  H
  C65      1.0000 0.32350  0.16780  0.82630  Biso   1.000  C
  H48      1.0000 0.32480  0.08240  0.83180  Biso   1.000  H
  C66      1.0000 0.39941  0.55240  0.71270  Biso   1.000  C
  H49      1.0000 0.40950  0.60970  0.69000  Biso   1.000  H
  H50      1.0000 0.38400  0.59680  0.72860  Biso   1.000  H
  C67      1.0000 0.35338  0.63590  0.56330  Biso   1.000  C
  C68      1.0000 0.43361  0.57990  0.79310  Biso   1.000  C
  C69      1.0000 0.20090  0.59490  0.36520  Biso   1.000  C
  H51      1.0000 0.21030  0.55200  0.39520  Biso   1.000  H
  C70      1.0000 0.05843  0.53540  0.32570  Biso   1.000  C
  C71      1.0000 0.43520  0.15380  0.48980  Biso   1.000  C
  H52      1.0000 0.42920  0.10610  0.45840  Biso   1.000  H
  C72      1.0000 0.09100  0.47700  0.25770  Biso   1.000  C
  H53      1.0000 0.09470  0.43400  0.22520  Biso   1.000  H
  C73      1.0000 0.43259  0.70740  0.78830  Biso   1.000  C
  H54      1.0000 0.42140  0.74620  0.75940  Biso   1.000  H
  C74      1.0000 0.46548  0.74740  0.50870  Biso   1.000  C
  C75      1.0000 0.23765  0.76290  0.37980  Biso   1.000  C
  C76      1.0000 0.34237  0.78770  0.49070  Biso   1.000  C
  H55      1.0000 0.34880  0.84950  0.46760  Biso   1.000  H
  C77      1.0000 0.36339  0.48500  0.63340  Biso   1.000  C
  H56      1.0000 0.35710  0.41630  0.60900  Biso   1.000  H
  H57      1.0000 0.34730  0.51330  0.65280  Biso   1.000  H
  C78      1.0000 0.36280  0.39700  0.39860  Biso   1.000  C
  C79      1.0000 0.44906  0.77550  0.82870  Biso   1.000  C
  H58      1.0000 0.44820  0.86160  0.82580  Biso   1.000  H
  C80      1.0000 0.33010  0.31650  0.46050  Biso   1.000  C
  H59      1.0000 0.31920  0.32830  0.49090  Biso   1.000  H
  C81      1.0000 0.33925  0.21910  0.78680  Biso   1.000  C
  H60      1.0000 0.35070  0.16980  0.76590  Biso   1.000  H
  C82      1.0000 0.34640  0.41310  0.44200  Biso   1.000  C
  H61      1.0000 0.34590  0.49010  0.45960  Biso   1.000  H
  C83      1.0000 0.43354  0.56590  0.49040  Biso   1.000  C
  H62      1.0000 0.44330  0.52750  0.52140  Biso   1.000  H
  C84      1.0000 0.42419  0.25860  0.57380  Biso   1.000  C
  C85      1.0000 0.06397  0.46870  0.27790  Biso   1.000  C
  H63      1.0000 0.04990  0.41910  0.25950  Biso   1.000  H
  C86      1.0000 0.10688  0.61210  0.33450  Biso   1.000  C
  H64      1.0000 0.12120  0.65760  0.35430  Biso   1.000  H
  C87      1.0000 0.07997  0.60610  0.35270  Biso   1.000  C
  H65      1.0000 0.07610  0.65150  0.38440  Biso   1.000  H
  C88      1.0000 0.33010  0.20060  0.43330  Biso   1.000  C
  C89      1.0000 0.42478  0.74310  0.43140  Biso   1.000  C
  H66      1.0000 0.42830  0.82570  0.42290  Biso   1.000  H
  C90      1.0000 0.44099  0.68680  0.47610  Biso   1.000  C
  C91      1.0000 0.30460  0.35410  0.84800  Biso   1.000  C
  H67      1.0000 0.29260  0.40160  0.86860  Biso   1.000  H
  C92      1.0000 0.37441  0.34570  0.71220  Biso   1.000  C
  H68      1.0000 0.36550  0.28050  0.68870  Biso   1.000  H
  H69      1.0000 0.38890  0.30890  0.73850  Biso   1.000  H
  C93      1.0000 0.30598  0.66630  0.51780  Biso   1.000  C
  H70      1.0000 0.28680  0.64360  0.51480  Biso   1.000  H
  C94      1.0000 0.11212  0.54790  0.28520  Biso   1.000  C
  C95      1.0000 0.41320  0.38980  0.64890  Biso   1.000  C
  H71      1.0000 0.42280  0.45580  0.63020  Biso   1.000  H
  H72      1.0000 0.42670  0.35430  0.67770  Biso   1.000  H
  C96      1.0000 0.45100  0.52800  0.83570  Biso   1.000  C
  H73      1.0000 0.45240  0.44210  0.83900  Biso   1.000  H
  C97      1.0000 0.36360  0.28460  0.37230  Biso   1.000  C
  H74      1.0000 0.37520  0.27350  0.34290  Biso   1.000  H
  C98      1.0000 0.45297  0.29190  0.58170  Biso   1.000  C
  H75      1.0000 0.45990  0.33740  0.61310  Biso   1.000  H
  C99      1.0000 0.31960  0.41380  0.80880  Biso   1.000  C
  H76      1.0000 0.31740  0.49870  0.80290  Biso   1.000  H
  C100     1.0000 0.21110  0.70760  0.34910  Biso   1.000  C
  C101     1.0000 0.34731  0.18780  0.38930  Biso   1.000  C
  H77      1.0000 0.34790  0.11190  0.37080  Biso   1.000  H
  C102     1.0000 0.33794  0.34560  0.77850  Biso   1.000  C
  C103     1.0000 0.19636  0.77140  0.30470  Biso   1.000  C
  H78      1.0000 0.20300  0.84830  0.29380  Biso   1.000  H
  C104     1.0000 0.31090  0.09850  0.45100  Biso   1.000  C
  C105     1.0000 0.47050  0.25560  0.54190  Biso   1.000  C
  H79      1.0000 0.48960  0.27880  0.54750  Biso   1.000  H
  C106     1.0000 0.46640  0.60430  0.87400  Biso   1.000  C
  H80      1.0000 0.47770  0.56730  0.90340  Biso   1.000  H
  Co5      1.0000 0.21547  0.34792  0.07485  Biso   1.000  Co
  Co6      1.0000 0.50838  0.16544  0.06975  Biso   1.000  Co
  O29      1.0000 0.24810  0.20210  0.08110  Biso   1.000  O
  O30      1.0000 0.01816  0.18490  0.95690  Biso   1.000  O
  O31      1.0000 0.47738  0.12740  0.12310  Biso   1.000  O
  O32      1.0000 0.08130  0.00040  0.74280  Biso   1.000  O
  O33      1.0000 0.48789  0.94390  0.16400  Biso   1.000  O
  O34      1.0000 0.09639  0.79450  0.89190  Biso   1.000  O
  O35      1.0000 0.12259  0.99720  0.12270  Biso   1.000  O
  O36      1.0000 0.25332  0.36640  0.13550  Biso   1.000  O
  O37      1.0000 0.14676  0.90940  0.75760  Biso   1.000  O
  N9       1.0000 0.19394  0.73310  0.64170  Biso   1.000  N
  O38      1.0000 0.12621  0.08560  0.90020  Biso   1.000  O
  O39      1.0000 0.19166  0.50580  0.08180  Biso   1.000  O
  O40      1.0000 0.36174  0.05690  0.23940  Biso   1.000  O
  N10      1.0000 0.03741  0.68890  0.00490  Biso   1.000  N
  O41      1.0000 0.02853  0.36010  0.99980  Biso   1.000  O
  C107     1.0000 0.33818  0.10680  0.20750  Biso   1.000  C
  C108     1.0000 0.13767  0.23280  0.97070  Biso   1.000  C
  H81      1.0000 0.11880  0.25950  0.96750  Biso   1.000  H
  O42      1.0000 0.20060  0.60960  0.00380  Biso   1.000  O
  C109     1.0000 0.17503  0.10410  0.94320  Biso   1.000  C
  H82      1.0000 0.18170  0.04040  0.92150  Biso   1.000  H
  C110     1.0000 0.08809  0.00200  0.04070  Biso   1.000  C
  H83      1.0000 0.09280  0.92160  0.03070  Biso   1.000  H
  C111     1.0000 0.32390  0.04370  0.16380  Biso   1.000  C
  H84      1.0000 0.33050  0.96650  0.15320  Biso   1.000  H
  N11      1.0000 0.03403  0.22850  0.62890  Biso   1.000  N
  C112     1.0000 0.11257  0.94250  0.82370  Biso   1.000  C
  C113     1.0000 0.47145  0.03220  0.15270  Biso   1.000  C
  N12      1.0000 0.18542  0.25840  0.01570  Biso   1.000  N
  C114     1.0000 0.10248  0.05900  0.08670  Biso   1.000  C
  C115     1.0000 0.32790  0.22170  0.22310  Biso   1.000  C
  H85      1.0000 0.33750  0.26550  0.25260  Biso   1.000  H
  C116     1.0000 0.09649  0.17940  0.10090  Biso   1.000  C
  H86      1.0000 0.10650  0.21750  0.13160  Biso   1.000  H
  C117     1.0000 0.08510  0.68280  0.97270  Biso   1.000  C
  H87      1.0000 0.10380  0.65370  0.97800  Biso   1.000  H
  C118     1.0000 0.17650  0.66780  0.67370  Biso   1.000  C
  H88      1.0000 0.17520  0.58240  0.66820  Biso   1.000  H
  C119     1.0000 0.10059  0.05240  0.78730  Biso   1.000  C
  H89      1.0000 0.09050  0.10970  0.81000  Biso   1.000  H
  H90      1.0000 0.11600  0.09680  0.77140  Biso   1.000  H
  C120     1.0000 0.14662  0.13590  0.93670  Biso   1.000  C
  C121     1.0000 0.06639  0.07990  0.70690  Biso   1.000  C
  C122     1.0000 0.29910  0.09490  0.13480  Biso   1.000  C
  H91      1.0000 0.28970  0.05200  0.10480  Biso   1.000  H
  C123     1.0000 0.44157  0.03540  0.17430  Biso   1.000  C
  C124     1.0000 0.06480  0.65380  0.01020  Biso   1.000  C
  H92      1.0000 0.07080  0.60610  0.04160  Biso   1.000  H
  C125     1.0000 0.40900  0.97700  0.24230  Biso   1.000  C
  H93      1.0000 0.40530  0.93400  0.27480  Biso   1.000  H
  C126     1.0000 0.06741  0.20740  0.71170  Biso   1.000  C
  H94      1.0000 0.07860  0.24620  0.74060  Biso   1.000  H
  C127     1.0000 0.03452  0.24740  0.99130  Biso   1.000  C
  C128     1.0000 0.26235  0.26290  0.12020  Biso   1.000  C
  C129     1.0000 0.15763  0.28770  0.00930  Biso   1.000  C
  H95      1.0000 0.15120  0.34950  0.03240  Biso   1.000  H
  C130     1.0000 0.13661  0.98500  0.86660  Biso   1.000  C
  H96      1.0000 0.14290  0.91630  0.89100  Biso   1.000  H
  H97      1.0000 0.15270  0.01330  0.84720  Biso   1.000  H
  C131     1.0000 0.13720  0.89700  0.10140  Biso   1.000  C
  C132     1.0000 0.05094  0.27550  0.67130  Biso   1.000  C
  H98      1.0000 0.05180  0.36160  0.67420  Biso   1.000  H
  C133     1.0000 0.16990  0.81650  0.03950  Biso   1.000  C
  H99      1.0000 0.18080  0.82830  0.00910  Biso   1.000  H
  C134     1.0000 0.16075  0.71910  0.71320  Biso   1.000  C
  H100     1.0000 0.14930  0.66980  0.73410  Biso   1.000  H
  C135     1.0000 0.15360  0.91310  0.05800  Biso   1.000  C
  H101     1.0000 0.15410  0.99010  0.04040  Biso   1.000  H
  C136     1.0000 0.06646  0.06590  0.00960  Biso   1.000  C
  H102     1.0000 0.05670  0.02750  0.97860  Biso   1.000  H
  C137     1.0000 0.07581  0.75860  0.92620  Biso   1.000  C
  C138     1.0000 0.43603  0.96870  0.22210  Biso   1.000  C
  H103     1.0000 0.45010  0.91910  0.24050  Biso   1.000  H
  C139     1.0000 0.39312  0.11210  0.16550  Biso   1.000  C
  H104     1.0000 0.37880  0.15760  0.14570  Biso   1.000  H
  C140     1.0000 0.42003  0.10610  0.14730  Biso   1.000  C
  H105     1.0000 0.42390  0.15150  0.11560  Biso   1.000  H
  C141     1.0000 0.16990  0.70060  0.06670  Biso   1.000  C
  C142     1.0000 0.07522  0.24310  0.06860  Biso   1.000  C
  H106     1.0000 0.07170  0.32570  0.07710  Biso   1.000  H
  C143     1.0000 0.05901  0.18680  0.02390  Biso   1.000  C
  C144     1.0000 0.19540  0.85410  0.65200  Biso   1.000  C
  H107     1.0000 0.20740  0.90160  0.63140  Biso   1.000  H
  C145     1.0000 0.12559  0.84570  0.78780  Biso   1.000  C
  H108     1.0000 0.13450  0.78050  0.81130  Biso   1.000  H
  H109     1.0000 0.11110  0.80890  0.76150  Biso   1.000  H
  C146     1.0000 0.19402  0.16630  0.98220  Biso   1.000  C
  H110     1.0000 0.21320  0.14360  0.98520  Biso   1.000  H
  C147     1.0000 0.38788  0.04790  0.21480  Biso   1.000  C
  C148     1.0000 0.08680  0.88980  0.85110  Biso   1.000  C
  H111     1.0000 0.07720  0.95580  0.86980  Biso   1.000  H
  H112     1.0000 0.07330  0.85430  0.82230  Biso   1.000  H
  C149     1.0000 0.04900  0.02800  0.66430  Biso   1.000  C
  H113     1.0000 0.04760  0.94210  0.66100  Biso   1.000  H
  C150     1.0000 0.13640  0.78460  0.12770  Biso   1.000  C
  H114     1.0000 0.12480  0.77350  0.15710  Biso   1.000  H
  C151     1.0000 0.04703  0.79190  0.91830  Biso   1.000  C
  H115     1.0000 0.04010  0.83740  0.88690  Biso   1.000  H
  C152     1.0000 0.18040  0.91380  0.69120  Biso   1.000  C
  H116     1.0000 0.18260  0.99870  0.69710  Biso   1.000  H
  C153     1.0000 0.28890  0.20760  0.15090  Biso   1.000  C
  C154     1.0000 0.15269  0.68780  0.11070  Biso   1.000  C
  H117     1.0000 0.15210  0.61190  0.12920  Biso   1.000  H
  C155     1.0000 0.16206  0.84560  0.72150  Biso   1.000  C
  C156     1.0000 0.30364  0.27140  0.19530  Biso   1.000  C
  H118     1.0000 0.29700  0.34830  0.20620  Biso   1.000  H
  C157     1.0000 0.18910  0.59850  0.04900  Biso   1.000  C
  C158     1.0000 0.02950  0.75560  0.95810  Biso   1.000  C
  H119     1.0000 0.01040  0.77880  0.95250  Biso   1.000  H
  C159     1.0000 0.03360  0.10430  0.62600  Biso   1.000  C
  H120     1.0000 0.02230  0.06730  0.59660  Biso   1.000  H
  Co7      1.0000 0.71547  0.84792  0.07485  Biso   1.000  Co
  Co8      1.0000 0.00838  0.66544  0.06975  Biso   1.000  Co
  O43      1.0000 0.74810  0.70210  0.08110  Biso   1.000  O
  O44      1.0000 0.51816  0.68490  0.95690  Biso   1.000  O
  O45      1.0000 0.97738  0.62740  0.12310  Biso   1.000  O
  O46      1.0000 0.58130  0.50040  0.74280  Biso   1.000  O
  O47      1.0000 0.98789  0.44390  0.16400  Biso   1.000  O
  O48      1.0000 0.59639  0.29450  0.89190  Biso   1.000  O
  O49      1.0000 0.62259  0.49720  0.12270  Biso   1.000  O
  O50      1.0000 0.75332  0.86640  0.13550  Biso   1.000  O
  O51      1.0000 0.64676  0.40940  0.75760  Biso   1.000  O
  N13      1.0000 0.69394  0.23310  0.64170  Biso   1.000  N
  O52      1.0000 0.62621  0.58560  0.90020  Biso   1.000  O
  O53      1.0000 0.69166  0.00580  0.08180  Biso   1.000  O
  O54      1.0000 0.86174  0.55690  0.23940  Biso   1.000  O
  N14      1.0000 0.53741  0.18890  0.00490  Biso   1.000  N
  O55      1.0000 0.52853  0.86010  0.99980  Biso   1.000  O
  C160     1.0000 0.83818  0.60680  0.20750  Biso   1.000  C
  C161     1.0000 0.63767  0.73280  0.97070  Biso   1.000  C
  H121     1.0000 0.61880  0.75950  0.96750  Biso   1.000  H
  O56      1.0000 0.70060  0.10960  0.00380  Biso   1.000  O
  C162     1.0000 0.67503  0.60410  0.94320  Biso   1.000  C
  H122     1.0000 0.68170  0.54040  0.92150  Biso   1.000  H
  C163     1.0000 0.58809  0.50200  0.04070  Biso   1.000  C
  H123     1.0000 0.59280  0.42160  0.03070  Biso   1.000  H
  C164     1.0000 0.82390  0.54370  0.16380  Biso   1.000  C
  H124     1.0000 0.83050  0.46650  0.15320  Biso   1.000  H
  N15      1.0000 0.53403  0.72850  0.62890  Biso   1.000  N
  C165     1.0000 0.61257  0.44250  0.82370  Biso   1.000  C
  C166     1.0000 0.97145  0.53220  0.15270  Biso   1.000  C
  N16      1.0000 0.68542  0.75840  0.01570  Biso   1.000  N
  C167     1.0000 0.60248  0.55900  0.08670  Biso   1.000  C
  C168     1.0000 0.82790  0.72170  0.22310  Biso   1.000  C
  H125     1.0000 0.83750  0.76550  0.25260  Biso   1.000  H
  C169     1.0000 0.59649  0.67940  0.10090  Biso   1.000  C
  H126     1.0000 0.60650  0.71750  0.13160  Biso   1.000  H
  C170     1.0000 0.58510  0.18280  0.97270  Biso   1.000  C
  H127     1.0000 0.60380  0.15370  0.97800  Biso   1.000  H
  C171     1.0000 0.67650  0.16780  0.67370  Biso   1.000  C
  H128     1.0000 0.67520  0.08240  0.66820  Biso   1.000  H
  C172     1.0000 0.60059  0.55240  0.78730  Biso   1.000  C
  H129     1.0000 0.59050  0.60970  0.81000  Biso   1.000  H
  H130     1.0000 0.61600  0.59680  0.77140  Biso   1.000  H
  C173     1.0000 0.64662  0.63590  0.93670  Biso   1.000  C
  C174     1.0000 0.56639  0.57990  0.70690  Biso   1.000  C
  C175     1.0000 0.79910  0.59490  0.13480  Biso   1.000  C
  H131     1.0000 0.78970  0.55200  0.10480  Biso   1.000  H
  C176     1.0000 0.94157  0.53540  0.17430  Biso   1.000  C
  C177     1.0000 0.56480  0.15380  0.01020  Biso   1.000  C
  H132     1.0000 0.57080  0.10610  0.04160  Biso   1.000  H
  C178     1.0000 0.90900  0.47700  0.24230  Biso   1.000  C
  H133     1.0000 0.90530  0.43400  0.27480  Biso   1.000  H
  C179     1.0000 0.56741  0.70740  0.71170  Biso   1.000  C
  H134     1.0000 0.57860  0.74620  0.74060  Biso   1.000  H
  C180     1.0000 0.53452  0.74740  0.99130  Biso   1.000  C
  C181     1.0000 0.76235  0.76290  0.12020  Biso   1.000  C
  C182     1.0000 0.65763  0.78770  0.00930  Biso   1.000  C
  H135     1.0000 0.65120  0.84950  0.03240  Biso   1.000  H
  C183     1.0000 0.63661  0.48500  0.86660  Biso   1.000  C
  H136     1.0000 0.64290  0.41630  0.89100  Biso   1.000  H
  H137     1.0000 0.65270  0.51330  0.84720  Biso   1.000  H
  C184     1.0000 0.63720  0.39700  0.10140  Biso   1.000  C
  C185     1.0000 0.55094  0.77550  0.67130  Biso   1.000  C
  H138     1.0000 0.55180  0.86160  0.67420  Biso   1.000  H
  C186     1.0000 0.66990  0.31650  0.03950  Biso   1.000  C
  H139     1.0000 0.68080  0.32830  0.00910  Biso   1.000  H
  C187     1.0000 0.66075  0.21910  0.71320  Biso   1.000  C
  H140     1.0000 0.64930  0.16980  0.73410  Biso   1.000  H
  C188     1.0000 0.65360  0.41310  0.05800  Biso   1.000  C
  H141     1.0000 0.65410  0.49010  0.04040  Biso   1.000  H
  C189     1.0000 0.56646  0.56590  0.00960  Biso   1.000  C
  H142     1.0000 0.55670  0.52750  0.97860  Biso   1.000  H
  C190     1.0000 0.57581  0.25860  0.92620  Biso   1.000  C
  C191     1.0000 0.93603  0.46870  0.22210  Biso   1.000  C
  H143     1.0000 0.95010  0.41910  0.24050  Biso   1.000  H
  C192     1.0000 0.89312  0.61210  0.16550  Biso   1.000  C
  H144     1.0000 0.87880  0.65760  0.14570  Biso   1.000  H
  C193     1.0000 0.92003  0.60610  0.14730  Biso   1.000  C
  H145     1.0000 0.92390  0.65150  0.11560  Biso   1.000  H
  C194     1.0000 0.66990  0.20060  0.06670  Biso   1.000  C
  C195     1.0000 0.57522  0.74310  0.06860  Biso   1.000  C
  H146     1.0000 0.57170  0.82570  0.07710  Biso   1.000  H
  C196     1.0000 0.55901  0.68680  0.02390  Biso   1.000  C
  C197     1.0000 0.69540  0.35410  0.65200  Biso   1.000  C
  H147     1.0000 0.70740  0.40160  0.63140  Biso   1.000  H
  C198     1.0000 0.62559  0.34570  0.78780  Biso   1.000  C
  H148     1.0000 0.63450  0.28050  0.81130  Biso   1.000  H
  H149     1.0000 0.61110  0.30890  0.76150  Biso   1.000  H
  C199     1.0000 0.69402  0.66630  0.98220  Biso   1.000  C
  H150     1.0000 0.71320  0.64360  0.98520  Biso   1.000  H
  C200     1.0000 0.88788  0.54790  0.21480  Biso   1.000  C
  C201     1.0000 0.58680  0.38980  0.85110  Biso   1.000  C
  H151     1.0000 0.57720  0.45580  0.86980  Biso   1.000  H
  H152     1.0000 0.57330  0.35430  0.82230  Biso   1.000  H
  C202     1.0000 0.54900  0.52800  0.66430  Biso   1.000  C
  H153     1.0000 0.54760  0.44210  0.66100  Biso   1.000  H
  C203     1.0000 0.63640  0.28460  0.12770  Biso   1.000  C
  H154     1.0000 0.62480  0.27350  0.15710  Biso   1.000  H
  C204     1.0000 0.54703  0.29190  0.91830  Biso   1.000  C
  H155     1.0000 0.54010  0.33740  0.88690  Biso   1.000  H
  C205     1.0000 0.68040  0.41380  0.69120  Biso   1.000  C
  H156     1.0000 0.68260  0.49870  0.69710  Biso   1.000  H
  C206     1.0000 0.78890  0.70760  0.15090  Biso   1.000  C
  C207     1.0000 0.65269  0.18780  0.11070  Biso   1.000  C
  H157     1.0000 0.65210  0.11190  0.12920  Biso   1.000  H
  C208     1.0000 0.66206  0.34560  0.72150  Biso   1.000  C
  C209     1.0000 0.80364  0.77140  0.19530  Biso   1.000  C
  H158     1.0000 0.79700  0.84830  0.20620  Biso   1.000  H
  C210     1.0000 0.68910  0.09850  0.04900  Biso   1.000  C
  C211     1.0000 0.52950  0.25560  0.95810  Biso   1.000  C
  H159     1.0000 0.51040  0.27880  0.95250  Biso   1.000  H
  C212     1.0000 0.53360  0.60430  0.62600  Biso   1.000  C
  H160     1.0000 0.52230  0.56730  0.59660  Biso   1.000  H
  Co9      1.0000 0.21547  0.65208  0.57485  Biso   1.000  Co
  Co10     1.0000 0.50838  0.83456  0.56975  Biso   1.000  Co
  O57      1.0000 0.24810  0.79790  0.58110  Biso   1.000  O
  O58      1.0000 0.01816  0.81510  0.45690  Biso   1.000  O
  O59      1.0000 0.47738  0.87260  0.62310  Biso   1.000  O
  O60      1.0000 0.08130  0.99960  0.24280  Biso   1.000  O
  O61      1.0000 0.48789  0.05610  0.66400  Biso   1.000  O
  O62      1.0000 0.09639  0.20550  0.39190  Biso   1.000  O
  O63      1.0000 0.12259  0.00280  0.62270  Biso   1.000  O
  O64      1.0000 0.25332  0.63360  0.63550  Biso   1.000  O
  O65      1.0000 0.14676  0.09060  0.25760  Biso   1.000  O
  N17      1.0000 0.19394  0.26690  0.14170  Biso   1.000  N
  O66      1.0000 0.12621  0.91440  0.40020  Biso   1.000  O
  O67      1.0000 0.19166  0.49420  0.58180  Biso   1.000  O
  O68      1.0000 0.36174  0.94310  0.73940  Biso   1.000  O
  N18      1.0000 0.03741  0.31110  0.50490  Biso   1.000  N
  O69      1.0000 0.02853  0.63990  0.49980  Biso   1.000  O
  C213     1.0000 0.33818  0.89320  0.70750  Biso   1.000  C
  C214     1.0000 0.13767  0.76720  0.47070  Biso   1.000  C
  H161     1.0000 0.11880  0.74050  0.46750  Biso   1.000  H
  O70      1.0000 0.20060  0.39040  0.50380  Biso   1.000  O
  C215     1.0000 0.17503  0.89590  0.44320  Biso   1.000  C
  H162     1.0000 0.18170  0.95960  0.42150  Biso   1.000  H
  C216     1.0000 0.08809  0.99800  0.54070  Biso   1.000  C
  H163     1.0000 0.09280  0.07840  0.53070  Biso   1.000  H
  C217     1.0000 0.32390  0.95630  0.66380  Biso   1.000  C
  H164     1.0000 0.33050  0.03350  0.65320  Biso   1.000  H
  N19      1.0000 0.03403  0.77150  0.12890  Biso   1.000  N
  C218     1.0000 0.11257  0.05750  0.32370  Biso   1.000  C
  C219     1.0000 0.47145  0.96780  0.65270  Biso   1.000  C
  N20      1.0000 0.18542  0.74160  0.51570  Biso   1.000  N
  C220     1.0000 0.10248  0.94100  0.58670  Biso   1.000  C
  C221     1.0000 0.32790  0.77830  0.72310  Biso   1.000  C
  H165     1.0000 0.33750  0.73450  0.75260  Biso   1.000  H
  C222     1.0000 0.09649  0.82060  0.60090  Biso   1.000  C
  H166     1.0000 0.10650  0.78250  0.63160  Biso   1.000  H
  C223     1.0000 0.08510  0.31720  0.47270  Biso   1.000  C
  H167     1.0000 0.10380  0.34630  0.47800  Biso   1.000  H
  C224     1.0000 0.17650  0.33220  0.17370  Biso   1.000  C
  H168     1.0000 0.17520  0.41760  0.16820  Biso   1.000  H
  C225     1.0000 0.10059  0.94760  0.28730  Biso   1.000  C
  H169     1.0000 0.09050  0.89030  0.31000  Biso   1.000  H
  H170     1.0000 0.11600  0.90320  0.27140  Biso   1.000  H
  C226     1.0000 0.14662  0.86410  0.43670  Biso   1.000  C
  C227     1.0000 0.06639  0.92010  0.20690  Biso   1.000  C
  C228     1.0000 0.29910  0.90510  0.63480  Biso   1.000  C
  H171     1.0000 0.28970  0.94800  0.60480  Biso   1.000  H
  C229     1.0000 0.44157  0.96460  0.67430  Biso   1.000  C
  C230     1.0000 0.06480  0.34620  0.51020  Biso   1.000  C
  H172     1.0000 0.07080  0.39390  0.54160  Biso   1.000  H
  C231     1.0000 0.40900  0.02300  0.74230  Biso   1.000  C
  H173     1.0000 0.40530  0.06600  0.77480  Biso   1.000  H
  C232     1.0000 0.06741  0.79260  0.21170  Biso   1.000  C
  H174     1.0000 0.07860  0.75380  0.24060  Biso   1.000  H
  C233     1.0000 0.03452  0.75260  0.49130  Biso   1.000  C
  C234     1.0000 0.26235  0.73710  0.62020  Biso   1.000  C
  C235     1.0000 0.15763  0.71230  0.50930  Biso   1.000  C
  H175     1.0000 0.15120  0.65050  0.53240  Biso   1.000  H
  C236     1.0000 0.13661  0.01500  0.36660  Biso   1.000  C
  H176     1.0000 0.14290  0.08370  0.39100  Biso   1.000  H
  H177     1.0000 0.15270  0.98670  0.34720  Biso   1.000  H
  C237     1.0000 0.13720  0.10300  0.60140  Biso   1.000  C
  C238     1.0000 0.05094  0.72450  0.17130  Biso   1.000  C
  H178     1.0000 0.05180  0.63840  0.17420  Biso   1.000  H
  C239     1.0000 0.16990  0.18350  0.53950  Biso   1.000  C
  H179     1.0000 0.18080  0.17170  0.50910  Biso   1.000  H
  C240     1.0000 0.16075  0.28090  0.21320  Biso   1.000  C
  H180     1.0000 0.14930  0.33020  0.23410  Biso   1.000  H
  C241     1.0000 0.15360  0.08690  0.55800  Biso   1.000  C
  H181     1.0000 0.15410  0.00990  0.54040  Biso   1.000  H
  C242     1.0000 0.06646  0.93410  0.50960  Biso   1.000  C
  H182     1.0000 0.05670  0.97250  0.47860  Biso   1.000  H
  C243     1.0000 0.07581  0.24140  0.42620  Biso   1.000  C
  C244     1.0000 0.43603  0.03130  0.72210  Biso   1.000  C
  H183     1.0000 0.45010  0.08090  0.74050  Biso   1.000  H
  C245     1.0000 0.39312  0.88790  0.66550  Biso   1.000  C
  H184     1.0000 0.37880  0.84240  0.64570  Biso   1.000  H
  C246     1.0000 0.42003  0.89390  0.64730  Biso   1.000  C
  H185     1.0000 0.42390  0.84850  0.61560  Biso   1.000  H
  C247     1.0000 0.16990  0.29940  0.56670  Biso   1.000  C
  C248     1.0000 0.07522  0.75690  0.56860  Biso   1.000  C
  H186     1.0000 0.07170  0.67430  0.57710  Biso   1.000  H
  C249     1.0000 0.05901  0.81320  0.52390  Biso   1.000  C
  C250     1.0000 0.19540  0.14590  0.15200  Biso   1.000  C
  H187     1.0000 0.20740  0.09840  0.13140  Biso   1.000  H
  C251     1.0000 0.12559  0.15430  0.28780  Biso   1.000  C
  H188     1.0000 0.13450  0.21950  0.31130  Biso   1.000  H
  H189     1.0000 0.11110  0.19110  0.26150  Biso   1.000  H
  C252     1.0000 0.19402  0.83370  0.48220  Biso   1.000  C
  H190     1.0000 0.21320  0.85640  0.48520  Biso   1.000  H
  C253     1.0000 0.38788  0.95210  0.71480  Biso   1.000  C
  C254     1.0000 0.08680  0.11020  0.35110  Biso   1.000  C
  H191     1.0000 0.07720  0.04420  0.36980  Biso   1.000  H
  H192     1.0000 0.07330  0.14570  0.32230  Biso   1.000  H
  C255     1.0000 0.04900  0.97200  0.16430  Biso   1.000  C
  H193     1.0000 0.04760  0.05790  0.16100  Biso   1.000  H
  C256     1.0000 0.13640  0.21540  0.62770  Biso   1.000  C
  H194     1.0000 0.12480  0.22650  0.65710  Biso   1.000  H
  C257     1.0000 0.04703  0.20810  0.41830  Biso   1.000  C
  H195     1.0000 0.04010  0.16260  0.38690  Biso   1.000  H
  C258     1.0000 0.18040  0.08620  0.19120  Biso   1.000  C
  H196     1.0000 0.18260  0.00130  0.19710  Biso   1.000  H
  C259     1.0000 0.28890  0.79240  0.65090  Biso   1.000  C
  C260     1.0000 0.15269  0.31220  0.61070  Biso   1.000  C
  H197     1.0000 0.15210  0.38810  0.62920  Biso   1.000  H
  C261     1.0000 0.16206  0.15440  0.22150  Biso   1.000  C
  C262     1.0000 0.30364  0.72860  0.69530  Biso   1.000  C
  H198     1.0000 0.29700  0.65170  0.70620  Biso   1.000  H
  C263     1.0000 0.18910  0.40150  0.54900  Biso   1.000  C
  C264     1.0000 0.02950  0.24440  0.45810  Biso   1.000  C
  H199     1.0000 0.01040  0.22120  0.45250  Biso   1.000  H
  C265     1.0000 0.03360  0.89570  0.12600  Biso   1.000  C
  H200     1.0000 0.02230  0.93270  0.09660  Biso   1.000  H
  Co11     1.0000 0.71547  0.15208  0.57485  Biso   1.000  Co
  Co12     1.0000 0.00838  0.33456  0.56975  Biso   1.000  Co
  O71      1.0000 0.74810  0.29790  0.58110  Biso   1.000  O
  O72      1.0000 0.51816  0.31510  0.45690  Biso   1.000  O
  O73      1.0000 0.97738  0.37260  0.62310  Biso   1.000  O
  O74      1.0000 0.58130  0.49960  0.24280  Biso   1.000  O
  O75      1.0000 0.98789  0.55610  0.66400  Biso   1.000  O
  O76      1.0000 0.59639  0.70550  0.39190  Biso   1.000  O
  O77      1.0000 0.62259  0.50280  0.62270  Biso   1.000  O
  O78      1.0000 0.75332  0.13360  0.63550  Biso   1.000  O
  O79      1.0000 0.64676  0.59060  0.25760  Biso   1.000  O
  N21      1.0000 0.69394  0.76690  0.14170  Biso   1.000  N
  O80      1.0000 0.62621  0.41440  0.40020  Biso   1.000  O
  O81      1.0000 0.69166  0.99420  0.58180  Biso   1.000  O
  O82      1.0000 0.86174  0.44310  0.73940  Biso   1.000  O
  N22      1.0000 0.53741  0.81110  0.50490  Biso   1.000  N
  O83      1.0000 0.52853  0.13990  0.49980  Biso   1.000  O
  C266     1.0000 0.83818  0.39320  0.70750  Biso   1.000  C
  C267     1.0000 0.63767  0.26720  0.47070  Biso   1.000  C
  H201     1.0000 0.61880  0.24050  0.46750  Biso   1.000  H
  O84      1.0000 0.70060  0.89040  0.50380  Biso   1.000  O
  C268     1.0000 0.67503  0.39590  0.44320  Biso   1.000  C
  H202     1.0000 0.68170  0.45960  0.42150  Biso   1.000  H
  C269     1.0000 0.58809  0.49800  0.54070  Biso   1.000  C
  H203     1.0000 0.59280  0.57840  0.53070  Biso   1.000  H
  C270     1.0000 0.82390  0.45630  0.66380  Biso   1.000  C
  H204     1.0000 0.83050  0.53350  0.65320  Biso   1.000  H
  N23      1.0000 0.53403  0.27150  0.12890  Biso   1.000  N
  C271     1.0000 0.61257  0.55750  0.32370  Biso   1.000  C
  C272     1.0000 0.97145  0.46780  0.65270  Biso   1.000  C
  N24      1.0000 0.68542  0.24160  0.51570  Biso   1.000  N
  C273     1.0000 0.60248  0.44100  0.58670  Biso   1.000  C
  C274     1.0000 0.82790  0.27830  0.72310  Biso   1.000  C
  H205     1.0000 0.83750  0.23450  0.75260  Biso   1.000  H
  C275     1.0000 0.59649  0.32060  0.60090  Biso   1.000  C
  H206     1.0000 0.60650  0.28250  0.63160  Biso   1.000  H
  C276     1.0000 0.58510  0.81720  0.47270  Biso   1.000  C
  H207     1.0000 0.60380  0.84630  0.47800  Biso   1.000  H
  C277     1.0000 0.67650  0.83220  0.17370  Biso   1.000  C
  H208     1.0000 0.67520  0.91760  0.16820  Biso   1.000  H
  C278     1.0000 0.60059  0.44760  0.28730  Biso   1.000  C
  H209     1.0000 0.59050  0.39030  0.31000  Biso   1.000  H
  H210     1.0000 0.61600  0.40320  0.27140  Biso   1.000  H
  C279     1.0000 0.64662  0.36410  0.43670  Biso   1.000  C
  C280     1.0000 0.56639  0.42010  0.20690  Biso   1.000  C
  C281     1.0000 0.79910  0.40510  0.63480  Biso   1.000  C
  H211     1.0000 0.78970  0.44800  0.60480  Biso   1.000  H
  C282     1.0000 0.94157  0.46460  0.67430  Biso   1.000  C
  C283     1.0000 0.56480  0.84620  0.51020  Biso   1.000  C
  H212     1.0000 0.57080  0.89390  0.54160  Biso   1.000  H
  C284     1.0000 0.90900  0.52300  0.74230  Biso   1.000  C
  H213     1.0000 0.90530  0.56600  0.77480  Biso   1.000  H
  C285     1.0000 0.56741  0.29260  0.21170  Biso   1.000  C
  H214     1.0000 0.57860  0.25380  0.24060  Biso   1.000  H
  C286     1.0000 0.53452  0.25260  0.49130  Biso   1.000  C
  C287     1.0000 0.76235  0.23710  0.62020  Biso   1.000  C
  C288     1.0000 0.65763  0.21230  0.50930  Biso   1.000  C
  H215     1.0000 0.65120  0.15050  0.53240  Biso   1.000  H
  C289     1.0000 0.63661  0.51500  0.36660  Biso   1.000  C
  H216     1.0000 0.64290  0.58370  0.39100  Biso   1.000  H
  H217     1.0000 0.65270  0.48670  0.34720  Biso   1.000  H
  C290     1.0000 0.63720  0.60300  0.60140  Biso   1.000  C
  C291     1.0000 0.55094  0.22450  0.17130  Biso   1.000  C
  H218     1.0000 0.55180  0.13840  0.17420  Biso   1.000  H
  C292     1.0000 0.66990  0.68350  0.53950  Biso   1.000  C
  H219     1.0000 0.68080  0.67170  0.50910  Biso   1.000  H
  C293     1.0000 0.66075  0.78090  0.21320  Biso   1.000  C
  H220     1.0000 0.64930  0.83020  0.23410  Biso   1.000  H
  C294     1.0000 0.65360  0.58690  0.55800  Biso   1.000  C
  H221     1.0000 0.65410  0.50990  0.54040  Biso   1.000  H
  C295     1.0000 0.56646  0.43410  0.50960  Biso   1.000  C
  H222     1.0000 0.55670  0.47250  0.47860  Biso   1.000  H
  C296     1.0000 0.57581  0.74140  0.42620  Biso   1.000  C
  C297     1.0000 0.93603  0.53130  0.72210  Biso   1.000  C
  H223     1.0000 0.95010  0.58090  0.74050  Biso   1.000  H
  C298     1.0000 0.89312  0.38790  0.66550  Biso   1.000  C
  H224     1.0000 0.87880  0.34240  0.64570  Biso   1.000  H
  C299     1.0000 0.92003  0.39390  0.64730  Biso   1.000  C
  H225     1.0000 0.92390  0.34850  0.61560  Biso   1.000  H
  C300     1.0000 0.66990  0.79940  0.56670  Biso   1.000  C
  C301     1.0000 0.57522  0.25690  0.56860  Biso   1.000  C
  H226     1.0000 0.57170  0.17430  0.57710  Biso   1.000  H
  C302     1.0000 0.55901  0.31320  0.52390  Biso   1.000  C
  C303     1.0000 0.69540  0.64590  0.15200  Biso   1.000  C
  H227     1.0000 0.70740  0.59840  0.13140  Biso   1.000  H
  C304     1.0000 0.62559  0.65430  0.28780  Biso   1.000  C
  H228     1.0000 0.63450  0.71950  0.31130  Biso   1.000  H
  H229     1.0000 0.61110  0.69110  0.26150  Biso   1.000  H
  C305     1.0000 0.69402  0.33370  0.48220  Biso   1.000  C
  H230     1.0000 0.71320  0.35640  0.48520  Biso   1.000  H
  C306     1.0000 0.88788  0.45210  0.71480  Biso   1.000  C
  C307     1.0000 0.58680  0.61020  0.35110  Biso   1.000  C
  H231     1.0000 0.57720  0.54420  0.36980  Biso   1.000  H
  H232     1.0000 0.57330  0.64570  0.32230  Biso   1.000  H
  C308     1.0000 0.54900  0.47200  0.16430  Biso   1.000  C
  H233     1.0000 0.54760  0.55790  0.16100  Biso   1.000  H
  C309     1.0000 0.63640  0.71540  0.62770  Biso   1.000  C
  H234     1.0000 0.62480  0.72650  0.65710  Biso   1.000  H
  C310     1.0000 0.54703  0.70810  0.41830  Biso   1.000  C
  H235     1.0000 0.54010  0.66260  0.38690  Biso   1.000  H
  C311     1.0000 0.68040  0.58620  0.19120  Biso   1.000  C
  H236     1.0000 0.68260  0.50130  0.19710  Biso   1.000  H
  C312     1.0000 0.78890  0.29240  0.65090  Biso   1.000  C
  C313     1.0000 0.65269  0.81220  0.61070  Biso   1.000  C
  H237     1.0000 0.65210  0.88810  0.62920  Biso   1.000  H
  C314     1.0000 0.66206  0.65440  0.22150  Biso   1.000  C
  C315     1.0000 0.80364  0.22860  0.69530  Biso   1.000  C
  H238     1.0000 0.79700  0.15170  0.70620  Biso   1.000  H
  C316     1.0000 0.68910  0.90150  0.54900  Biso   1.000  C
  C317     1.0000 0.52950  0.74440  0.45810  Biso   1.000  C
  H239     1.0000 0.51040  0.72120  0.45250  Biso   1.000  H
  C318     1.0000 0.53360  0.39570  0.12600  Biso   1.000  C
  H240     1.0000 0.52230  0.43270  0.09660  Biso   1.000  H
  Co13     1.0000 0.78453  0.65208  0.92515  Biso   1.000  Co
  Co14     1.0000 0.49162  0.83456  0.93025  Biso   1.000  Co
  O85      1.0000 0.75190  0.79790  0.91890  Biso   1.000  O
  O86      1.0000 0.98184  0.81510  0.04310  Biso   1.000  O
  O87      1.0000 0.52262  0.87260  0.87690  Biso   1.000  O
  O88      1.0000 0.91870  0.99960  0.25720  Biso   1.000  O
  O89      1.0000 0.51211  0.05610  0.83600  Biso   1.000  O
  O90      1.0000 0.90361  0.20550  0.10810  Biso   1.000  O
  O91      1.0000 0.87741  0.00280  0.87730  Biso   1.000  O
  O92      1.0000 0.74668  0.63360  0.86450  Biso   1.000  O
  O93      1.0000 0.85324  0.09060  0.24240  Biso   1.000  O
  N25      1.0000 0.80606  0.26690  0.35830  Biso   1.000  N
  O94      1.0000 0.87379  0.91440  0.09980  Biso   1.000  O
  O95      1.0000 0.80834  0.49420  0.91820  Biso   1.000  O
  O96      1.0000 0.63826  0.94310  0.76060  Biso   1.000  O
  N26      1.0000 0.96259  0.31110  0.99510  Biso   1.000  N
  O97      1.0000 0.97147  0.63990  0.00020  Biso   1.000  O
  C319     1.0000 0.66182  0.89320  0.79250  Biso   1.000  C
  C320     1.0000 0.86233  0.76720  0.02930  Biso   1.000  C
  H241     1.0000 0.88120  0.74050  0.03250  Biso   1.000  H
  O98      1.0000 0.79940  0.39040  0.99620  Biso   1.000  O
  C321     1.0000 0.82497  0.89590  0.05680  Biso   1.000  C
  H242     1.0000 0.81830  0.95960  0.07850  Biso   1.000  H
  C322     1.0000 0.91191  0.99800  0.95930  Biso   1.000  C
  H243     1.0000 0.90720  0.07840  0.96930  Biso   1.000  H
  C323     1.0000 0.67610  0.95630  0.83620  Biso   1.000  C
  H244     1.0000 0.66950  0.03350  0.84680  Biso   1.000  H
  N27      1.0000 0.96597  0.77150  0.37110  Biso   1.000  N
  C324     1.0000 0.88743  0.05750  0.17630  Biso   1.000  C
  C325     1.0000 0.52855  0.96780  0.84730  Biso   1.000  C
  N28      1.0000 0.81458  0.74160  0.98430  Biso   1.000  N
  C326     1.0000 0.89752  0.94100  0.91330  Biso   1.000  C
  C327     1.0000 0.67210  0.77830  0.77690  Biso   1.000  C
  H245     1.0000 0.66250  0.73450  0.74740  Biso   1.000  H
  C328     1.0000 0.90351  0.82060  0.89910  Biso   1.000  C
  H246     1.0000 0.89350  0.78250  0.86840  Biso   1.000  H
  C329     1.0000 0.91490  0.31720  0.02730  Biso   1.000  C
  H247     1.0000 0.89620  0.34630  0.02200  Biso   1.000  H
  C330     1.0000 0.82350  0.33220  0.32630  Biso   1.000  C
  H248     1.0000 0.82480  0.41760  0.33180  Biso   1.000  H
  C331     1.0000 0.89941  0.94760  0.21270  Biso   1.000  C
  H249     1.0000 0.90950  0.89030  0.19000  Biso   1.000  H
  H250     1.0000 0.88400  0.90320  0.22860  Biso   1.000  H
  C332     1.0000 0.85338  0.86410  0.06330  Biso   1.000  C
  C333     1.0000 0.93361  0.92010  0.29310  Biso   1.000  C
  C334     1.0000 0.70090  0.90510  0.86520  Biso   1.000  C
  H251     1.0000 0.71030  0.94800  0.89520  Biso   1.000  H
  C335     1.0000 0.55843  0.96460  0.82570  Biso   1.000  C
  C336     1.0000 0.93520  0.34620  0.98980  Biso   1.000  C
  H252     1.0000 0.92920  0.39390  0.95840  Biso   1.000  H
  C337     1.0000 0.59100  0.02300  0.75770  Biso   1.000  C
  H253     1.0000 0.59470  0.06600  0.72520  Biso   1.000  H
  C338     1.0000 0.93259  0.79260  0.28830  Biso   1.000  C
  H254     1.0000 0.92140  0.75380  0.25940  Biso   1.000  H
  C339     1.0000 0.96548  0.75260  0.00870  Biso   1.000  C
  C340     1.0000 0.73765  0.73710  0.87980  Biso   1.000  C
  C341     1.0000 0.84237  0.71230  0.99070  Biso   1.000  C
  H255     1.0000 0.84880  0.65050  0.96760  Biso   1.000  H
  C342     1.0000 0.86339  0.01500  0.13340  Biso   1.000  C
  H256     1.0000 0.85710  0.08370  0.10900  Biso   1.000  H
  H257     1.0000 0.84730  0.98670  0.15280  Biso   1.000  H
  C343     1.0000 0.86280  0.10300  0.89860  Biso   1.000  C
  C344     1.0000 0.94906  0.72450  0.32870  Biso   1.000  C
  H258     1.0000 0.94820  0.63840  0.32580  Biso   1.000  H
  C345     1.0000 0.83010  0.18350  0.96050  Biso   1.000  C
  H259     1.0000 0.81920  0.17170  0.99090  Biso   1.000  H
  C346     1.0000 0.83925  0.28090  0.28680  Biso   1.000  C
  H260     1.0000 0.85070  0.33020  0.26590  Biso   1.000  H
  C347     1.0000 0.84640  0.08690  0.94200  Biso   1.000  C
  H261     1.0000 0.84590  0.00990  0.95960  Biso   1.000  H
  C348     1.0000 0.93354  0.93410  0.99040  Biso   1.000  C
  H262     1.0000 0.94330  0.97250  0.02140  Biso   1.000  H
  C349     1.0000 0.92419  0.24140  0.07380  Biso   1.000  C
  C350     1.0000 0.56397  0.03130  0.77790  Biso   1.000  C
  H263     1.0000 0.54990  0.08090  0.75950  Biso   1.000  H
  C351     1.0000 0.60688  0.88790  0.83450  Biso   1.000  C
  H264     1.0000 0.62120  0.84240  0.85430  Biso   1.000  H
  C352     1.0000 0.57997  0.89390  0.85270  Biso   1.000  C
  H265     1.0000 0.57610  0.84850  0.88440  Biso   1.000  H
  C353     1.0000 0.83010  0.29940  0.93330  Biso   1.000  C
  C354     1.0000 0.92478  0.75690  0.93140  Biso   1.000  C
  H266     1.0000 0.92830  0.67430  0.92290  Biso   1.000  H
  C355     1.0000 0.94099  0.81320  0.97610  Biso   1.000  C
  C356     1.0000 0.80460  0.14590  0.34800  Biso   1.000  C
  H267     1.0000 0.79260  0.09840  0.36860  Biso   1.000  H
  C357     1.0000 0.87441  0.15430  0.21220  Biso   1.000  C
  H268     1.0000 0.86550  0.21950  0.18870  Biso   1.000  H
  H269     1.0000 0.88890  0.19110  0.23850  Biso   1.000  H
  C358     1.0000 0.80598  0.83370  0.01780  Biso   1.000  C
  H270     1.0000 0.78680  0.85640  0.01480  Biso   1.000  H
  C359     1.0000 0.61212  0.95210  0.78520  Biso   1.000  C
  C360     1.0000 0.91320  0.11020  0.14890  Biso   1.000  C
  H271     1.0000 0.92280  0.04420  0.13020  Biso   1.000  H
  H272     1.0000 0.92670  0.14570  0.17770  Biso   1.000  H
  C361     1.0000 0.95100  0.97200  0.33570  Biso   1.000  C
  H273     1.0000 0.95240  0.05790  0.33900  Biso   1.000  H
  C362     1.0000 0.86360  0.21540  0.87230  Biso   1.000  C
  H274     1.0000 0.87520  0.22650  0.84290  Biso   1.000  H
  C363     1.0000 0.95297  0.20810  0.08170  Biso   1.000  C
  H275     1.0000 0.95990  0.16260  0.11310  Biso   1.000  H
  C364     1.0000 0.81960  0.08620  0.30880  Biso   1.000  C
  H276     1.0000 0.81740  0.00130  0.30290  Biso   1.000  H
  C365     1.0000 0.71110  0.79240  0.84910  Biso   1.000  C
  C366     1.0000 0.84731  0.31220  0.88930  Biso   1.000  C
  H277     1.0000 0.84790  0.38810  0.87080  Biso   1.000  H
  C367     1.0000 0.83794  0.15440  0.27850  Biso   1.000  C
  C368     1.0000 0.69636  0.72860  0.80470  Biso   1.000  C
  H278     1.0000 0.70300  0.65170  0.79380  Biso   1.000  H
  C369     1.0000 0.81090  0.40150  0.95100  Biso   1.000  C
  C370     1.0000 0.97050  0.24440  0.04190  Biso   1.000  C
  H279     1.0000 0.98960  0.22120  0.04750  Biso   1.000  H
  C371     1.0000 0.96640  0.89570  0.37400  Biso   1.000  C
  H280     1.0000 0.97770  0.93270  0.40340  Biso   1.000  H
  Co15     1.0000 0.28453  0.15208  0.92515  Biso   1.000  Co
  Co16     1.0000 0.99162  0.33456  0.93025  Biso   1.000  Co
  O99      1.0000 0.25190  0.29790  0.91890  Biso   1.000  O
  O100     1.0000 0.48184  0.31510  0.04310  Biso   1.000  O
  O101     1.0000 0.02262  0.37260  0.87690  Biso   1.000  O
  O102     1.0000 0.41870  0.49960  0.25720  Biso   1.000  O
  O103     1.0000 0.01211  0.55610  0.83600  Biso   1.000  O
  O104     1.0000 0.40361  0.70550  0.10810  Biso   1.000  O
  O105     1.0000 0.37741  0.50280  0.87730  Biso   1.000  O
  O106     1.0000 0.24668  0.13360  0.86450  Biso   1.000  O
  O107     1.0000 0.35324  0.59060  0.24240  Biso   1.000  O
  N29      1.0000 0.30606  0.76690  0.35830  Biso   1.000  N
  O108     1.0000 0.37379  0.41440  0.09980  Biso   1.000  O
  O109     1.0000 0.30834  0.99420  0.91820  Biso   1.000  O
  O110     1.0000 0.13826  0.44310  0.76060  Biso   1.000  O
  N30      1.0000 0.46259  0.81110  0.99510  Biso   1.000  N
  O111     1.0000 0.47147  0.13990  0.00020  Biso   1.000  O
  C372     1.0000 0.16182  0.39320  0.79250  Biso   1.000  C
  C373     1.0000 0.36233  0.26720  0.02930  Biso   1.000  C
  H281     1.0000 0.38120  0.24050  0.03250  Biso   1.000  H
  O112     1.0000 0.29940  0.89040  0.99620  Biso   1.000  O
  C374     1.0000 0.32497  0.39590  0.05680  Biso   1.000  C
  H282     1.0000 0.31830  0.45960  0.07850  Biso   1.000  H
  C375     1.0000 0.41191  0.49800  0.95930  Biso   1.000  C
  H283     1.0000 0.40720  0.57840  0.96930  Biso   1.000  H
  C376     1.0000 0.17610  0.45630  0.83620  Biso   1.000  C
  H284     1.0000 0.16950  0.53350  0.84680  Biso   1.000  H
  N31      1.0000 0.46597  0.27150  0.37110  Biso   1.000  N
  C377     1.0000 0.38743  0.55750  0.17630  Biso   1.000  C
  C378     1.0000 0.02855  0.46780  0.84730  Biso   1.000  C
  N32      1.0000 0.31458  0.24160  0.98430  Biso   1.000  N
  C379     1.0000 0.39752  0.44100  0.91330  Biso   1.000  C
  C380     1.0000 0.17210  0.27830  0.77690  Biso   1.000  C
  H285     1.0000 0.16250  0.23450  0.74740  Biso   1.000  H
  C381     1.0000 0.40351  0.32060  0.89910  Biso   1.000  C
  H286     1.0000 0.39350  0.28250  0.86840  Biso   1.000  H
  C382     1.0000 0.41490  0.81720  0.02730  Biso   1.000  C
  H287     1.0000 0.39620  0.84630  0.02200  Biso   1.000  H
  C383     1.0000 0.32350  0.83220  0.32630  Biso   1.000  C
  H288     1.0000 0.32480  0.91760  0.33180  Biso   1.000  H
  C384     1.0000 0.39941  0.44760  0.21270  Biso   1.000  C
  H289     1.0000 0.40950  0.39030  0.19000  Biso   1.000  H
  H290     1.0000 0.38400  0.40320  0.22860  Biso   1.000  H
  C385     1.0000 0.35338  0.36410  0.06330  Biso   1.000  C
  C386     1.0000 0.43361  0.42010  0.29310  Biso   1.000  C
  C387     1.0000 0.20090  0.40510  0.86520  Biso   1.000  C
  H291     1.0000 0.21030  0.44800  0.89520  Biso   1.000  H
  C388     1.0000 0.05843  0.46460  0.82570  Biso   1.000  C
  C389     1.0000 0.43520  0.84620  0.98980  Biso   1.000  C
  H292     1.0000 0.42920  0.89390  0.95840  Biso   1.000  H
  C390     1.0000 0.09100  0.52300  0.75770  Biso   1.000  C
  H293     1.0000 0.09470  0.56600  0.72520  Biso   1.000  H
  C391     1.0000 0.43259  0.29260  0.28830  Biso   1.000  C
  H294     1.0000 0.42140  0.25380  0.25940  Biso   1.000  H
  C392     1.0000 0.46548  0.25260  0.00870  Biso   1.000  C
  C393     1.0000 0.23765  0.23710  0.87980  Biso   1.000  C
  C394     1.0000 0.34237  0.21230  0.99070  Biso   1.000  C
  H295     1.0000 0.34880  0.15050  0.96760  Biso   1.000  H
  C395     1.0000 0.36339  0.51500  0.13340  Biso   1.000  C
  H296     1.0000 0.35710  0.58370  0.10900  Biso   1.000  H
  H297     1.0000 0.34730  0.48670  0.15280  Biso   1.000  H
  C396     1.0000 0.36280  0.60300  0.89860  Biso   1.000  C
  C397     1.0000 0.44906  0.22450  0.32870  Biso   1.000  C
  H298     1.0000 0.44820  0.13840  0.32580  Biso   1.000  H
  C398     1.0000 0.33010  0.68350  0.96050  Biso   1.000  C
  H299     1.0000 0.31920  0.67170  0.99090  Biso   1.000  H
  C399     1.0000 0.33925  0.78090  0.28680  Biso   1.000  C
  H300     1.0000 0.35070  0.83020  0.26590  Biso   1.000  H
  C400     1.0000 0.34640  0.58690  0.94200  Biso   1.000  C
  H301     1.0000 0.34590  0.50990  0.95960  Biso   1.000  H
  C401     1.0000 0.43354  0.43410  0.99040  Biso   1.000  C
  H302     1.0000 0.44330  0.47250  0.02140  Biso   1.000  H
  C402     1.0000 0.42419  0.74140  0.07380  Biso   1.000  C
  C403     1.0000 0.06397  0.53130  0.77790  Biso   1.000  C
  H303     1.0000 0.04990  0.58090  0.75950  Biso   1.000  H
  C404     1.0000 0.10688  0.38790  0.83450  Biso   1.000  C
  H304     1.0000 0.12120  0.34240  0.85430  Biso   1.000  H
  C405     1.0000 0.07997  0.39390  0.85270  Biso   1.000  C
  H305     1.0000 0.07610  0.34850  0.88440  Biso   1.000  H
  C406     1.0000 0.33010  0.79940  0.93330  Biso   1.000  C
  C407     1.0000 0.42478  0.25690  0.93140  Biso   1.000  C
  H306     1.0000 0.42830  0.17430  0.92290  Biso   1.000  H
  C408     1.0000 0.44099  0.31320  0.97610  Biso   1.000  C
  C409     1.0000 0.30460  0.64590  0.34800  Biso   1.000  C
  H307     1.0000 0.29260  0.59840  0.36860  Biso   1.000  H
  C410     1.0000 0.37441  0.65430  0.21220  Biso   1.000  C
  H308     1.0000 0.36550  0.71950  0.18870  Biso   1.000  H
  H309     1.0000 0.38890  0.69110  0.23850  Biso   1.000  H
  C411     1.0000 0.30598  0.33370  0.01780  Biso   1.000  C
  H310     1.0000 0.28680  0.35640  0.01480  Biso   1.000  H
  C412     1.0000 0.11212  0.45210  0.78520  Biso   1.000  C
  C413     1.0000 0.41320  0.61020  0.14890  Biso   1.000  C
  H311     1.0000 0.42280  0.54420  0.13020  Biso   1.000  H
  H312     1.0000 0.42670  0.64570  0.17770  Biso   1.000  H
  C414     1.0000 0.45100  0.47200  0.33570  Biso   1.000  C
  H313     1.0000 0.45240  0.55790  0.33900  Biso   1.000  H
  C415     1.0000 0.36360  0.71540  0.87230  Biso   1.000  C
  H314     1.0000 0.37520  0.72650  0.84290  Biso   1.000  H
  C416     1.0000 0.45297  0.70810  0.08170  Biso   1.000  C
  H315     1.0000 0.45990  0.66260  0.11310  Biso   1.000  H
  C417     1.0000 0.31960  0.58620  0.30880  Biso   1.000  C
  H316     1.0000 0.31740  0.50130  0.30290  Biso   1.000  H
  C418     1.0000 0.21110  0.29240  0.84910  Biso   1.000  C
  C419     1.0000 0.34731  0.81220  0.88930  Biso   1.000  C
  H317     1.0000 0.34790  0.88810  0.87080  Biso   1.000  H
  C420     1.0000 0.33794  0.65440  0.27850  Biso   1.000  C
  C421     1.0000 0.19636  0.22860  0.80470  Biso   1.000  C
  H318     1.0000 0.20300  0.15170  0.79380  Biso   1.000  H
  C422     1.0000 0.31090  0.90150  0.95100  Biso   1.000  C
  C423     1.0000 0.47050  0.74440  0.04190  Biso   1.000  C
  H319     1.0000 0.48960  0.72120  0.04750  Biso   1.000  H
  C424     1.0000 0.46640  0.39570  0.37400  Biso   1.000  C
  H320     1.0000 0.47770  0.43270  0.40340  Biso   1.000  H
