data_image0
_cell_length_a       39.9194
_cell_length_b       39.9194
_cell_length_c       39.9194
_cell_angle_alpha    90
_cell_angle_beta     90
_cell_angle_gamma    90

_symmetry_space_group_name_H-M    "P 1"
_symmetry_int_tables_number       1

loop_
  _symmetry_equiv_pos_as_xyz
  'x, y, z'

loop_
  _atom_site_label
  _atom_site_occupancy
  _atom_site_fract_x
  _atom_site_fract_y
  _atom_site_fract_z
  _atom_site_thermal_displace_type
  _atom_site_B_iso_or_equiv
  _atom_site_type_symbol
  C1       1.0000 0.22980  0.15453  0.06010  Biso   1.000  C
  C2       1.0000 0.21940  0.12590  0.08414  Biso   1.000  C
  N1       1.0000 0.18951  0.10880  0.08382  Biso   1.000  N
  O1       1.0000 0.20920  0.15773  0.03671  Biso   1.000  O
  O2       1.0000 0.25719  0.16882  0.06869  Biso   1.000  O
  C3       1.0000 0.22980  0.65453  0.56010  Biso   1.000  C
  C4       1.0000 0.21940  0.62590  0.58414  Biso   1.000  C
  N2       1.0000 0.18951  0.60880  0.58382  Biso   1.000  N
  O3       1.0000 0.20920  0.65773  0.53671  Biso   1.000  O
  O4       1.0000 0.25719  0.66882  0.56869  Biso   1.000  O
  C5       1.0000 0.72980  0.15453  0.56010  Biso   1.000  C
  C6       1.0000 0.71940  0.12590  0.58414  Biso   1.000  C
  N3       1.0000 0.68951  0.10880  0.58382  Biso   1.000  N
  O5       1.0000 0.70920  0.15773  0.53671  Biso   1.000  O
  O6       1.0000 0.75719  0.16882  0.56869  Biso   1.000  O
  C7       1.0000 0.72980  0.65453  0.06010  Biso   1.000  C
  C8       1.0000 0.71940  0.62590  0.08414  Biso   1.000  C
  N4       1.0000 0.68951  0.60880  0.08382  Biso   1.000  N
  O7       1.0000 0.70920  0.65773  0.03671  Biso   1.000  O
  O8       1.0000 0.75719  0.66882  0.06869  Biso   1.000  O
  C9       1.0000 0.77020  0.84547  0.06010  Biso   1.000  C
  C10      1.0000 0.78060  0.87410  0.08414  Biso   1.000  C
  N5       1.0000 0.81049  0.89120  0.08382  Biso   1.000  N
  O9       1.0000 0.79080  0.84227  0.03671  Biso   1.000  O
  O10      1.0000 0.74281  0.83118  0.06869  Biso   1.000  O
  C11      1.0000 0.77020  0.34547  0.56010  Biso   1.000  C
  C12      1.0000 0.78060  0.37410  0.58414  Biso   1.000  C
  N6       1.0000 0.81049  0.39120  0.58382  Biso   1.000  N
  O11      1.0000 0.79080  0.34227  0.53671  Biso   1.000  O
  O12      1.0000 0.74281  0.33118  0.56869  Biso   1.000  O
  C13      1.0000 0.27020  0.84547  0.56010  Biso   1.000  C
  C14      1.0000 0.28060  0.87410  0.58414  Biso   1.000  C
  N7       1.0000 0.31049  0.89120  0.58382  Biso   1.000  N
  O13      1.0000 0.29080  0.84227  0.53671  Biso   1.000  O
  O14      1.0000 0.24281  0.83118  0.56869  Biso   1.000  O
  C15      1.0000 0.27020  0.34547  0.06010  Biso   1.000  C
  C16      1.0000 0.28060  0.37410  0.08414  Biso   1.000  C
  N8       1.0000 0.31049  0.39120  0.08382  Biso   1.000  N
  O15      1.0000 0.29080  0.34227  0.03671  Biso   1.000  O
  O16      1.0000 0.24281  0.33118  0.06869  Biso   1.000  O
  C17      1.0000 0.77020  0.15453  0.93990  Biso   1.000  C
  C18      1.0000 0.78060  0.12590  0.91586  Biso   1.000  C
  N9       1.0000 0.81049  0.10880  0.91618  Biso   1.000  N
  O17      1.0000 0.79080  0.15773  0.96329  Biso   1.000  O
  O18      1.0000 0.74281  0.16882  0.93131  Biso   1.000  O
  C19      1.0000 0.77020  0.65453  0.43990  Biso   1.000  C
  C20      1.0000 0.78060  0.62590  0.41586  Biso   1.000  C
  N10      1.0000 0.81049  0.60880  0.41618  Biso   1.000  N
  O19      1.0000 0.79080  0.65773  0.46329  Biso   1.000  O
  O20      1.0000 0.74281  0.66882  0.43131  Biso   1.000  O
  C21      1.0000 0.27020  0.15453  0.43990  Biso   1.000  C
  C22      1.0000 0.28060  0.12590  0.41586  Biso   1.000  C
  N11      1.0000 0.31049  0.10880  0.41618  Biso   1.000  N
  O21      1.0000 0.29080  0.15773  0.46329  Biso   1.000  O
  O22      1.0000 0.24281  0.16882  0.43131  Biso   1.000  O
  C23      1.0000 0.27020  0.65453  0.93990  Biso   1.000  C
  C24      1.0000 0.28060  0.62590  0.91586  Biso   1.000  C
  N12      1.0000 0.31049  0.60880  0.91618  Biso   1.000  N
  O23      1.0000 0.29080  0.65773  0.96329  Biso   1.000  O
  O24      1.0000 0.24281  0.66882  0.93131  Biso   1.000  O
  C25      1.0000 0.22980  0.84547  0.93990  Biso   1.000  C
  C26      1.0000 0.21940  0.87410  0.91586  Biso   1.000  C
  N13      1.0000 0.18951  0.89120  0.91618  Biso   1.000  N
  O25      1.0000 0.20920  0.84227  0.96329  Biso   1.000  O
  O26      1.0000 0.25719  0.83118  0.93131  Biso   1.000  O
  C27      1.0000 0.22980  0.34547  0.43990  Biso   1.000  C
  C28      1.0000 0.21940  0.37410  0.41586  Biso   1.000  C
  N14      1.0000 0.18951  0.39120  0.41618  Biso   1.000  N
  O27      1.0000 0.20920  0.34227  0.46329  Biso   1.000  O
  O28      1.0000 0.25719  0.33118  0.43131  Biso   1.000  O
  C29      1.0000 0.72980  0.84547  0.43990  Biso   1.000  C
  C30      1.0000 0.71940  0.87410  0.41586  Biso   1.000  C
  N15      1.0000 0.68951  0.89120  0.41618  Biso   1.000  N
  O29      1.0000 0.70920  0.84227  0.46329  Biso   1.000  O
  O30      1.0000 0.75719  0.83118  0.43131  Biso   1.000  O
  C31      1.0000 0.72980  0.34547  0.93990  Biso   1.000  C
  C32      1.0000 0.71940  0.37410  0.91586  Biso   1.000  C
  N16      1.0000 0.68951  0.39120  0.91618  Biso   1.000  N
  O31      1.0000 0.70920  0.34227  0.96329  Biso   1.000  O
  O32      1.0000 0.75719  0.33118  0.93131  Biso   1.000  O
  C33      1.0000 0.06010  0.22980  0.15453  Biso   1.000  C
  C34      1.0000 0.08414  0.21940  0.12590  Biso   1.000  C
  N17      1.0000 0.08382  0.18951  0.10880  Biso   1.000  N
  O33      1.0000 0.03671  0.20920  0.15773  Biso   1.000  O
  O34      1.0000 0.06869  0.25719  0.16882  Biso   1.000  O
  C35      1.0000 0.06010  0.72980  0.65453  Biso   1.000  C
  C36      1.0000 0.08414  0.71940  0.62590  Biso   1.000  C
  N18      1.0000 0.08382  0.68951  0.60880  Biso   1.000  N
  O35      1.0000 0.03671  0.70920  0.65773  Biso   1.000  O
  O36      1.0000 0.06869  0.75719  0.66882  Biso   1.000  O
  C37      1.0000 0.56010  0.22980  0.65453  Biso   1.000  C
  C38      1.0000 0.58414  0.21940  0.62590  Biso   1.000  C
  N19      1.0000 0.58382  0.18951  0.60880  Biso   1.000  N
  O37      1.0000 0.53671  0.20920  0.65773  Biso   1.000  O
  O38      1.0000 0.56869  0.25719  0.66882  Biso   1.000  O
  C39      1.0000 0.56010  0.72980  0.15453  Biso   1.000  C
  C40      1.0000 0.58414  0.71940  0.12590  Biso   1.000  C
  N20      1.0000 0.58382  0.68951  0.10880  Biso   1.000  N
  O39      1.0000 0.53671  0.70920  0.15773  Biso   1.000  O
  O40      1.0000 0.56869  0.75719  0.16882  Biso   1.000  O
  C41      1.0000 0.06010  0.77020  0.84547  Biso   1.000  C
  C42      1.0000 0.08414  0.78060  0.87410  Biso   1.000  C
  N21      1.0000 0.08382  0.81049  0.89120  Biso   1.000  N
  O41      1.0000 0.03671  0.79080  0.84227  Biso   1.000  O
  O42      1.0000 0.06869  0.74281  0.83118  Biso   1.000  O
  C43      1.0000 0.06010  0.27020  0.34547  Biso   1.000  C
  C44      1.0000 0.08414  0.28060  0.37410  Biso   1.000  C
  N22      1.0000 0.08382  0.31049  0.39120  Biso   1.000  N
  O43      1.0000 0.03671  0.29080  0.34227  Biso   1.000  O
  O44      1.0000 0.06869  0.24281  0.33118  Biso   1.000  O
  C45      1.0000 0.56010  0.77020  0.34547  Biso   1.000  C
  C46      1.0000 0.58414  0.78060  0.37410  Biso   1.000  C
  N23      1.0000 0.58382  0.81049  0.39120  Biso   1.000  N
  O45      1.0000 0.53671  0.79080  0.34227  Biso   1.000  O
  O46      1.0000 0.56869  0.74281  0.33118  Biso   1.000  O
  C47      1.0000 0.56010  0.27020  0.84547  Biso   1.000  C
  C48      1.0000 0.58414  0.28060  0.87410  Biso   1.000  C
  N24      1.0000 0.58382  0.31049  0.89120  Biso   1.000  N
  O47      1.0000 0.53671  0.29080  0.84227  Biso   1.000  O
  O48      1.0000 0.56869  0.24281  0.83118  Biso   1.000  O
  C49      1.0000 0.93990  0.77020  0.15453  Biso   1.000  C
  C50      1.0000 0.91586  0.78060  0.12590  Biso   1.000  C
  N25      1.0000 0.91618  0.81049  0.10880  Biso   1.000  N
  O49      1.0000 0.96329  0.79080  0.15773  Biso   1.000  O
  O50      1.0000 0.93131  0.74281  0.16882  Biso   1.000  O
  C51      1.0000 0.93990  0.27020  0.65453  Biso   1.000  C
  C52      1.0000 0.91586  0.28060  0.62590  Biso   1.000  C
  N26      1.0000 0.91618  0.31049  0.60880  Biso   1.000  N
  O51      1.0000 0.96329  0.29080  0.65773  Biso   1.000  O
  O52      1.0000 0.93131  0.24281  0.66882  Biso   1.000  O
  C53      1.0000 0.43990  0.77020  0.65453  Biso   1.000  C
  C54      1.0000 0.41586  0.78060  0.62590  Biso   1.000  C
  N27      1.0000 0.41618  0.81049  0.60880  Biso   1.000  N
  O53      1.0000 0.46329  0.79080  0.65773  Biso   1.000  O
  O54      1.0000 0.43131  0.74281  0.66882  Biso   1.000  O
  C55      1.0000 0.43990  0.27020  0.15453  Biso   1.000  C
  C56      1.0000 0.41586  0.28060  0.12590  Biso   1.000  C
  N28      1.0000 0.41618  0.31049  0.10880  Biso   1.000  N
  O55      1.0000 0.46329  0.29080  0.15773  Biso   1.000  O
  O56      1.0000 0.43131  0.24281  0.16882  Biso   1.000  O
  C57      1.0000 0.93990  0.22980  0.84547  Biso   1.000  C
  C58      1.0000 0.91586  0.21940  0.87410  Biso   1.000  C
  N29      1.0000 0.91618  0.18951  0.89120  Biso   1.000  N
  O57      1.0000 0.96329  0.20920  0.84227  Biso   1.000  O
  O58      1.0000 0.93131  0.25719  0.83118  Biso   1.000  O
  C59      1.0000 0.93990  0.72980  0.34547  Biso   1.000  C
  C60      1.0000 0.91586  0.71940  0.37410  Biso   1.000  C
  N30      1.0000 0.91618  0.68951  0.39120  Biso   1.000  N
  O59      1.0000 0.96329  0.70920  0.34227  Biso   1.000  O
  O60      1.0000 0.93131  0.75719  0.33118  Biso   1.000  O
  C61      1.0000 0.43990  0.22980  0.34547  Biso   1.000  C
  C62      1.0000 0.41586  0.21940  0.37410  Biso   1.000  C
  N31      1.0000 0.41618  0.18951  0.39120  Biso   1.000  N
  O61      1.0000 0.46329  0.20920  0.34227  Biso   1.000  O
  O62      1.0000 0.43131  0.25719  0.33118  Biso   1.000  O
  C63      1.0000 0.43990  0.72980  0.84547  Biso   1.000  C
  C64      1.0000 0.41586  0.71940  0.87410  Biso   1.000  C
  N32      1.0000 0.41618  0.68951  0.89120  Biso   1.000  N
  O63      1.0000 0.46329  0.70920  0.84227  Biso   1.000  O
  O64      1.0000 0.43131  0.75719  0.83118  Biso   1.000  O
  C65      1.0000 0.15453  0.06010  0.22980  Biso   1.000  C
  C66      1.0000 0.12590  0.08414  0.21940  Biso   1.000  C
  N33      1.0000 0.10880  0.08382  0.18951  Biso   1.000  N
  O65      1.0000 0.15773  0.03671  0.20920  Biso   1.000  O
  O66      1.0000 0.16882  0.06869  0.25719  Biso   1.000  O
  C67      1.0000 0.15453  0.56010  0.72980  Biso   1.000  C
  C68      1.0000 0.12590  0.58414  0.71940  Biso   1.000  C
  N34      1.0000 0.10880  0.58382  0.68951  Biso   1.000  N
  O67      1.0000 0.15773  0.53671  0.70920  Biso   1.000  O
  O68      1.0000 0.16882  0.56869  0.75719  Biso   1.000  O
  C69      1.0000 0.65453  0.06010  0.72980  Biso   1.000  C
  C70      1.0000 0.62590  0.08414  0.71940  Biso   1.000  C
  N35      1.0000 0.60880  0.08382  0.68951  Biso   1.000  N
  O69      1.0000 0.65773  0.03671  0.70920  Biso   1.000  O
  O70      1.0000 0.66882  0.06869  0.75719  Biso   1.000  O
  C71      1.0000 0.65453  0.56010  0.22980  Biso   1.000  C
  C72      1.0000 0.62590  0.58414  0.21940  Biso   1.000  C
  N36      1.0000 0.60880  0.58382  0.18951  Biso   1.000  N
  O71      1.0000 0.65773  0.53671  0.20920  Biso   1.000  O
  O72      1.0000 0.66882  0.56869  0.25719  Biso   1.000  O
  C73      1.0000 0.84547  0.06010  0.77020  Biso   1.000  C
  C74      1.0000 0.87410  0.08414  0.78060  Biso   1.000  C
  N37      1.0000 0.89120  0.08382  0.81049  Biso   1.000  N
  O73      1.0000 0.84227  0.03671  0.79080  Biso   1.000  O
  O74      1.0000 0.83118  0.06869  0.74281  Biso   1.000  O
  C75      1.0000 0.84547  0.56010  0.27020  Biso   1.000  C
  C76      1.0000 0.87410  0.58414  0.28060  Biso   1.000  C
  N38      1.0000 0.89120  0.58382  0.31049  Biso   1.000  N
  O75      1.0000 0.84227  0.53671  0.29080  Biso   1.000  O
  O76      1.0000 0.83118  0.56869  0.24281  Biso   1.000  O
  C77      1.0000 0.34547  0.06010  0.27020  Biso   1.000  C
  C78      1.0000 0.37410  0.08414  0.28060  Biso   1.000  C
  N39      1.0000 0.39120  0.08382  0.31049  Biso   1.000  N
  O77      1.0000 0.34227  0.03671  0.29080  Biso   1.000  O
  O78      1.0000 0.33118  0.06869  0.24281  Biso   1.000  O
  C79      1.0000 0.34547  0.56010  0.77020  Biso   1.000  C
  C80      1.0000 0.37410  0.58414  0.78060  Biso   1.000  C
  N40      1.0000 0.39120  0.58382  0.81049  Biso   1.000  N
  O79      1.0000 0.34227  0.53671  0.79080  Biso   1.000  O
  O80      1.0000 0.33118  0.56869  0.74281  Biso   1.000  O
  C81      1.0000 0.15453  0.93990  0.77020  Biso   1.000  C
  C82      1.0000 0.12590  0.91586  0.78060  Biso   1.000  C
  N41      1.0000 0.10880  0.91618  0.81049  Biso   1.000  N
  O81      1.0000 0.15773  0.96329  0.79080  Biso   1.000  O
  O82      1.0000 0.16882  0.93131  0.74281  Biso   1.000  O
  C83      1.0000 0.15453  0.43990  0.27020  Biso   1.000  C
  C84      1.0000 0.12590  0.41586  0.28060  Biso   1.000  C
  N42      1.0000 0.10880  0.41618  0.31049  Biso   1.000  N
  O83      1.0000 0.15773  0.46329  0.29080  Biso   1.000  O
  O84      1.0000 0.16882  0.43131  0.24281  Biso   1.000  O
  C85      1.0000 0.65453  0.93990  0.27020  Biso   1.000  C
  C86      1.0000 0.62590  0.91586  0.28060  Biso   1.000  C
  N43      1.0000 0.60880  0.91618  0.31049  Biso   1.000  N
  O85      1.0000 0.65773  0.96329  0.29080  Biso   1.000  O
  O86      1.0000 0.66882  0.93131  0.24281  Biso   1.000  O
  C87      1.0000 0.65453  0.43990  0.77020  Biso   1.000  C
  C88      1.0000 0.62590  0.41586  0.78060  Biso   1.000  C
  N44      1.0000 0.60880  0.41618  0.81049  Biso   1.000  N
  O87      1.0000 0.65773  0.46329  0.79080  Biso   1.000  O
  O88      1.0000 0.66882  0.43131  0.74281  Biso   1.000  O
  C89      1.0000 0.84547  0.93990  0.22980  Biso   1.000  C
  C90      1.0000 0.87410  0.91586  0.21940  Biso   1.000  C
  N45      1.0000 0.89120  0.91618  0.18951  Biso   1.000  N
  O89      1.0000 0.84227  0.96329  0.20920  Biso   1.000  O
  O90      1.0000 0.83118  0.93131  0.25719  Biso   1.000  O
  C91      1.0000 0.84547  0.43990  0.72980  Biso   1.000  C
  C92      1.0000 0.87410  0.41586  0.71940  Biso   1.000  C
  N46      1.0000 0.89120  0.41618  0.68951  Biso   1.000  N
  O91      1.0000 0.84227  0.46329  0.70920  Biso   1.000  O
  O92      1.0000 0.83118  0.43131  0.75719  Biso   1.000  O
  C93      1.0000 0.34547  0.93990  0.72980  Biso   1.000  C
  C94      1.0000 0.37410  0.91586  0.71940  Biso   1.000  C
  N47      1.0000 0.39120  0.91618  0.68951  Biso   1.000  N
  O93      1.0000 0.34227  0.96329  0.70920  Biso   1.000  O
  O94      1.0000 0.33118  0.93131  0.75719  Biso   1.000  O
  C95      1.0000 0.34547  0.43990  0.22980  Biso   1.000  C
  C96      1.0000 0.37410  0.41586  0.21940  Biso   1.000  C
  N48      1.0000 0.39120  0.41618  0.18951  Biso   1.000  N
  O95      1.0000 0.34227  0.46329  0.20920  Biso   1.000  O
  O96      1.0000 0.33118  0.43131  0.25719  Biso   1.000  O
  C97      1.0000 0.15453  0.22980  0.93990  Biso   1.000  C
  C98      1.0000 0.12590  0.21940  0.91586  Biso   1.000  C
  N49      1.0000 0.10880  0.18951  0.91618  Biso   1.000  N
  O97      1.0000 0.15773  0.20920  0.96329  Biso   1.000  O
  O98      1.0000 0.16882  0.25719  0.93131  Biso   1.000  O
  C99      1.0000 0.15453  0.72980  0.43990  Biso   1.000  C
  C100     1.0000 0.12590  0.71940  0.41586  Biso   1.000  C
  N50      1.0000 0.10880  0.68951  0.41618  Biso   1.000  N
  O99      1.0000 0.15773  0.70920  0.46329  Biso   1.000  O
  O100     1.0000 0.16882  0.75719  0.43131  Biso   1.000  O
  C101     1.0000 0.65453  0.22980  0.43990  Biso   1.000  C
  C102     1.0000 0.62590  0.21940  0.41586  Biso   1.000  C
  N51      1.0000 0.60880  0.18951  0.41618  Biso   1.000  N
  O101     1.0000 0.65773  0.20920  0.46329  Biso   1.000  O
  O102     1.0000 0.66882  0.25719  0.43131  Biso   1.000  O
  C103     1.0000 0.65453  0.72980  0.93990  Biso   1.000  C
  C104     1.0000 0.62590  0.71940  0.91586  Biso   1.000  C
  N52      1.0000 0.60880  0.68951  0.91618  Biso   1.000  N
  O103     1.0000 0.65773  0.70920  0.96329  Biso   1.000  O
  O104     1.0000 0.66882  0.75719  0.93131  Biso   1.000  O
  C105     1.0000 0.84547  0.77020  0.93990  Biso   1.000  C
  C106     1.0000 0.87410  0.78060  0.91586  Biso   1.000  C
  N53      1.0000 0.89120  0.81049  0.91618  Biso   1.000  N
  O105     1.0000 0.84227  0.79080  0.96329  Biso   1.000  O
  O106     1.0000 0.83118  0.74281  0.93131  Biso   1.000  O
  C107     1.0000 0.84547  0.27020  0.43990  Biso   1.000  C
  C108     1.0000 0.87410  0.28060  0.41586  Biso   1.000  C
  N54      1.0000 0.89120  0.31049  0.41618  Biso   1.000  N
  O107     1.0000 0.84227  0.29080  0.46329  Biso   1.000  O
  O108     1.0000 0.83118  0.24281  0.43131  Biso   1.000  O
  C109     1.0000 0.34547  0.77020  0.43990  Biso   1.000  C
  C110     1.0000 0.37410  0.78060  0.41586  Biso   1.000  C
  N55      1.0000 0.39120  0.81049  0.41618  Biso   1.000  N
  O109     1.0000 0.34227  0.79080  0.46329  Biso   1.000  O
  O110     1.0000 0.33118  0.74281  0.43131  Biso   1.000  O
  C111     1.0000 0.34547  0.27020  0.93990  Biso   1.000  C
  C112     1.0000 0.37410  0.28060  0.91586  Biso   1.000  C
  N56      1.0000 0.39120  0.31049  0.91618  Biso   1.000  N
  O111     1.0000 0.34227  0.29080  0.96329  Biso   1.000  O
  O112     1.0000 0.33118  0.24281  0.93131  Biso   1.000  O
  C113     1.0000 0.15453  0.77020  0.06010  Biso   1.000  C
  C114     1.0000 0.12590  0.78060  0.08414  Biso   1.000  C
  N57      1.0000 0.10880  0.81049  0.08382  Biso   1.000  N
  O113     1.0000 0.15773  0.79080  0.03671  Biso   1.000  O
  O114     1.0000 0.16882  0.74281  0.06869  Biso   1.000  O
  C115     1.0000 0.15453  0.27020  0.56010  Biso   1.000  C
  C116     1.0000 0.12590  0.28060  0.58414  Biso   1.000  C
  N58      1.0000 0.10880  0.31049  0.58382  Biso   1.000  N
  O115     1.0000 0.15773  0.29080  0.53671  Biso   1.000  O
  O116     1.0000 0.16882  0.24281  0.56869  Biso   1.000  O
  C117     1.0000 0.65453  0.77020  0.56010  Biso   1.000  C
  C118     1.0000 0.62590  0.78060  0.58414  Biso   1.000  C
  N59      1.0000 0.60880  0.81049  0.58382  Biso   1.000  N
  O117     1.0000 0.65773  0.79080  0.53671  Biso   1.000  O
  O118     1.0000 0.66882  0.74281  0.56869  Biso   1.000  O
  C119     1.0000 0.65453  0.27020  0.06010  Biso   1.000  C
  C120     1.0000 0.62590  0.28060  0.08414  Biso   1.000  C
  N60      1.0000 0.60880  0.31049  0.08382  Biso   1.000  N
  O119     1.0000 0.65773  0.29080  0.03671  Biso   1.000  O
  O120     1.0000 0.66882  0.24281  0.06869  Biso   1.000  O
  C121     1.0000 0.84547  0.22980  0.06010  Biso   1.000  C
  C122     1.0000 0.87410  0.21940  0.08414  Biso   1.000  C
  N61      1.0000 0.89120  0.18951  0.08382  Biso   1.000  N
  O121     1.0000 0.84227  0.20920  0.03671  Biso   1.000  O
  O122     1.0000 0.83118  0.25719  0.06869  Biso   1.000  O
  C123     1.0000 0.84547  0.72980  0.56010  Biso   1.000  C
  C124     1.0000 0.87410  0.71940  0.58414  Biso   1.000  C
  N62      1.0000 0.89120  0.68951  0.58382  Biso   1.000  N
  O123     1.0000 0.84227  0.70920  0.53671  Biso   1.000  O
  O124     1.0000 0.83118  0.75719  0.56869  Biso   1.000  O
  C125     1.0000 0.34547  0.22980  0.56010  Biso   1.000  C
  C126     1.0000 0.37410  0.21940  0.58414  Biso   1.000  C
  N63      1.0000 0.39120  0.18951  0.58382  Biso   1.000  N
  O125     1.0000 0.34227  0.20920  0.53671  Biso   1.000  O
  O126     1.0000 0.33118  0.25719  0.56869  Biso   1.000  O
  C127     1.0000 0.34547  0.72980  0.06010  Biso   1.000  C
  C128     1.0000 0.37410  0.71940  0.08414  Biso   1.000  C
  N64      1.0000 0.39120  0.68951  0.08382  Biso   1.000  N
  O127     1.0000 0.34227  0.70920  0.03671  Biso   1.000  O
  O128     1.0000 0.33118  0.75719  0.06869  Biso   1.000  O
  C129     1.0000 0.22980  0.06010  0.84547  Biso   1.000  C
  C130     1.0000 0.21940  0.08414  0.87410  Biso   1.000  C
  N65      1.0000 0.18951  0.08382  0.89120  Biso   1.000  N
  O129     1.0000 0.20920  0.03671  0.84227  Biso   1.000  O
  O130     1.0000 0.25719  0.06869  0.83118  Biso   1.000  O
  C131     1.0000 0.22980  0.56010  0.34547  Biso   1.000  C
  C132     1.0000 0.21940  0.58414  0.37410  Biso   1.000  C
  N66      1.0000 0.18951  0.58382  0.39120  Biso   1.000  N
  O131     1.0000 0.20920  0.53671  0.34227  Biso   1.000  O
  O132     1.0000 0.25719  0.56869  0.33118  Biso   1.000  O
  C133     1.0000 0.72980  0.06010  0.34547  Biso   1.000  C
  C134     1.0000 0.71940  0.08414  0.37410  Biso   1.000  C
  N67      1.0000 0.68951  0.08382  0.39120  Biso   1.000  N
  O133     1.0000 0.70920  0.03671  0.34227  Biso   1.000  O
  O134     1.0000 0.75719  0.06869  0.33118  Biso   1.000  O
  C135     1.0000 0.72980  0.56010  0.84547  Biso   1.000  C
  C136     1.0000 0.71940  0.58414  0.87410  Biso   1.000  C
  N68      1.0000 0.68951  0.58382  0.89120  Biso   1.000  N
  O135     1.0000 0.70920  0.53671  0.84227  Biso   1.000  O
  O136     1.0000 0.75719  0.56869  0.83118  Biso   1.000  O
  C137     1.0000 0.77020  0.06010  0.15453  Biso   1.000  C
  C138     1.0000 0.78060  0.08414  0.12590  Biso   1.000  C
  N69      1.0000 0.81049  0.08382  0.10880  Biso   1.000  N
  O137     1.0000 0.79080  0.03671  0.15773  Biso   1.000  O
  O138     1.0000 0.74281  0.06869  0.16882  Biso   1.000  O
  C139     1.0000 0.77020  0.56010  0.65453  Biso   1.000  C
  C140     1.0000 0.78060  0.58414  0.62590  Biso   1.000  C
  N70      1.0000 0.81049  0.58382  0.60880  Biso   1.000  N
  O139     1.0000 0.79080  0.53671  0.65773  Biso   1.000  O
  O140     1.0000 0.74281  0.56869  0.66882  Biso   1.000  O
  C141     1.0000 0.27020  0.06010  0.65453  Biso   1.000  C
  C142     1.0000 0.28060  0.08414  0.62590  Biso   1.000  C
  N71      1.0000 0.31049  0.08382  0.60880  Biso   1.000  N
  O141     1.0000 0.29080  0.03671  0.65773  Biso   1.000  O
  O142     1.0000 0.24281  0.06869  0.66882  Biso   1.000  O
  C143     1.0000 0.27020  0.56010  0.15453  Biso   1.000  C
  C144     1.0000 0.28060  0.58414  0.12590  Biso   1.000  C
  N72      1.0000 0.31049  0.58382  0.10880  Biso   1.000  N
  O143     1.0000 0.29080  0.53671  0.15773  Biso   1.000  O
  O144     1.0000 0.24281  0.56869  0.16882  Biso   1.000  O
  C145     1.0000 0.77020  0.93990  0.84547  Biso   1.000  C
  C146     1.0000 0.78060  0.91586  0.87410  Biso   1.000  C
  N73      1.0000 0.81049  0.91618  0.89120  Biso   1.000  N
  O145     1.0000 0.79080  0.96329  0.84227  Biso   1.000  O
  O146     1.0000 0.74281  0.93131  0.83118  Biso   1.000  O
  C147     1.0000 0.77020  0.43990  0.34547  Biso   1.000  C
  C148     1.0000 0.78060  0.41586  0.37410  Biso   1.000  C
  N74      1.0000 0.81049  0.41618  0.39120  Biso   1.000  N
  O147     1.0000 0.79080  0.46329  0.34227  Biso   1.000  O
  O148     1.0000 0.74281  0.43131  0.33118  Biso   1.000  O
  C149     1.0000 0.27020  0.93990  0.34547  Biso   1.000  C
  C150     1.0000 0.28060  0.91586  0.37410  Biso   1.000  C
  N75      1.0000 0.31049  0.91618  0.39120  Biso   1.000  N
  O149     1.0000 0.29080  0.96329  0.34227  Biso   1.000  O
  O150     1.0000 0.24281  0.93131  0.33118  Biso   1.000  O
  C151     1.0000 0.27020  0.43990  0.84547  Biso   1.000  C
  C152     1.0000 0.28060  0.41586  0.87410  Biso   1.000  C
  N76      1.0000 0.31049  0.41618  0.89120  Biso   1.000  N
  O151     1.0000 0.29080  0.46329  0.84227  Biso   1.000  O
  O152     1.0000 0.24281  0.43131  0.83118  Biso   1.000  O
  C153     1.0000 0.22980  0.93990  0.15453  Biso   1.000  C
  C154     1.0000 0.21940  0.91586  0.12590  Biso   1.000  C
  N77      1.0000 0.18951  0.91618  0.10880  Biso   1.000  N
  O153     1.0000 0.20920  0.96329  0.15773  Biso   1.000  O
  O154     1.0000 0.25719  0.93131  0.16882  Biso   1.000  O
  C155     1.0000 0.22980  0.43990  0.65453  Biso   1.000  C
  C156     1.0000 0.21940  0.41586  0.62590  Biso   1.000  C
  N78      1.0000 0.18951  0.41618  0.60880  Biso   1.000  N
  O155     1.0000 0.20920  0.46329  0.65773  Biso   1.000  O
  O156     1.0000 0.25719  0.43131  0.66882  Biso   1.000  O
  C157     1.0000 0.72980  0.93990  0.65453  Biso   1.000  C
  C158     1.0000 0.71940  0.91586  0.62590  Biso   1.000  C
  N79      1.0000 0.68951  0.91618  0.60880  Biso   1.000  N
  O157     1.0000 0.70920  0.96329  0.65773  Biso   1.000  O
  O158     1.0000 0.75719  0.93131  0.66882  Biso   1.000  O
  C159     1.0000 0.72980  0.43990  0.15453  Biso   1.000  C
  C160     1.0000 0.71940  0.41586  0.12590  Biso   1.000  C
  N80      1.0000 0.68951  0.41618  0.10880  Biso   1.000  N
  O159     1.0000 0.70920  0.46329  0.15773  Biso   1.000  O
  O160     1.0000 0.75719  0.43131  0.16882  Biso   1.000  O
  C161     1.0000 0.06010  0.15453  0.77020  Biso   1.000  C
  C162     1.0000 0.08414  0.12590  0.78060  Biso   1.000  C
  N81      1.0000 0.08382  0.10880  0.81049  Biso   1.000  N
  O161     1.0000 0.03671  0.15773  0.79080  Biso   1.000  O
  O162     1.0000 0.06869  0.16882  0.74281  Biso   1.000  O
  C163     1.0000 0.06010  0.65453  0.27020  Biso   1.000  C
  C164     1.0000 0.08414  0.62590  0.28060  Biso   1.000  C
  N82      1.0000 0.08382  0.60880  0.31049  Biso   1.000  N
  O163     1.0000 0.03671  0.65773  0.29080  Biso   1.000  O
  O164     1.0000 0.06869  0.66882  0.24281  Biso   1.000  O
  C165     1.0000 0.56010  0.15453  0.27020  Biso   1.000  C
  C166     1.0000 0.58414  0.12590  0.28060  Biso   1.000  C
  N83      1.0000 0.58382  0.10880  0.31049  Biso   1.000  N
  O165     1.0000 0.53671  0.15773  0.29080  Biso   1.000  O
  O166     1.0000 0.56869  0.16882  0.24281  Biso   1.000  O
  C167     1.0000 0.56010  0.65453  0.77020  Biso   1.000  C
  C168     1.0000 0.58414  0.62590  0.78060  Biso   1.000  C
  N84      1.0000 0.58382  0.60880  0.81049  Biso   1.000  N
  O167     1.0000 0.53671  0.65773  0.79080  Biso   1.000  O
  O168     1.0000 0.56869  0.66882  0.74281  Biso   1.000  O
  C169     1.0000 0.06010  0.84547  0.22980  Biso   1.000  C
  C170     1.0000 0.08414  0.87410  0.21940  Biso   1.000  C
  N85      1.0000 0.08382  0.89120  0.18951  Biso   1.000  N
  O169     1.0000 0.03671  0.84227  0.20920  Biso   1.000  O
  O170     1.0000 0.06869  0.83118  0.25719  Biso   1.000  O
  C171     1.0000 0.06010  0.34547  0.72980  Biso   1.000  C
  C172     1.0000 0.08414  0.37410  0.71940  Biso   1.000  C
  N86      1.0000 0.08382  0.39120  0.68951  Biso   1.000  N
  O171     1.0000 0.03671  0.34227  0.70920  Biso   1.000  O
  O172     1.0000 0.06869  0.33118  0.75719  Biso   1.000  O
  C173     1.0000 0.56010  0.84547  0.72980  Biso   1.000  C
  C174     1.0000 0.58414  0.87410  0.71940  Biso   1.000  C
  N87      1.0000 0.58382  0.89120  0.68951  Biso   1.000  N
  O173     1.0000 0.53671  0.84227  0.70920  Biso   1.000  O
  O174     1.0000 0.56869  0.83118  0.75719  Biso   1.000  O
  C175     1.0000 0.56010  0.34547  0.22980  Biso   1.000  C
  C176     1.0000 0.58414  0.37410  0.21940  Biso   1.000  C
  N88      1.0000 0.58382  0.39120  0.18951  Biso   1.000  N
  O175     1.0000 0.53671  0.34227  0.20920  Biso   1.000  O
  O176     1.0000 0.56869  0.33118  0.25719  Biso   1.000  O
  C177     1.0000 0.93990  0.15453  0.22980  Biso   1.000  C
  C178     1.0000 0.91586  0.12590  0.21940  Biso   1.000  C
  N89      1.0000 0.91618  0.10880  0.18951  Biso   1.000  N
  O177     1.0000 0.96329  0.15773  0.20920  Biso   1.000  O
  O178     1.0000 0.93131  0.16882  0.25719  Biso   1.000  O
  C179     1.0000 0.93990  0.65453  0.72980  Biso   1.000  C
  C180     1.0000 0.91586  0.62590  0.71940  Biso   1.000  C
  N90      1.0000 0.91618  0.60880  0.68951  Biso   1.000  N
  O179     1.0000 0.96329  0.65773  0.70920  Biso   1.000  O
  O180     1.0000 0.93131  0.66882  0.75719  Biso   1.000  O
  C181     1.0000 0.43990  0.15453  0.72980  Biso   1.000  C
  C182     1.0000 0.41586  0.12590  0.71940  Biso   1.000  C
  N91      1.0000 0.41618  0.10880  0.68951  Biso   1.000  N
  O181     1.0000 0.46329  0.15773  0.70920  Biso   1.000  O
  O182     1.0000 0.43131  0.16882  0.75719  Biso   1.000  O
  C183     1.0000 0.43990  0.65453  0.22980  Biso   1.000  C
  C184     1.0000 0.41586  0.62590  0.21940  Biso   1.000  C
  N92      1.0000 0.41618  0.60880  0.18951  Biso   1.000  N
  O183     1.0000 0.46329  0.65773  0.20920  Biso   1.000  O
  O184     1.0000 0.43131  0.66882  0.25719  Biso   1.000  O
  C185     1.0000 0.93990  0.84547  0.77020  Biso   1.000  C
  C186     1.0000 0.91586  0.87410  0.78060  Biso   1.000  C
  N93      1.0000 0.91618  0.89120  0.81049  Biso   1.000  N
  O185     1.0000 0.96329  0.84227  0.79080  Biso   1.000  O
  O186     1.0000 0.93131  0.83118  0.74281  Biso   1.000  O
  C187     1.0000 0.93990  0.34547  0.27020  Biso   1.000  C
  C188     1.0000 0.91586  0.37410  0.28060  Biso   1.000  C
  N94      1.0000 0.91618  0.39120  0.31049  Biso   1.000  N
  O187     1.0000 0.96329  0.34227  0.29080  Biso   1.000  O
  O188     1.0000 0.93131  0.33118  0.24281  Biso   1.000  O
  C189     1.0000 0.43990  0.84547  0.27020  Biso   1.000  C
  C190     1.0000 0.41586  0.87410  0.28060  Biso   1.000  C
  N95      1.0000 0.41618  0.89120  0.31049  Biso   1.000  N
  O189     1.0000 0.46329  0.84227  0.29080  Biso   1.000  O
  O190     1.0000 0.43131  0.83118  0.24281  Biso   1.000  O
  C191     1.0000 0.43990  0.34547  0.77020  Biso   1.000  C
  C192     1.0000 0.41586  0.37410  0.78060  Biso   1.000  C
  N96      1.0000 0.41618  0.39120  0.81049  Biso   1.000  N
  O191     1.0000 0.46329  0.34227  0.79080  Biso   1.000  O
  O192     1.0000 0.43131  0.33118  0.74281  Biso   1.000  O
  C193     1.0000 0.77020  0.84547  0.93990  Biso   1.000  C
  C194     1.0000 0.78060  0.87410  0.91586  Biso   1.000  C
  N97      1.0000 0.81049  0.89120  0.91618  Biso   1.000  N
  O193     1.0000 0.79080  0.84227  0.96329  Biso   1.000  O
  O194     1.0000 0.74281  0.83118  0.93131  Biso   1.000  O
  C195     1.0000 0.77020  0.34547  0.43990  Biso   1.000  C
  C196     1.0000 0.78060  0.37410  0.41586  Biso   1.000  C
  N98      1.0000 0.81049  0.39120  0.41618  Biso   1.000  N
  O195     1.0000 0.79080  0.34227  0.46329  Biso   1.000  O
  O196     1.0000 0.74281  0.33118  0.43131  Biso   1.000  O
  C197     1.0000 0.27020  0.84547  0.43990  Biso   1.000  C
  C198     1.0000 0.28060  0.87410  0.41586  Biso   1.000  C
  N99      1.0000 0.31049  0.89120  0.41618  Biso   1.000  N
  O197     1.0000 0.29080  0.84227  0.46329  Biso   1.000  O
  O198     1.0000 0.24281  0.83118  0.43131  Biso   1.000  O
  C199     1.0000 0.27020  0.34547  0.93990  Biso   1.000  C
  C200     1.0000 0.28060  0.37410  0.91586  Biso   1.000  C
  N100     1.0000 0.31049  0.39120  0.91618  Biso   1.000  N
  O199     1.0000 0.29080  0.34227  0.96329  Biso   1.000  O
  O200     1.0000 0.24281  0.33118  0.93131  Biso   1.000  O
  C201     1.0000 0.22980  0.15453  0.93990  Biso   1.000  C
  C202     1.0000 0.21940  0.12590  0.91586  Biso   1.000  C
  N101     1.0000 0.18951  0.10880  0.91618  Biso   1.000  N
  O201     1.0000 0.20920  0.15773  0.96329  Biso   1.000  O
  O202     1.0000 0.25719  0.16882  0.93131  Biso   1.000  O
  C203     1.0000 0.22980  0.65453  0.43990  Biso   1.000  C
  C204     1.0000 0.21940  0.62590  0.41586  Biso   1.000  C
  N102     1.0000 0.18951  0.60880  0.41618  Biso   1.000  N
  O203     1.0000 0.20920  0.65773  0.46329  Biso   1.000  O
  O204     1.0000 0.25719  0.66882  0.43131  Biso   1.000  O
  C205     1.0000 0.72980  0.15453  0.43990  Biso   1.000  C
  C206     1.0000 0.71940  0.12590  0.41586  Biso   1.000  C
  N103     1.0000 0.68951  0.10880  0.41618  Biso   1.000  N
  O205     1.0000 0.70920  0.15773  0.46329  Biso   1.000  O
  O206     1.0000 0.75719  0.16882  0.43131  Biso   1.000  O
  C207     1.0000 0.72980  0.65453  0.93990  Biso   1.000  C
  C208     1.0000 0.71940  0.62590  0.91586  Biso   1.000  C
  N104     1.0000 0.68951  0.60880  0.91618  Biso   1.000  N
  O207     1.0000 0.70920  0.65773  0.96329  Biso   1.000  O
  O208     1.0000 0.75719  0.66882  0.93131  Biso   1.000  O
  C209     1.0000 0.22980  0.84547  0.06010  Biso   1.000  C
  C210     1.0000 0.21940  0.87410  0.08414  Biso   1.000  C
  N105     1.0000 0.18951  0.89120  0.08382  Biso   1.000  N
  O209     1.0000 0.20920  0.84227  0.03671  Biso   1.000  O
  O210     1.0000 0.25719  0.83118  0.06869  Biso   1.000  O
  C211     1.0000 0.22980  0.34547  0.56010  Biso   1.000  C
  C212     1.0000 0.21940  0.37410  0.58414  Biso   1.000  C
  N106     1.0000 0.18951  0.39120  0.58382  Biso   1.000  N
  O211     1.0000 0.20920  0.34227  0.53671  Biso   1.000  O
  O212     1.0000 0.25719  0.33118  0.56869  Biso   1.000  O
  C213     1.0000 0.72980  0.84547  0.56010  Biso   1.000  C
  C214     1.0000 0.71940  0.87410  0.58414  Biso   1.000  C
  N107     1.0000 0.68951  0.89120  0.58382  Biso   1.000  N
  O213     1.0000 0.70920  0.84227  0.53671  Biso   1.000  O
  O214     1.0000 0.75719  0.83118  0.56869  Biso   1.000  O
  C215     1.0000 0.72980  0.34547  0.06010  Biso   1.000  C
  C216     1.0000 0.71940  0.37410  0.08414  Biso   1.000  C
  N108     1.0000 0.68951  0.39120  0.08382  Biso   1.000  N
  O215     1.0000 0.70920  0.34227  0.03671  Biso   1.000  O
  O216     1.0000 0.75719  0.33118  0.06869  Biso   1.000  O
  C217     1.0000 0.77020  0.15453  0.06010  Biso   1.000  C
  C218     1.0000 0.78060  0.12590  0.08414  Biso   1.000  C
  N109     1.0000 0.81049  0.10880  0.08382  Biso   1.000  N
  O217     1.0000 0.79080  0.15773  0.03671  Biso   1.000  O
  O218     1.0000 0.74281  0.16882  0.06869  Biso   1.000  O
  C219     1.0000 0.77020  0.65453  0.56010  Biso   1.000  C
  C220     1.0000 0.78060  0.62590  0.58414  Biso   1.000  C
  N110     1.0000 0.81049  0.60880  0.58382  Biso   1.000  N
  O219     1.0000 0.79080  0.65773  0.53671  Biso   1.000  O
  O220     1.0000 0.74281  0.66882  0.56869  Biso   1.000  O
  C221     1.0000 0.27020  0.15453  0.56010  Biso   1.000  C
  C222     1.0000 0.28060  0.12590  0.58414  Biso   1.000  C
  N111     1.0000 0.31049  0.10880  0.58382  Biso   1.000  N
  O221     1.0000 0.29080  0.15773  0.53671  Biso   1.000  O
  O222     1.0000 0.24281  0.16882  0.56869  Biso   1.000  O
  C223     1.0000 0.27020  0.65453  0.06010  Biso   1.000  C
  C224     1.0000 0.28060  0.62590  0.08414  Biso   1.000  C
  N112     1.0000 0.31049  0.60880  0.08382  Biso   1.000  N
  O223     1.0000 0.29080  0.65773  0.03671  Biso   1.000  O
  O224     1.0000 0.24281  0.66882  0.06869  Biso   1.000  O
  C225     1.0000 0.93990  0.77020  0.84547  Biso   1.000  C
  C226     1.0000 0.91586  0.78060  0.87410  Biso   1.000  C
  N113     1.0000 0.91618  0.81049  0.89120  Biso   1.000  N
  O225     1.0000 0.96329  0.79080  0.84227  Biso   1.000  O
  O226     1.0000 0.93131  0.74281  0.83118  Biso   1.000  O
  C227     1.0000 0.93990  0.27020  0.34547  Biso   1.000  C
  C228     1.0000 0.91586  0.28060  0.37410  Biso   1.000  C
  N114     1.0000 0.91618  0.31049  0.39120  Biso   1.000  N
  O227     1.0000 0.96329  0.29080  0.34227  Biso   1.000  O
  O228     1.0000 0.93131  0.24281  0.33118  Biso   1.000  O
  C229     1.0000 0.43990  0.77020  0.34547  Biso   1.000  C
  C230     1.0000 0.41586  0.78060  0.37410  Biso   1.000  C
  N115     1.0000 0.41618  0.81049  0.39120  Biso   1.000  N
  O229     1.0000 0.46329  0.79080  0.34227  Biso   1.000  O
  O230     1.0000 0.43131  0.74281  0.33118  Biso   1.000  O
  C231     1.0000 0.43990  0.27020  0.84547  Biso   1.000  C
  C232     1.0000 0.41586  0.28060  0.87410  Biso   1.000  C
  N116     1.0000 0.41618  0.31049  0.89120  Biso   1.000  N
  O231     1.0000 0.46329  0.29080  0.84227  Biso   1.000  O
  O232     1.0000 0.43131  0.24281  0.83118  Biso   1.000  O
  C233     1.0000 0.93990  0.22980  0.15453  Biso   1.000  C
  C234     1.0000 0.91586  0.21940  0.12590  Biso   1.000  C
  N117     1.0000 0.91618  0.18951  0.10880  Biso   1.000  N
  O233     1.0000 0.96329  0.20920  0.15773  Biso   1.000  O
  O234     1.0000 0.93131  0.25719  0.16882  Biso   1.000  O
  C235     1.0000 0.93990  0.72980  0.65453  Biso   1.000  C
  C236     1.0000 0.91586  0.71940  0.62590  Biso   1.000  C
  N118     1.0000 0.91618  0.68951  0.60880  Biso   1.000  N
  O235     1.0000 0.96329  0.70920  0.65773  Biso   1.000  O
  O236     1.0000 0.93131  0.75719  0.66882  Biso   1.000  O
  C237     1.0000 0.43990  0.22980  0.65453  Biso   1.000  C
  C238     1.0000 0.41586  0.21940  0.62590  Biso   1.000  C
  N119     1.0000 0.41618  0.18951  0.60880  Biso   1.000  N
  O237     1.0000 0.46329  0.20920  0.65773  Biso   1.000  O
  O238     1.0000 0.43131  0.25719  0.66882  Biso   1.000  O
  C239     1.0000 0.43990  0.72980  0.15453  Biso   1.000  C
  C240     1.0000 0.41586  0.71940  0.12590  Biso   1.000  C
  N120     1.0000 0.41618  0.68951  0.10880  Biso   1.000  N
  O239     1.0000 0.46329  0.70920  0.15773  Biso   1.000  O
  O240     1.0000 0.43131  0.75719  0.16882  Biso   1.000  O
  C241     1.0000 0.06010  0.22980  0.84547  Biso   1.000  C
  C242     1.0000 0.08414  0.21940  0.87410  Biso   1.000  C
  N121     1.0000 0.08382  0.18951  0.89120  Biso   1.000  N
  O241     1.0000 0.03671  0.20920  0.84227  Biso   1.000  O
  O242     1.0000 0.06869  0.25719  0.83118  Biso   1.000  O
  C243     1.0000 0.06010  0.72980  0.34547  Biso   1.000  C
  C244     1.0000 0.08414  0.71940  0.37410  Biso   1.000  C
  N122     1.0000 0.08382  0.68951  0.39120  Biso   1.000  N
  O243     1.0000 0.03671  0.70920  0.34227  Biso   1.000  O
  O244     1.0000 0.06869  0.75719  0.33118  Biso   1.000  O
  C245     1.0000 0.56010  0.22980  0.34547  Biso   1.000  C
  C246     1.0000 0.58414  0.21940  0.37410  Biso   1.000  C
  N123     1.0000 0.58382  0.18951  0.39120  Biso   1.000  N
  O245     1.0000 0.53671  0.20920  0.34227  Biso   1.000  O
  O246     1.0000 0.56869  0.25719  0.33118  Biso   1.000  O
  C247     1.0000 0.56010  0.72980  0.84547  Biso   1.000  C
  C248     1.0000 0.58414  0.71940  0.87410  Biso   1.000  C
  N124     1.0000 0.58382  0.68951  0.89120  Biso   1.000  N
  O247     1.0000 0.53671  0.70920  0.84227  Biso   1.000  O
  O248     1.0000 0.56869  0.75719  0.83118  Biso   1.000  O
  C249     1.0000 0.06010  0.77020  0.15453  Biso   1.000  C
  C250     1.0000 0.08414  0.78060  0.12590  Biso   1.000  C
  N125     1.0000 0.08382  0.81049  0.10880  Biso   1.000  N
  O249     1.0000 0.03671  0.79080  0.15773  Biso   1.000  O
  O250     1.0000 0.06869  0.74281  0.16882  Biso   1.000  O
  C251     1.0000 0.06010  0.27020  0.65453  Biso   1.000  C
  C252     1.0000 0.08414  0.28060  0.62590  Biso   1.000  C
  N126     1.0000 0.08382  0.31049  0.60880  Biso   1.000  N
  O251     1.0000 0.03671  0.29080  0.65773  Biso   1.000  O
  O252     1.0000 0.06869  0.24281  0.66882  Biso   1.000  O
  C253     1.0000 0.56010  0.77020  0.65453  Biso   1.000  C
  C254     1.0000 0.58414  0.78060  0.62590  Biso   1.000  C
  N127     1.0000 0.58382  0.81049  0.60880  Biso   1.000  N
  O253     1.0000 0.53671  0.79080  0.65773  Biso   1.000  O
  O254     1.0000 0.56869  0.74281  0.66882  Biso   1.000  O
  C255     1.0000 0.56010  0.27020  0.15453  Biso   1.000  C
  C256     1.0000 0.58414  0.28060  0.12590  Biso   1.000  C
  N128     1.0000 0.58382  0.31049  0.10880  Biso   1.000  N
  O255     1.0000 0.53671  0.29080  0.15773  Biso   1.000  O
  O256     1.0000 0.56869  0.24281  0.16882  Biso   1.000  O
  C257     1.0000 0.84547  0.93990  0.77020  Biso   1.000  C
  C258     1.0000 0.87410  0.91586  0.78060  Biso   1.000  C
  N129     1.0000 0.89120  0.91618  0.81049  Biso   1.000  N
  O257     1.0000 0.84227  0.96329  0.79080  Biso   1.000  O
  O258     1.0000 0.83118  0.93131  0.74281  Biso   1.000  O
  C259     1.0000 0.84547  0.43990  0.27020  Biso   1.000  C
  C260     1.0000 0.87410  0.41586  0.28060  Biso   1.000  C
  N130     1.0000 0.89120  0.41618  0.31049  Biso   1.000  N
  O259     1.0000 0.84227  0.46329  0.29080  Biso   1.000  O
  O260     1.0000 0.83118  0.43131  0.24281  Biso   1.000  O
  C261     1.0000 0.34547  0.93990  0.27020  Biso   1.000  C
  C262     1.0000 0.37410  0.91586  0.28060  Biso   1.000  C
  N131     1.0000 0.39120  0.91618  0.31049  Biso   1.000  N
  O261     1.0000 0.34227  0.96329  0.29080  Biso   1.000  O
  O262     1.0000 0.33118  0.93131  0.24281  Biso   1.000  O
  C263     1.0000 0.34547  0.43990  0.77020  Biso   1.000  C
  C264     1.0000 0.37410  0.41586  0.78060  Biso   1.000  C
  N132     1.0000 0.39120  0.41618  0.81049  Biso   1.000  N
  O263     1.0000 0.34227  0.46329  0.79080  Biso   1.000  O
  O264     1.0000 0.33118  0.43131  0.74281  Biso   1.000  O
  C265     1.0000 0.15453  0.93990  0.22980  Biso   1.000  C
  C266     1.0000 0.12590  0.91586  0.21940  Biso   1.000  C
  N133     1.0000 0.10880  0.91618  0.18951  Biso   1.000  N
  O265     1.0000 0.15773  0.96329  0.20920  Biso   1.000  O
  O266     1.0000 0.16882  0.93131  0.25719  Biso   1.000  O
  C267     1.0000 0.15453  0.43990  0.72980  Biso   1.000  C
  C268     1.0000 0.12590  0.41586  0.71940  Biso   1.000  C
  N134     1.0000 0.10880  0.41618  0.68951  Biso   1.000  N
  O267     1.0000 0.15773  0.46329  0.70920  Biso   1.000  O
  O268     1.0000 0.16882  0.43131  0.75719  Biso   1.000  O
  C269     1.0000 0.65453  0.93990  0.72980  Biso   1.000  C
  C270     1.0000 0.62590  0.91586  0.71940  Biso   1.000  C
  N135     1.0000 0.60880  0.91618  0.68951  Biso   1.000  N
  O269     1.0000 0.65773  0.96329  0.70920  Biso   1.000  O
  O270     1.0000 0.66882  0.93131  0.75719  Biso   1.000  O
  C271     1.0000 0.65453  0.43990  0.22980  Biso   1.000  C
  C272     1.0000 0.62590  0.41586  0.21940  Biso   1.000  C
  N136     1.0000 0.60880  0.41618  0.18951  Biso   1.000  N
  O271     1.0000 0.65773  0.46329  0.20920  Biso   1.000  O
  O272     1.0000 0.66882  0.43131  0.25719  Biso   1.000  O
  C273     1.0000 0.84547  0.06010  0.22980  Biso   1.000  C
  C274     1.0000 0.87410  0.08414  0.21940  Biso   1.000  C
  N137     1.0000 0.89120  0.08382  0.18951  Biso   1.000  N
  O273     1.0000 0.84227  0.03671  0.20920  Biso   1.000  O
  O274     1.0000 0.83118  0.06869  0.25719  Biso   1.000  O
  C275     1.0000 0.84547  0.56010  0.72980  Biso   1.000  C
  C276     1.0000 0.87410  0.58414  0.71940  Biso   1.000  C
  N138     1.0000 0.89120  0.58382  0.68951  Biso   1.000  N
  O275     1.0000 0.84227  0.53671  0.70920  Biso   1.000  O
  O276     1.0000 0.83118  0.56869  0.75719  Biso   1.000  O
  C277     1.0000 0.34547  0.06010  0.72980  Biso   1.000  C
  C278     1.0000 0.37410  0.08414  0.71940  Biso   1.000  C
  N139     1.0000 0.39120  0.08382  0.68951  Biso   1.000  N
  O277     1.0000 0.34227  0.03671  0.70920  Biso   1.000  O
  O278     1.0000 0.33118  0.06869  0.75719  Biso   1.000  O
  C279     1.0000 0.34547  0.56010  0.22980  Biso   1.000  C
  C280     1.0000 0.37410  0.58414  0.21940  Biso   1.000  C
  N140     1.0000 0.39120  0.58382  0.18951  Biso   1.000  N
  O279     1.0000 0.34227  0.53671  0.20920  Biso   1.000  O
  O280     1.0000 0.33118  0.56869  0.25719  Biso   1.000  O
  C281     1.0000 0.15453  0.06010  0.77020  Biso   1.000  C
  C282     1.0000 0.12590  0.08414  0.78060  Biso   1.000  C
  N141     1.0000 0.10880  0.08382  0.81049  Biso   1.000  N
  O281     1.0000 0.15773  0.03671  0.79080  Biso   1.000  O
  O282     1.0000 0.16882  0.06869  0.74281  Biso   1.000  O
  C283     1.0000 0.15453  0.56010  0.27020  Biso   1.000  C
  C284     1.0000 0.12590  0.58414  0.28060  Biso   1.000  C
  N142     1.0000 0.10880  0.58382  0.31049  Biso   1.000  N
  O283     1.0000 0.15773  0.53671  0.29080  Biso   1.000  O
  O284     1.0000 0.16882  0.56869  0.24281  Biso   1.000  O
  C285     1.0000 0.65453  0.06010  0.27020  Biso   1.000  C
  C286     1.0000 0.62590  0.08414  0.28060  Biso   1.000  C
  N143     1.0000 0.60880  0.08382  0.31049  Biso   1.000  N
  O285     1.0000 0.65773  0.03671  0.29080  Biso   1.000  O
  O286     1.0000 0.66882  0.06869  0.24281  Biso   1.000  O
  C287     1.0000 0.65453  0.56010  0.77020  Biso   1.000  C
  C288     1.0000 0.62590  0.58414  0.78060  Biso   1.000  C
  N144     1.0000 0.60880  0.58382  0.81049  Biso   1.000  N
  O287     1.0000 0.65773  0.53671  0.79080  Biso   1.000  O
  O288     1.0000 0.66882  0.56869  0.74281  Biso   1.000  O
  C289     1.0000 0.84547  0.77020  0.06010  Biso   1.000  C
  C290     1.0000 0.87410  0.78060  0.08414  Biso   1.000  C
  N145     1.0000 0.89120  0.81049  0.08382  Biso   1.000  N
  O289     1.0000 0.84227  0.79080  0.03671  Biso   1.000  O
  O290     1.0000 0.83118  0.74281  0.06869  Biso   1.000  O
  C291     1.0000 0.84547  0.27020  0.56010  Biso   1.000  C
  C292     1.0000 0.87410  0.28060  0.58414  Biso   1.000  C
  N146     1.0000 0.89120  0.31049  0.58382  Biso   1.000  N
  O291     1.0000 0.84227  0.29080  0.53671  Biso   1.000  O
  O292     1.0000 0.83118  0.24281  0.56869  Biso   1.000  O
  C293     1.0000 0.34547  0.77020  0.56010  Biso   1.000  C
  C294     1.0000 0.37410  0.78060  0.58414  Biso   1.000  C
  N147     1.0000 0.39120  0.81049  0.58382  Biso   1.000  N
  O293     1.0000 0.34227  0.79080  0.53671  Biso   1.000  O
  O294     1.0000 0.33118  0.74281  0.56869  Biso   1.000  O
  C295     1.0000 0.34547  0.27020  0.06010  Biso   1.000  C
  C296     1.0000 0.37410  0.28060  0.08414  Biso   1.000  C
  N148     1.0000 0.39120  0.31049  0.08382  Biso   1.000  N
  O295     1.0000 0.34227  0.29080  0.03671  Biso   1.000  O
  O296     1.0000 0.33118  0.24281  0.06869  Biso   1.000  O
  C297     1.0000 0.15453  0.22980  0.06010  Biso   1.000  C
  C298     1.0000 0.12590  0.21940  0.08414  Biso   1.000  C
  N149     1.0000 0.10880  0.18951  0.08382  Biso   1.000  N
  O297     1.0000 0.15773  0.20920  0.03671  Biso   1.000  O
  O298     1.0000 0.16882  0.25719  0.06869  Biso   1.000  O
  C299     1.0000 0.15453  0.72980  0.56010  Biso   1.000  C
  C300     1.0000 0.12590  0.71940  0.58414  Biso   1.000  C
  N150     1.0000 0.10880  0.68951  0.58382  Biso   1.000  N
  O299     1.0000 0.15773  0.70920  0.53671  Biso   1.000  O
  O300     1.0000 0.16882  0.75719  0.56869  Biso   1.000  O
  C301     1.0000 0.65453  0.22980  0.56010  Biso   1.000  C
  C302     1.0000 0.62590  0.21940  0.58414  Biso   1.000  C
  N151     1.0000 0.60880  0.18951  0.58382  Biso   1.000  N
  O301     1.0000 0.65773  0.20920  0.53671  Biso   1.000  O
  O302     1.0000 0.66882  0.25719  0.56869  Biso   1.000  O
  C303     1.0000 0.65453  0.72980  0.06010  Biso   1.000  C
  C304     1.0000 0.62590  0.71940  0.08414  Biso   1.000  C
  N152     1.0000 0.60880  0.68951  0.08382  Biso   1.000  N
  O303     1.0000 0.65773  0.70920  0.03671  Biso   1.000  O
  O304     1.0000 0.66882  0.75719  0.06869  Biso   1.000  O
  C305     1.0000 0.84547  0.22980  0.93990  Biso   1.000  C
  C306     1.0000 0.87410  0.21940  0.91586  Biso   1.000  C
  N153     1.0000 0.89120  0.18951  0.91618  Biso   1.000  N
  O305     1.0000 0.84227  0.20920  0.96329  Biso   1.000  O
  O306     1.0000 0.83118  0.25719  0.93131  Biso   1.000  O
  C307     1.0000 0.84547  0.72980  0.43990  Biso   1.000  C
  C308     1.0000 0.87410  0.71940  0.41586  Biso   1.000  C
  N154     1.0000 0.89120  0.68951  0.41618  Biso   1.000  N
  O307     1.0000 0.84227  0.70920  0.46329  Biso   1.000  O
  O308     1.0000 0.83118  0.75719  0.43131  Biso   1.000  O
  C309     1.0000 0.34547  0.22980  0.43990  Biso   1.000  C
  C310     1.0000 0.37410  0.21940  0.41586  Biso   1.000  C
  N155     1.0000 0.39120  0.18951  0.41618  Biso   1.000  N
  O309     1.0000 0.34227  0.20920  0.46329  Biso   1.000  O
  O310     1.0000 0.33118  0.25719  0.43131  Biso   1.000  O
  C311     1.0000 0.34547  0.72980  0.93990  Biso   1.000  C
  C312     1.0000 0.37410  0.71940  0.91586  Biso   1.000  C
  N156     1.0000 0.39120  0.68951  0.91618  Biso   1.000  N
  O311     1.0000 0.34227  0.70920  0.96329  Biso   1.000  O
  O312     1.0000 0.33118  0.75719  0.93131  Biso   1.000  O
  C313     1.0000 0.15453  0.77020  0.93990  Biso   1.000  C
  C314     1.0000 0.12590  0.78060  0.91586  Biso   1.000  C
  N157     1.0000 0.10880  0.81049  0.91618  Biso   1.000  N
  O313     1.0000 0.15773  0.79080  0.96329  Biso   1.000  O
  O314     1.0000 0.16882  0.74281  0.93131  Biso   1.000  O
  C315     1.0000 0.15453  0.27020  0.43990  Biso   1.000  C
  C316     1.0000 0.12590  0.28060  0.41586  Biso   1.000  C
  N158     1.0000 0.10880  0.31049  0.41618  Biso   1.000  N
  O315     1.0000 0.15773  0.29080  0.46329  Biso   1.000  O
  O316     1.0000 0.16882  0.24281  0.43131  Biso   1.000  O
  C317     1.0000 0.65453  0.77020  0.43990  Biso   1.000  C
  C318     1.0000 0.62590  0.78060  0.41586  Biso   1.000  C
  N159     1.0000 0.60880  0.81049  0.41618  Biso   1.000  N
  O317     1.0000 0.65773  0.79080  0.46329  Biso   1.000  O
  O318     1.0000 0.66882  0.74281  0.43131  Biso   1.000  O
  C319     1.0000 0.65453  0.27020  0.93990  Biso   1.000  C
  C320     1.0000 0.62590  0.28060  0.91586  Biso   1.000  C
  N160     1.0000 0.60880  0.31049  0.91618  Biso   1.000  N
  O319     1.0000 0.65773  0.29080  0.96329  Biso   1.000  O
  O320     1.0000 0.66882  0.24281  0.93131  Biso   1.000  O
  C321     1.0000 0.77020  0.93990  0.15453  Biso   1.000  C
  C322     1.0000 0.78060  0.91586  0.12590  Biso   1.000  C
  N161     1.0000 0.81049  0.91618  0.10880  Biso   1.000  N
  O321     1.0000 0.79080  0.96329  0.15773  Biso   1.000  O
  O322     1.0000 0.74281  0.93131  0.16882  Biso   1.000  O
  C323     1.0000 0.77020  0.43990  0.65453  Biso   1.000  C
  C324     1.0000 0.78060  0.41586  0.62590  Biso   1.000  C
  N162     1.0000 0.81049  0.41618  0.60880  Biso   1.000  N
  O323     1.0000 0.79080  0.46329  0.65773  Biso   1.000  O
  O324     1.0000 0.74281  0.43131  0.66882  Biso   1.000  O
  C325     1.0000 0.27020  0.93990  0.65453  Biso   1.000  C
  C326     1.0000 0.28060  0.91586  0.62590  Biso   1.000  C
  N163     1.0000 0.31049  0.91618  0.60880  Biso   1.000  N
  O325     1.0000 0.29080  0.96329  0.65773  Biso   1.000  O
  O326     1.0000 0.24281  0.93131  0.66882  Biso   1.000  O
  C327     1.0000 0.27020  0.43990  0.15453  Biso   1.000  C
  C328     1.0000 0.28060  0.41586  0.12590  Biso   1.000  C
  N164     1.0000 0.31049  0.41618  0.10880  Biso   1.000  N
  O327     1.0000 0.29080  0.46329  0.15773  Biso   1.000  O
  O328     1.0000 0.24281  0.43131  0.16882  Biso   1.000  O
  C329     1.0000 0.22980  0.93990  0.84547  Biso   1.000  C
  C330     1.0000 0.21940  0.91586  0.87410  Biso   1.000  C
  N165     1.0000 0.18951  0.91618  0.89120  Biso   1.000  N
  O329     1.0000 0.20920  0.96329  0.84227  Biso   1.000  O
  O330     1.0000 0.25719  0.93131  0.83118  Biso   1.000  O
  C331     1.0000 0.22980  0.43990  0.34547  Biso   1.000  C
  C332     1.0000 0.21940  0.41586  0.37410  Biso   1.000  C
  N166     1.0000 0.18951  0.41618  0.39120  Biso   1.000  N
  O331     1.0000 0.20920  0.46329  0.34227  Biso   1.000  O
  O332     1.0000 0.25719  0.43131  0.33118  Biso   1.000  O
  C333     1.0000 0.72980  0.93990  0.34547  Biso   1.000  C
  C334     1.0000 0.71940  0.91586  0.37410  Biso   1.000  C
  N167     1.0000 0.68951  0.91618  0.39120  Biso   1.000  N
  O333     1.0000 0.70920  0.96329  0.34227  Biso   1.000  O
  O334     1.0000 0.75719  0.93131  0.33118  Biso   1.000  O
  C335     1.0000 0.72980  0.43990  0.84547  Biso   1.000  C
  C336     1.0000 0.71940  0.41586  0.87410  Biso   1.000  C
  N168     1.0000 0.68951  0.41618  0.89120  Biso   1.000  N
  O335     1.0000 0.70920  0.46329  0.84227  Biso   1.000  O
  O336     1.0000 0.75719  0.43131  0.83118  Biso   1.000  O
  C337     1.0000 0.22980  0.06010  0.15453  Biso   1.000  C
  C338     1.0000 0.21940  0.08414  0.12590  Biso   1.000  C
  N169     1.0000 0.18951  0.08382  0.10880  Biso   1.000  N
  O337     1.0000 0.20920  0.03671  0.15773  Biso   1.000  O
  O338     1.0000 0.25719  0.06869  0.16882  Biso   1.000  O
  C339     1.0000 0.22980  0.56010  0.65453  Biso   1.000  C
  C340     1.0000 0.21940  0.58414  0.62590  Biso   1.000  C
  N170     1.0000 0.18951  0.58382  0.60880  Biso   1.000  N
  O339     1.0000 0.20920  0.53671  0.65773  Biso   1.000  O
  O340     1.0000 0.25719  0.56869  0.66882  Biso   1.000  O
  C341     1.0000 0.72980  0.06010  0.65453  Biso   1.000  C
  C342     1.0000 0.71940  0.08414  0.62590  Biso   1.000  C
  N171     1.0000 0.68951  0.08382  0.60880  Biso   1.000  N
  O341     1.0000 0.70920  0.03671  0.65773  Biso   1.000  O
  O342     1.0000 0.75719  0.06869  0.66882  Biso   1.000  O
  C343     1.0000 0.72980  0.56010  0.15453  Biso   1.000  C
  C344     1.0000 0.71940  0.58414  0.12590  Biso   1.000  C
  N172     1.0000 0.68951  0.58382  0.10880  Biso   1.000  N
  O343     1.0000 0.70920  0.53671  0.15773  Biso   1.000  O
  O344     1.0000 0.75719  0.56869  0.16882  Biso   1.000  O
  C345     1.0000 0.77020  0.06010  0.84547  Biso   1.000  C
  C346     1.0000 0.78060  0.08414  0.87410  Biso   1.000  C
  N173     1.0000 0.81049  0.08382  0.89120  Biso   1.000  N
  O345     1.0000 0.79080  0.03671  0.84227  Biso   1.000  O
  O346     1.0000 0.74281  0.06869  0.83118  Biso   1.000  O
  C347     1.0000 0.77020  0.56010  0.34547  Biso   1.000  C
  C348     1.0000 0.78060  0.58414  0.37410  Biso   1.000  C
  N174     1.0000 0.81049  0.58382  0.39120  Biso   1.000  N
  O347     1.0000 0.79080  0.53671  0.34227  Biso   1.000  O
  O348     1.0000 0.74281  0.56869  0.33118  Biso   1.000  O
  C349     1.0000 0.27020  0.06010  0.34547  Biso   1.000  C
  C350     1.0000 0.28060  0.08414  0.37410  Biso   1.000  C
  N175     1.0000 0.31049  0.08382  0.39120  Biso   1.000  N
  O349     1.0000 0.29080  0.03671  0.34227  Biso   1.000  O
  O350     1.0000 0.24281  0.06869  0.33118  Biso   1.000  O
  C351     1.0000 0.27020  0.56010  0.84547  Biso   1.000  C
  C352     1.0000 0.28060  0.58414  0.87410  Biso   1.000  C
  N176     1.0000 0.31049  0.58382  0.89120  Biso   1.000  N
  O351     1.0000 0.29080  0.53671  0.84227  Biso   1.000  O
  O352     1.0000 0.24281  0.56869  0.83118  Biso   1.000  O
  C353     1.0000 0.93990  0.84547  0.22980  Biso   1.000  C
  C354     1.0000 0.91586  0.87410  0.21940  Biso   1.000  C
  N177     1.0000 0.91618  0.89120  0.18951  Biso   1.000  N
  O353     1.0000 0.96329  0.84227  0.20920  Biso   1.000  O
  O354     1.0000 0.93131  0.83118  0.25719  Biso   1.000  O
  C355     1.0000 0.93990  0.34547  0.72980  Biso   1.000  C
  C356     1.0000 0.91586  0.37410  0.71940  Biso   1.000  C
  N178     1.0000 0.91618  0.39120  0.68951  Biso   1.000  N
  O355     1.0000 0.96329  0.34227  0.70920  Biso   1.000  O
  O356     1.0000 0.93131  0.33118  0.75719  Biso   1.000  O
  C357     1.0000 0.43990  0.84547  0.72980  Biso   1.000  C
  C358     1.0000 0.41586  0.87410  0.71940  Biso   1.000  C
  N179     1.0000 0.41618  0.89120  0.68951  Biso   1.000  N
  O357     1.0000 0.46329  0.84227  0.70920  Biso   1.000  O
  O358     1.0000 0.43131  0.83118  0.75719  Biso   1.000  O
  C359     1.0000 0.43990  0.34547  0.22980  Biso   1.000  C
  C360     1.0000 0.41586  0.37410  0.21940  Biso   1.000  C
  N180     1.0000 0.41618  0.39120  0.18951  Biso   1.000  N
  O359     1.0000 0.46329  0.34227  0.20920  Biso   1.000  O
  O360     1.0000 0.43131  0.33118  0.25719  Biso   1.000  O
  C361     1.0000 0.93990  0.15453  0.77020  Biso   1.000  C
  C362     1.0000 0.91586  0.12590  0.78060  Biso   1.000  C
  N181     1.0000 0.91618  0.10880  0.81049  Biso   1.000  N
  O361     1.0000 0.96329  0.15773  0.79080  Biso   1.000  O
  O362     1.0000 0.93131  0.16882  0.74281  Biso   1.000  O
  C363     1.0000 0.93990  0.65453  0.27020  Biso   1.000  C
  C364     1.0000 0.91586  0.62590  0.28060  Biso   1.000  C
  N182     1.0000 0.91618  0.60880  0.31049  Biso   1.000  N
  O363     1.0000 0.96329  0.65773  0.29080  Biso   1.000  O
  O364     1.0000 0.93131  0.66882  0.24281  Biso   1.000  O
  C365     1.0000 0.43990  0.15453  0.27020  Biso   1.000  C
  C366     1.0000 0.41586  0.12590  0.28060  Biso   1.000  C
  N183     1.0000 0.41618  0.10880  0.31049  Biso   1.000  N
  O365     1.0000 0.46329  0.15773  0.29080  Biso   1.000  O
  O366     1.0000 0.43131  0.16882  0.24281  Biso   1.000  O
  C367     1.0000 0.43990  0.65453  0.77020  Biso   1.000  C
  C368     1.0000 0.41586  0.62590  0.78060  Biso   1.000  C
  N184     1.0000 0.41618  0.60880  0.81049  Biso   1.000  N
  O367     1.0000 0.46329  0.65773  0.79080  Biso   1.000  O
  O368     1.0000 0.43131  0.66882  0.74281  Biso   1.000  O
  C369     1.0000 0.06010  0.84547  0.77020  Biso   1.000  C
  C370     1.0000 0.08414  0.87410  0.78060  Biso   1.000  C
  N185     1.0000 0.08382  0.89120  0.81049  Biso   1.000  N
  O369     1.0000 0.03671  0.84227  0.79080  Biso   1.000  O
  O370     1.0000 0.06869  0.83118  0.74281  Biso   1.000  O
  C371     1.0000 0.06010  0.34547  0.27020  Biso   1.000  C
  C372     1.0000 0.08414  0.37410  0.28060  Biso   1.000  C
  N186     1.0000 0.08382  0.39120  0.31049  Biso   1.000  N
  O371     1.0000 0.03671  0.34227  0.29080  Biso   1.000  O
  O372     1.0000 0.06869  0.33118  0.24281  Biso   1.000  O
  C373     1.0000 0.56010  0.84547  0.27020  Biso   1.000  C
  C374     1.0000 0.58414  0.87410  0.28060  Biso   1.000  C
  N187     1.0000 0.58382  0.89120  0.31049  Biso   1.000  N
  O373     1.0000 0.53671  0.84227  0.29080  Biso   1.000  O
  O374     1.0000 0.56869  0.83118  0.24281  Biso   1.000  O
  C375     1.0000 0.56010  0.34547  0.77020  Biso   1.000  C
  C376     1.0000 0.58414  0.37410  0.78060  Biso   1.000  C
  N188     1.0000 0.58382  0.39120  0.81049  Biso   1.000  N
  O375     1.0000 0.53671  0.34227  0.79080  Biso   1.000  O
  O376     1.0000 0.56869  0.33118  0.74281  Biso   1.000  O
  C377     1.0000 0.06010  0.15453  0.22980  Biso   1.000  C
  C378     1.0000 0.08414  0.12590  0.21940  Biso   1.000  C
  N189     1.0000 0.08382  0.10880  0.18951  Biso   1.000  N
  O377     1.0000 0.03671  0.15773  0.20920  Biso   1.000  O
  O378     1.0000 0.06869  0.16882  0.25719  Biso   1.000  O
  C379     1.0000 0.06010  0.65453  0.72980  Biso   1.000  C
  C380     1.0000 0.08414  0.62590  0.71940  Biso   1.000  C
  N190     1.0000 0.08382  0.60880  0.68951  Biso   1.000  N
  O379     1.0000 0.03671  0.65773  0.70920  Biso   1.000  O
  O380     1.0000 0.06869  0.66882  0.75719  Biso   1.000  O
  C381     1.0000 0.56010  0.15453  0.72980  Biso   1.000  C
  C382     1.0000 0.58414  0.12590  0.71940  Biso   1.000  C
  N191     1.0000 0.58382  0.10880  0.68951  Biso   1.000  N
  O381     1.0000 0.53671  0.15773  0.70920  Biso   1.000  O
  O382     1.0000 0.56869  0.16882  0.75719  Biso   1.000  O
  C383     1.0000 0.56010  0.65453  0.22980  Biso   1.000  C
  C384     1.0000 0.58414  0.62590  0.21940  Biso   1.000  C
  N192     1.0000 0.58382  0.60880  0.18951  Biso   1.000  N
  O383     1.0000 0.53671  0.65773  0.20920  Biso   1.000  O
  O384     1.0000 0.56869  0.66882  0.25719  Biso   1.000  O
  Ce1      1.0000 0.21648  0.28352  0.04783  Biso   1.000  Ce
  Ce2      1.0000 0.21648  0.78352  0.54783  Biso   1.000  Ce
  Ce3      1.0000 0.78352  0.71648  0.04783  Biso   1.000  Ce
  Ce4      1.0000 0.78352  0.21648  0.54783  Biso   1.000  Ce
  Ce5      1.0000 0.28352  0.21648  0.04783  Biso   1.000  Ce
  Ce6      1.0000 0.78352  0.28352  0.95217  Biso   1.000  Ce
  Ce7      1.0000 0.78352  0.78352  0.45217  Biso   1.000  Ce
  Ce8      1.0000 0.28352  0.28352  0.45217  Biso   1.000  Ce
  Ce9      1.0000 0.21648  0.71648  0.95217  Biso   1.000  Ce
  Ce10     1.0000 0.21648  0.21648  0.45217  Biso   1.000  Ce
  Ce11     1.0000 0.04783  0.21648  0.28352  Biso   1.000  Ce
  Ce12     1.0000 0.54783  0.21648  0.78352  Biso   1.000  Ce
  Ce13     1.0000 0.04783  0.78352  0.71648  Biso   1.000  Ce
  Ce14     1.0000 0.04783  0.28352  0.21648  Biso   1.000  Ce
  Ce15     1.0000 0.54783  0.78352  0.21648  Biso   1.000  Ce
  Ce16     1.0000 0.95217  0.78352  0.28352  Biso   1.000  Ce
  Ce17     1.0000 0.45217  0.78352  0.78352  Biso   1.000  Ce
  Ce18     1.0000 0.45217  0.28352  0.28352  Biso   1.000  Ce
  Ce19     1.0000 0.95217  0.21648  0.71648  Biso   1.000  Ce
  Ce20     1.0000 0.45217  0.21648  0.21648  Biso   1.000  Ce
  Ce21     1.0000 0.28352  0.04783  0.21648  Biso   1.000  Ce
  Ce22     1.0000 0.28352  0.54783  0.71648  Biso   1.000  Ce
  Ce23     1.0000 0.71648  0.04783  0.78352  Biso   1.000  Ce
  Ce24     1.0000 0.71648  0.54783  0.28352  Biso   1.000  Ce
  Ce25     1.0000 0.21648  0.04783  0.28352  Biso   1.000  Ce
  Ce26     1.0000 0.28352  0.95217  0.78352  Biso   1.000  Ce
  Ce27     1.0000 0.28352  0.45217  0.28352  Biso   1.000  Ce
  Ce28     1.0000 0.71648  0.95217  0.21648  Biso   1.000  Ce
  Ce29     1.0000 0.71648  0.45217  0.71648  Biso   1.000  Ce
  Ce30     1.0000 0.21648  0.45217  0.21648  Biso   1.000  Ce
  Ce31     1.0000 0.28352  0.21648  0.95217  Biso   1.000  Ce
  Ce32     1.0000 0.28352  0.71648  0.45217  Biso   1.000  Ce
  Ce33     1.0000 0.71648  0.78352  0.95217  Biso   1.000  Ce
  Ce34     1.0000 0.71648  0.28352  0.45217  Biso   1.000  Ce
  Ce35     1.0000 0.21648  0.28352  0.95217  Biso   1.000  Ce
  Ce36     1.0000 0.28352  0.78352  0.04783  Biso   1.000  Ce
  Ce37     1.0000 0.28352  0.28352  0.54783  Biso   1.000  Ce
  Ce38     1.0000 0.71648  0.21648  0.04783  Biso   1.000  Ce
  Ce39     1.0000 0.71648  0.71648  0.54783  Biso   1.000  Ce
  Ce40     1.0000 0.21648  0.21648  0.54783  Biso   1.000  Ce
  Ce41     1.0000 0.21648  0.04783  0.71648  Biso   1.000  Ce
  Ce42     1.0000 0.21648  0.54783  0.21648  Biso   1.000  Ce
  Ce43     1.0000 0.78352  0.04783  0.28352  Biso   1.000  Ce
  Ce44     1.0000 0.78352  0.54783  0.78352  Biso   1.000  Ce
  Ce45     1.0000 0.28352  0.54783  0.28352  Biso   1.000  Ce
  Ce46     1.0000 0.78352  0.95217  0.71648  Biso   1.000  Ce
  Ce47     1.0000 0.78352  0.45217  0.21648  Biso   1.000  Ce
  Ce48     1.0000 0.28352  0.95217  0.21648  Biso   1.000  Ce
  Ce49     1.0000 0.21648  0.95217  0.28352  Biso   1.000  Ce
  Ce50     1.0000 0.21648  0.45217  0.78352  Biso   1.000  Ce
  Ce51     1.0000 0.04783  0.28352  0.78352  Biso   1.000  Ce
  Ce52     1.0000 0.54783  0.28352  0.28352  Biso   1.000  Ce
  Ce53     1.0000 0.04783  0.71648  0.21648  Biso   1.000  Ce
  Ce54     1.0000 0.54783  0.71648  0.71648  Biso   1.000  Ce
  Ce55     1.0000 0.54783  0.21648  0.21648  Biso   1.000  Ce
  Ce56     1.0000 0.95217  0.28352  0.21648  Biso   1.000  Ce
  Ce57     1.0000 0.45217  0.28352  0.71648  Biso   1.000  Ce
  Ce58     1.0000 0.95217  0.71648  0.78352  Biso   1.000  Ce
  Ce59     1.0000 0.95217  0.21648  0.28352  Biso   1.000  Ce
  Ce60     1.0000 0.45217  0.71648  0.28352  Biso   1.000  Ce
  Ce61     1.0000 0.78352  0.71648  0.95217  Biso   1.000  Ce
  Ce62     1.0000 0.78352  0.21648  0.45217  Biso   1.000  Ce
  Ce63     1.0000 0.21648  0.78352  0.45217  Biso   1.000  Ce
  Ce64     1.0000 0.21648  0.71648  0.04783  Biso   1.000  Ce
  Ce65     1.0000 0.78352  0.28352  0.04783  Biso   1.000  Ce
  Ce66     1.0000 0.78352  0.78352  0.54783  Biso   1.000  Ce
  Ce67     1.0000 0.95217  0.78352  0.71648  Biso   1.000  Ce
  Ce68     1.0000 0.45217  0.78352  0.21648  Biso   1.000  Ce
  Ce69     1.0000 0.45217  0.21648  0.78352  Biso   1.000  Ce
  Ce70     1.0000 0.04783  0.21648  0.71648  Biso   1.000  Ce
  Ce71     1.0000 0.04783  0.78352  0.28352  Biso   1.000  Ce
  Ce72     1.0000 0.54783  0.78352  0.78352  Biso   1.000  Ce
  Ce73     1.0000 0.71648  0.95217  0.78352  Biso   1.000  Ce
  Ce74     1.0000 0.71648  0.45217  0.28352  Biso   1.000  Ce
  Ce75     1.0000 0.28352  0.45217  0.71648  Biso   1.000  Ce
  Ce76     1.0000 0.71648  0.04783  0.21648  Biso   1.000  Ce
  Ce77     1.0000 0.71648  0.54783  0.71648  Biso   1.000  Ce
  Ce78     1.0000 0.28352  0.04783  0.78352  Biso   1.000  Ce
  Ce79     1.0000 0.71648  0.78352  0.04783  Biso   1.000  Ce
  Ce80     1.0000 0.71648  0.28352  0.54783  Biso   1.000  Ce
  Ce81     1.0000 0.28352  0.71648  0.54783  Biso   1.000  Ce
  Ce82     1.0000 0.71648  0.21648  0.95217  Biso   1.000  Ce
  Ce83     1.0000 0.71648  0.71648  0.45217  Biso   1.000  Ce
  Ce84     1.0000 0.28352  0.78352  0.95217  Biso   1.000  Ce
  Ce85     1.0000 0.78352  0.95217  0.28352  Biso   1.000  Ce
  Ce86     1.0000 0.78352  0.45217  0.78352  Biso   1.000  Ce
  Ce87     1.0000 0.21648  0.95217  0.71648  Biso   1.000  Ce
  Ce88     1.0000 0.21648  0.54783  0.78352  Biso   1.000  Ce
  Ce89     1.0000 0.78352  0.04783  0.71648  Biso   1.000  Ce
  Ce90     1.0000 0.78352  0.54783  0.21648  Biso   1.000  Ce
  Ce91     1.0000 0.95217  0.71648  0.21648  Biso   1.000  Ce
  Ce92     1.0000 0.45217  0.71648  0.71648  Biso   1.000  Ce
  Ce93     1.0000 0.95217  0.28352  0.78352  Biso   1.000  Ce
  Ce94     1.0000 0.04783  0.71648  0.78352  Biso   1.000  Ce
  Ce95     1.0000 0.54783  0.71648  0.28352  Biso   1.000  Ce
  Ce96     1.0000 0.54783  0.28352  0.71648  Biso   1.000  Ce
  Ce97     1.0000 0.20151  0.20151  0.00000  Biso   1.000  Ce
  Ce98     1.0000 0.20151  0.70151  0.50000  Biso   1.000  Ce
  Ce99     1.0000 0.70151  0.20151  0.50000  Biso   1.000  Ce
  Ce100    1.0000 0.70151  0.70151  0.00000  Biso   1.000  Ce
  Ce101    1.0000 0.79849  0.79849  0.00000  Biso   1.000  Ce
  Ce102    1.0000 0.79849  0.29849  0.50000  Biso   1.000  Ce
  Ce103    1.0000 0.29849  0.79849  0.50000  Biso   1.000  Ce
  Ce104    1.0000 0.29849  0.29849  0.00000  Biso   1.000  Ce
  Ce105    1.0000 0.79849  0.20151  0.00000  Biso   1.000  Ce
  Ce106    1.0000 0.79849  0.70151  0.50000  Biso   1.000  Ce
  Ce107    1.0000 0.29849  0.20151  0.50000  Biso   1.000  Ce
  Ce108    1.0000 0.29849  0.70151  0.00000  Biso   1.000  Ce
  Ce109    1.0000 0.20151  0.79849  0.00000  Biso   1.000  Ce
  Ce110    1.0000 0.20151  0.29849  0.50000  Biso   1.000  Ce
  Ce111    1.0000 0.70151  0.79849  0.50000  Biso   1.000  Ce
  Ce112    1.0000 0.70151  0.29849  0.00000  Biso   1.000  Ce
  Ce113    1.0000 0.00000  0.20151  0.20151  Biso   1.000  Ce
  Ce114    1.0000 0.00000  0.70151  0.70151  Biso   1.000  Ce
  Ce115    1.0000 0.50000  0.20151  0.70151  Biso   1.000  Ce
  Ce116    1.0000 0.50000  0.70151  0.20151  Biso   1.000  Ce
  Ce117    1.0000 0.00000  0.79849  0.79849  Biso   1.000  Ce
  Ce118    1.0000 0.00000  0.29849  0.29849  Biso   1.000  Ce
  Ce119    1.0000 0.50000  0.79849  0.29849  Biso   1.000  Ce
  Ce120    1.0000 0.50000  0.29849  0.79849  Biso   1.000  Ce
  Ce121    1.0000 0.00000  0.79849  0.20151  Biso   1.000  Ce
  Ce122    1.0000 0.00000  0.29849  0.70151  Biso   1.000  Ce
  Ce123    1.0000 0.50000  0.79849  0.70151  Biso   1.000  Ce
  Ce124    1.0000 0.50000  0.29849  0.20151  Biso   1.000  Ce
  Ce125    1.0000 0.00000  0.20151  0.79849  Biso   1.000  Ce
  Ce126    1.0000 0.00000  0.70151  0.29849  Biso   1.000  Ce
  Ce127    1.0000 0.50000  0.20151  0.29849  Biso   1.000  Ce
  Ce128    1.0000 0.50000  0.70151  0.79849  Biso   1.000  Ce
  Ce129    1.0000 0.20151  0.00000  0.20151  Biso   1.000  Ce
  Ce130    1.0000 0.20151  0.50000  0.70151  Biso   1.000  Ce
  Ce131    1.0000 0.70151  0.00000  0.70151  Biso   1.000  Ce
  Ce132    1.0000 0.70151  0.50000  0.20151  Biso   1.000  Ce
  Ce133    1.0000 0.79849  0.00000  0.79849  Biso   1.000  Ce
  Ce134    1.0000 0.79849  0.50000  0.29849  Biso   1.000  Ce
  Ce135    1.0000 0.29849  0.00000  0.29849  Biso   1.000  Ce
  Ce136    1.0000 0.29849  0.50000  0.79849  Biso   1.000  Ce
  Ce137    1.0000 0.20151  0.00000  0.79849  Biso   1.000  Ce
  Ce138    1.0000 0.20151  0.50000  0.29849  Biso   1.000  Ce
  Ce139    1.0000 0.70151  0.00000  0.29849  Biso   1.000  Ce
  Ce140    1.0000 0.70151  0.50000  0.79849  Biso   1.000  Ce
  Ce141    1.0000 0.79849  0.00000  0.20151  Biso   1.000  Ce
  Ce142    1.0000 0.79849  0.50000  0.70151  Biso   1.000  Ce
  Ce143    1.0000 0.29849  0.00000  0.70151  Biso   1.000  Ce
  Ce144    1.0000 0.29849  0.50000  0.20151  Biso   1.000  Ce
  O385     1.0000 0.22650  0.22650  0.04860  Biso   1.000  O
  O386     1.0000 0.22650  0.72650  0.54860  Biso   1.000  O
  O387     1.0000 0.72650  0.22650  0.54860  Biso   1.000  O
  O388     1.0000 0.72650  0.72650  0.04860  Biso   1.000  O
  O389     1.0000 0.77350  0.77350  0.04860  Biso   1.000  O
  O390     1.0000 0.77350  0.27350  0.54860  Biso   1.000  O
  O391     1.0000 0.27350  0.77350  0.54860  Biso   1.000  O
  O392     1.0000 0.27350  0.27350  0.04860  Biso   1.000  O
  O393     1.0000 0.77350  0.22650  0.95140  Biso   1.000  O
  O394     1.0000 0.77350  0.72650  0.45140  Biso   1.000  O
  O395     1.0000 0.27350  0.22650  0.45140  Biso   1.000  O
  O396     1.0000 0.27350  0.72650  0.95140  Biso   1.000  O
  O397     1.0000 0.22650  0.77350  0.95140  Biso   1.000  O
  O398     1.0000 0.22650  0.27350  0.45140  Biso   1.000  O
  O399     1.0000 0.72650  0.77350  0.45140  Biso   1.000  O
  O400     1.0000 0.72650  0.27350  0.95140  Biso   1.000  O
  O401     1.0000 0.04860  0.22650  0.22650  Biso   1.000  O
  O402     1.0000 0.04860  0.72650  0.72650  Biso   1.000  O
  O403     1.0000 0.54860  0.22650  0.72650  Biso   1.000  O
  O404     1.0000 0.54860  0.72650  0.22650  Biso   1.000  O
  O405     1.0000 0.04860  0.77350  0.77350  Biso   1.000  O
  O406     1.0000 0.04860  0.27350  0.27350  Biso   1.000  O
  O407     1.0000 0.54860  0.77350  0.27350  Biso   1.000  O
  O408     1.0000 0.54860  0.27350  0.77350  Biso   1.000  O
  O409     1.0000 0.95140  0.77350  0.22650  Biso   1.000  O
  O410     1.0000 0.95140  0.27350  0.72650  Biso   1.000  O
  O411     1.0000 0.45140  0.77350  0.72650  Biso   1.000  O
  O412     1.0000 0.45140  0.27350  0.22650  Biso   1.000  O
  O413     1.0000 0.95140  0.22650  0.77350  Biso   1.000  O
  O414     1.0000 0.95140  0.72650  0.27350  Biso   1.000  O
  O415     1.0000 0.45140  0.22650  0.27350  Biso   1.000  O
  O416     1.0000 0.45140  0.72650  0.77350  Biso   1.000  O
  O417     1.0000 0.22650  0.04860  0.22650  Biso   1.000  O
  O418     1.0000 0.22650  0.54860  0.72650  Biso   1.000  O
  O419     1.0000 0.72650  0.04860  0.72650  Biso   1.000  O
  O420     1.0000 0.72650  0.54860  0.22650  Biso   1.000  O
  O421     1.0000 0.77350  0.04860  0.77350  Biso   1.000  O
  O422     1.0000 0.77350  0.54860  0.27350  Biso   1.000  O
  O423     1.0000 0.27350  0.04860  0.27350  Biso   1.000  O
  O424     1.0000 0.27350  0.54860  0.77350  Biso   1.000  O
  O425     1.0000 0.22650  0.95140  0.77350  Biso   1.000  O
  O426     1.0000 0.22650  0.45140  0.27350  Biso   1.000  O
  O427     1.0000 0.72650  0.95140  0.27350  Biso   1.000  O
  O428     1.0000 0.72650  0.45140  0.77350  Biso   1.000  O
  O429     1.0000 0.77350  0.95140  0.22650  Biso   1.000  O
  O430     1.0000 0.77350  0.45140  0.72650  Biso   1.000  O
  O431     1.0000 0.27350  0.95140  0.72650  Biso   1.000  O
  O432     1.0000 0.27350  0.45140  0.22650  Biso   1.000  O
  O433     1.0000 0.22650  0.22650  0.95140  Biso   1.000  O
  O434     1.0000 0.22650  0.72650  0.45140  Biso   1.000  O
  O435     1.0000 0.72650  0.22650  0.45140  Biso   1.000  O
  O436     1.0000 0.72650  0.72650  0.95140  Biso   1.000  O
  O437     1.0000 0.77350  0.77350  0.95140  Biso   1.000  O
  O438     1.0000 0.77350  0.27350  0.45140  Biso   1.000  O
  O439     1.0000 0.27350  0.77350  0.45140  Biso   1.000  O
  O440     1.0000 0.27350  0.27350  0.95140  Biso   1.000  O
  O441     1.0000 0.22650  0.77350  0.04860  Biso   1.000  O
  O442     1.0000 0.22650  0.27350  0.54860  Biso   1.000  O
  O443     1.0000 0.72650  0.77350  0.54860  Biso   1.000  O
  O444     1.0000 0.72650  0.27350  0.04860  Biso   1.000  O
  O445     1.0000 0.77350  0.22650  0.04860  Biso   1.000  O
  O446     1.0000 0.77350  0.72650  0.54860  Biso   1.000  O
  O447     1.0000 0.27350  0.22650  0.54860  Biso   1.000  O
  O448     1.0000 0.27350  0.72650  0.04860  Biso   1.000  O
  O449     1.0000 0.22650  0.04860  0.77350  Biso   1.000  O
  O450     1.0000 0.22650  0.54860  0.27350  Biso   1.000  O
  O451     1.0000 0.72650  0.04860  0.27350  Biso   1.000  O
  O452     1.0000 0.72650  0.54860  0.77350  Biso   1.000  O
  O453     1.0000 0.77350  0.04860  0.22650  Biso   1.000  O
  O454     1.0000 0.77350  0.54860  0.72650  Biso   1.000  O
  O455     1.0000 0.27350  0.04860  0.72650  Biso   1.000  O
  O456     1.0000 0.27350  0.54860  0.22650  Biso   1.000  O
  O457     1.0000 0.77350  0.95140  0.77350  Biso   1.000  O
  O458     1.0000 0.77350  0.45140  0.27350  Biso   1.000  O
  O459     1.0000 0.27350  0.95140  0.27350  Biso   1.000  O
  O460     1.0000 0.27350  0.45140  0.77350  Biso   1.000  O
  O461     1.0000 0.22650  0.95140  0.22650  Biso   1.000  O
  O462     1.0000 0.22650  0.45140  0.72650  Biso   1.000  O
  O463     1.0000 0.72650  0.95140  0.72650  Biso   1.000  O
  O464     1.0000 0.72650  0.45140  0.22650  Biso   1.000  O
  O465     1.0000 0.04860  0.22650  0.77350  Biso   1.000  O
  O466     1.0000 0.04860  0.72650  0.27350  Biso   1.000  O
  O467     1.0000 0.54860  0.22650  0.27350  Biso   1.000  O
  O468     1.0000 0.54860  0.72650  0.77350  Biso   1.000  O
  O469     1.0000 0.04860  0.77350  0.22650  Biso   1.000  O
  O470     1.0000 0.04860  0.27350  0.72650  Biso   1.000  O
  O471     1.0000 0.54860  0.77350  0.72650  Biso   1.000  O
  O472     1.0000 0.54860  0.27350  0.22650  Biso   1.000  O
  O473     1.0000 0.95140  0.22650  0.22650  Biso   1.000  O
  O474     1.0000 0.95140  0.72650  0.72650  Biso   1.000  O
  O475     1.0000 0.45140  0.22650  0.72650  Biso   1.000  O
  O476     1.0000 0.45140  0.72650  0.22650  Biso   1.000  O
  O477     1.0000 0.95140  0.77350  0.77350  Biso   1.000  O
  O478     1.0000 0.95140  0.27350  0.27350  Biso   1.000  O
  O479     1.0000 0.45140  0.77350  0.27350  Biso   1.000  O
  O480     1.0000 0.45140  0.27350  0.77350  Biso   1.000  O
  O481     1.0000 0.24190  0.30200  0.00000  Biso   1.000  O
  O482     1.0000 0.24190  0.80200  0.50000  Biso   1.000  O
  O483     1.0000 0.74190  0.30200  0.50000  Biso   1.000  O
  O484     1.0000 0.74190  0.80200  0.00000  Biso   1.000  O
  O485     1.0000 0.75810  0.69800  0.00000  Biso   1.000  O
  O486     1.0000 0.75810  0.19800  0.50000  Biso   1.000  O
  O487     1.0000 0.25810  0.69800  0.50000  Biso   1.000  O
  O488     1.0000 0.25810  0.19800  0.00000  Biso   1.000  O
  O489     1.0000 0.75810  0.30200  0.00000  Biso   1.000  O
  O490     1.0000 0.75810  0.80200  0.50000  Biso   1.000  O
  O491     1.0000 0.25810  0.30200  0.50000  Biso   1.000  O
  O492     1.0000 0.25810  0.80200  0.00000  Biso   1.000  O
  O493     1.0000 0.24190  0.69800  0.00000  Biso   1.000  O
  O494     1.0000 0.24190  0.19800  0.50000  Biso   1.000  O
  O495     1.0000 0.74190  0.69800  0.50000  Biso   1.000  O
  O496     1.0000 0.74190  0.19800  0.00000  Biso   1.000  O
  O497     1.0000 0.00000  0.24190  0.30200  Biso   1.000  O
  O498     1.0000 0.00000  0.74190  0.80200  Biso   1.000  O
  O499     1.0000 0.50000  0.24190  0.80200  Biso   1.000  O
  O500     1.0000 0.50000  0.74190  0.30200  Biso   1.000  O
  O501     1.0000 0.00000  0.75810  0.69800  Biso   1.000  O
  O502     1.0000 0.00000  0.25810  0.19800  Biso   1.000  O
  O503     1.0000 0.50000  0.75810  0.19800  Biso   1.000  O
  O504     1.0000 0.50000  0.25810  0.69800  Biso   1.000  O
  O505     1.0000 0.00000  0.75810  0.30200  Biso   1.000  O
  O506     1.0000 0.00000  0.25810  0.80200  Biso   1.000  O
  O507     1.0000 0.50000  0.75810  0.80200  Biso   1.000  O
  O508     1.0000 0.50000  0.25810  0.30200  Biso   1.000  O
  O509     1.0000 0.00000  0.24190  0.69800  Biso   1.000  O
  O510     1.0000 0.00000  0.74190  0.19800  Biso   1.000  O
  O511     1.0000 0.50000  0.24190  0.19800  Biso   1.000  O
  O512     1.0000 0.50000  0.74190  0.69800  Biso   1.000  O
  O513     1.0000 0.30200  0.00000  0.24190  Biso   1.000  O
  O514     1.0000 0.30200  0.50000  0.74190  Biso   1.000  O
  O515     1.0000 0.80200  0.00000  0.74190  Biso   1.000  O
  O516     1.0000 0.80200  0.50000  0.24190  Biso   1.000  O
  O517     1.0000 0.69800  0.00000  0.75810  Biso   1.000  O
  O518     1.0000 0.69800  0.50000  0.25810  Biso   1.000  O
  O519     1.0000 0.19800  0.00000  0.25810  Biso   1.000  O
  O520     1.0000 0.19800  0.50000  0.75810  Biso   1.000  O
  O521     1.0000 0.30200  0.00000  0.75810  Biso   1.000  O
  O522     1.0000 0.30200  0.50000  0.25810  Biso   1.000  O
  O523     1.0000 0.80200  0.00000  0.25810  Biso   1.000  O
  O524     1.0000 0.80200  0.50000  0.75810  Biso   1.000  O
  O525     1.0000 0.69800  0.00000  0.24190  Biso   1.000  O
  O526     1.0000 0.69800  0.50000  0.74190  Biso   1.000  O
  O527     1.0000 0.19800  0.00000  0.74190  Biso   1.000  O
  O528     1.0000 0.19800  0.50000  0.24190  Biso   1.000  O
  O529     1.0000 0.30200  0.24190  0.00000  Biso   1.000  O
  O530     1.0000 0.30200  0.74190  0.50000  Biso   1.000  O
  O531     1.0000 0.80200  0.24190  0.50000  Biso   1.000  O
  O532     1.0000 0.80200  0.74190  0.00000  Biso   1.000  O
  O533     1.0000 0.69800  0.75810  0.00000  Biso   1.000  O
  O534     1.0000 0.69800  0.25810  0.50000  Biso   1.000  O
  O535     1.0000 0.19800  0.75810  0.50000  Biso   1.000  O
  O536     1.0000 0.19800  0.25810  0.00000  Biso   1.000  O
  O537     1.0000 0.30200  0.75810  0.00000  Biso   1.000  O
  O538     1.0000 0.30200  0.25810  0.50000  Biso   1.000  O
  O539     1.0000 0.80200  0.75810  0.50000  Biso   1.000  O
  O540     1.0000 0.80200  0.25810  0.00000  Biso   1.000  O
  O541     1.0000 0.69800  0.24190  0.00000  Biso   1.000  O
  O542     1.0000 0.69800  0.74190  0.50000  Biso   1.000  O
  O543     1.0000 0.19800  0.24190  0.50000  Biso   1.000  O
  O544     1.0000 0.19800  0.74190  0.00000  Biso   1.000  O
  O545     1.0000 0.24190  0.00000  0.69800  Biso   1.000  O
  O546     1.0000 0.24190  0.50000  0.19800  Biso   1.000  O
  O547     1.0000 0.74190  0.00000  0.19800  Biso   1.000  O
  O548     1.0000 0.74190  0.50000  0.69800  Biso   1.000  O
  O549     1.0000 0.75810  0.00000  0.30200  Biso   1.000  O
  O550     1.0000 0.75810  0.50000  0.80200  Biso   1.000  O
  O551     1.0000 0.25810  0.00000  0.80200  Biso   1.000  O
  O552     1.0000 0.25810  0.50000  0.30200  Biso   1.000  O
  O553     1.0000 0.75810  0.00000  0.69800  Biso   1.000  O
  O554     1.0000 0.75810  0.50000  0.19800  Biso   1.000  O
  O555     1.0000 0.25810  0.00000  0.19800  Biso   1.000  O
  O556     1.0000 0.25810  0.50000  0.69800  Biso   1.000  O
  O557     1.0000 0.24190  0.00000  0.30200  Biso   1.000  O
  O558     1.0000 0.24190  0.50000  0.80200  Biso   1.000  O
  O559     1.0000 0.74190  0.00000  0.80200  Biso   1.000  O
  O560     1.0000 0.74190  0.50000  0.30200  Biso   1.000  O
  O561     1.0000 0.00000  0.30200  0.75810  Biso   1.000  O
  O562     1.0000 0.00000  0.80200  0.25810  Biso   1.000  O
  O563     1.0000 0.50000  0.30200  0.25810  Biso   1.000  O
  O564     1.0000 0.50000  0.80200  0.75810  Biso   1.000  O
  O565     1.0000 0.00000  0.69800  0.24190  Biso   1.000  O
  O566     1.0000 0.00000  0.19800  0.74190  Biso   1.000  O
  O567     1.0000 0.50000  0.69800  0.74190  Biso   1.000  O
  O568     1.0000 0.50000  0.19800  0.24190  Biso   1.000  O
  O569     1.0000 0.00000  0.30200  0.24190  Biso   1.000  O
  O570     1.0000 0.00000  0.80200  0.74190  Biso   1.000  O
  O571     1.0000 0.50000  0.30200  0.74190  Biso   1.000  O
  O572     1.0000 0.50000  0.80200  0.24190  Biso   1.000  O
  O573     1.0000 0.00000  0.69800  0.75810  Biso   1.000  O
  O574     1.0000 0.00000  0.19800  0.25810  Biso   1.000  O
  O575     1.0000 0.50000  0.69800  0.25810  Biso   1.000  O
  O576     1.0000 0.50000  0.19800  0.75810  Biso   1.000  O
  C385     1.0000 0.23690  0.10910  0.10910  Biso   1.000  C
  C386     1.0000 0.23690  0.60910  0.60910  Biso   1.000  C
  C387     1.0000 0.73690  0.10910  0.60910  Biso   1.000  C
  C388     1.0000 0.73690  0.60910  0.10910  Biso   1.000  C
  C389     1.0000 0.76310  0.89090  0.10910  Biso   1.000  C
  C390     1.0000 0.76310  0.39090  0.60910  Biso   1.000  C
  C391     1.0000 0.26310  0.89090  0.60910  Biso   1.000  C
  C392     1.0000 0.26310  0.39090  0.10910  Biso   1.000  C
  C393     1.0000 0.76310  0.10910  0.89090  Biso   1.000  C
  C394     1.0000 0.76310  0.60910  0.39090  Biso   1.000  C
  C395     1.0000 0.26310  0.10910  0.39090  Biso   1.000  C
  C396     1.0000 0.26310  0.60910  0.89090  Biso   1.000  C
  C397     1.0000 0.23690  0.89090  0.89090  Biso   1.000  C
  C398     1.0000 0.23690  0.39090  0.39090  Biso   1.000  C
  C399     1.0000 0.73690  0.89090  0.39090  Biso   1.000  C
  C400     1.0000 0.73690  0.39090  0.89090  Biso   1.000  C
  C401     1.0000 0.10910  0.23690  0.10910  Biso   1.000  C
  C402     1.0000 0.10910  0.73690  0.60910  Biso   1.000  C
  C403     1.0000 0.60910  0.23690  0.60910  Biso   1.000  C
  C404     1.0000 0.60910  0.73690  0.10910  Biso   1.000  C
  C405     1.0000 0.10910  0.76310  0.89090  Biso   1.000  C
  C406     1.0000 0.10910  0.26310  0.39090  Biso   1.000  C
  C407     1.0000 0.60910  0.76310  0.39090  Biso   1.000  C
  C408     1.0000 0.60910  0.26310  0.89090  Biso   1.000  C
  C409     1.0000 0.89090  0.76310  0.10910  Biso   1.000  C
  C410     1.0000 0.89090  0.26310  0.60910  Biso   1.000  C
  C411     1.0000 0.39090  0.76310  0.60910  Biso   1.000  C
  C412     1.0000 0.39090  0.26310  0.10910  Biso   1.000  C
  C413     1.0000 0.89090  0.23690  0.89090  Biso   1.000  C
  C414     1.0000 0.89090  0.73690  0.39090  Biso   1.000  C
  C415     1.0000 0.39090  0.23690  0.39090  Biso   1.000  C
  C416     1.0000 0.39090  0.73690  0.89090  Biso   1.000  C
  C417     1.0000 0.10910  0.10910  0.23690  Biso   1.000  C
  C418     1.0000 0.10910  0.60910  0.73690  Biso   1.000  C
  C419     1.0000 0.60910  0.10910  0.73690  Biso   1.000  C
  C420     1.0000 0.60910  0.60910  0.23690  Biso   1.000  C
  C421     1.0000 0.89090  0.10910  0.76310  Biso   1.000  C
  C422     1.0000 0.89090  0.60910  0.26310  Biso   1.000  C
  C423     1.0000 0.39090  0.10910  0.26310  Biso   1.000  C
  C424     1.0000 0.39090  0.60910  0.76310  Biso   1.000  C
  C425     1.0000 0.10910  0.89090  0.76310  Biso   1.000  C
  C426     1.0000 0.10910  0.39090  0.26310  Biso   1.000  C
  C427     1.0000 0.60910  0.89090  0.26310  Biso   1.000  C
  C428     1.0000 0.60910  0.39090  0.76310  Biso   1.000  C
  C429     1.0000 0.89090  0.89090  0.23690  Biso   1.000  C
  C430     1.0000 0.89090  0.39090  0.73690  Biso   1.000  C
  C431     1.0000 0.39090  0.89090  0.73690  Biso   1.000  C
  C432     1.0000 0.39090  0.39090  0.23690  Biso   1.000  C
  C433     1.0000 0.10910  0.23690  0.89090  Biso   1.000  C
  C434     1.0000 0.10910  0.73690  0.39090  Biso   1.000  C
  C435     1.0000 0.60910  0.23690  0.39090  Biso   1.000  C
  C436     1.0000 0.60910  0.73690  0.89090  Biso   1.000  C
  C437     1.0000 0.89090  0.76310  0.89090  Biso   1.000  C
  C438     1.0000 0.89090  0.26310  0.39090  Biso   1.000  C
  C439     1.0000 0.39090  0.76310  0.39090  Biso   1.000  C
  C440     1.0000 0.39090  0.26310  0.89090  Biso   1.000  C
  C441     1.0000 0.10910  0.76310  0.10910  Biso   1.000  C
  C442     1.0000 0.10910  0.26310  0.60910  Biso   1.000  C
  C443     1.0000 0.60910  0.76310  0.60910  Biso   1.000  C
  C444     1.0000 0.60910  0.26310  0.10910  Biso   1.000  C
  C445     1.0000 0.89090  0.23690  0.10910  Biso   1.000  C
  C446     1.0000 0.89090  0.73690  0.60910  Biso   1.000  C
  C447     1.0000 0.39090  0.23690  0.60910  Biso   1.000  C
  C448     1.0000 0.39090  0.73690  0.10910  Biso   1.000  C
  C449     1.0000 0.23690  0.10910  0.89090  Biso   1.000  C
  C450     1.0000 0.23690  0.60910  0.39090  Biso   1.000  C
  C451     1.0000 0.73690  0.10910  0.39090  Biso   1.000  C
  C452     1.0000 0.73690  0.60910  0.89090  Biso   1.000  C
  C453     1.0000 0.76310  0.10910  0.10910  Biso   1.000  C
  C454     1.0000 0.76310  0.60910  0.60910  Biso   1.000  C
  C455     1.0000 0.26310  0.10910  0.60910  Biso   1.000  C
  C456     1.0000 0.26310  0.60910  0.10910  Biso   1.000  C
  C457     1.0000 0.76310  0.89090  0.89090  Biso   1.000  C
  C458     1.0000 0.76310  0.39090  0.39090  Biso   1.000  C
  C459     1.0000 0.26310  0.89090  0.39090  Biso   1.000  C
  C460     1.0000 0.26310  0.39090  0.89090  Biso   1.000  C
  C461     1.0000 0.23690  0.89090  0.10910  Biso   1.000  C
  C462     1.0000 0.23690  0.39090  0.60910  Biso   1.000  C
  C463     1.0000 0.73690  0.89090  0.60910  Biso   1.000  C
  C464     1.0000 0.73690  0.39090  0.10910  Biso   1.000  C
  C465     1.0000 0.10910  0.10910  0.76310  Biso   1.000  C
  C466     1.0000 0.10910  0.60910  0.26310  Biso   1.000  C
  C467     1.0000 0.60910  0.10910  0.26310  Biso   1.000  C
  C468     1.0000 0.60910  0.60910  0.76310  Biso   1.000  C
  C469     1.0000 0.10910  0.89090  0.23690  Biso   1.000  C
  C470     1.0000 0.10910  0.39090  0.73690  Biso   1.000  C
  C471     1.0000 0.60910  0.89090  0.73690  Biso   1.000  C
  C472     1.0000 0.60910  0.39090  0.23690  Biso   1.000  C
  C473     1.0000 0.89090  0.10910  0.23690  Biso   1.000  C
  C474     1.0000 0.89090  0.60910  0.73690  Biso   1.000  C
  C475     1.0000 0.39090  0.10910  0.73690  Biso   1.000  C
  C476     1.0000 0.39090  0.60910  0.23690  Biso   1.000  C
  C477     1.0000 0.89090  0.89090  0.76310  Biso   1.000  C
  C478     1.0000 0.89090  0.39090  0.26310  Biso   1.000  C
  C479     1.0000 0.39090  0.89090  0.26310  Biso   1.000  C
  C480     1.0000 0.39090  0.39090  0.76310  Biso   1.000  C
