data_image0
_cell_length_a       30.922
_cell_length_b       30.922
_cell_length_c       30.922
_cell_angle_alpha    90
_cell_angle_beta     90
_cell_angle_gamma    90

_symmetry_space_group_name_H-M    "P 1"
_symmetry_int_tables_number       1

loop_
  _symmetry_equiv_pos_as_xyz
  'x, y, z'

loop_
  _atom_site_label
  _atom_site_occupancy
  _atom_site_fract_x
  _atom_site_fract_y
  _atom_site_fract_z
  _atom_site_thermal_displace_type
  _atom_site_B_iso_or_equiv
  _atom_site_type_symbol
  N1       1.0000 0.33930  0.27460  0.22540  Biso   1.000  N
  C1       1.0000 0.38200  0.26621  0.23379  Biso   1.000  C
  C2       1.0000 0.42070  0.28090  0.21910  Biso   1.000  C
  C3       1.0000 0.46140  0.26610  0.23390  Biso   1.000  C
  H1       1.0000 0.42045  0.30217  0.19783  Biso   1.000  H
  O1       1.0000 0.30330  0.35660  0.14340  Biso   1.000  O
  N2       1.0000 0.83930  0.27460  0.72540  Biso   1.000  N
  C4       1.0000 0.88200  0.26621  0.73380  Biso   1.000  C
  C5       1.0000 0.92070  0.28090  0.71910  Biso   1.000  C
  C6       1.0000 0.96140  0.26610  0.73390  Biso   1.000  C
  H2       1.0000 0.92045  0.30217  0.69783  Biso   1.000  H
  O2       1.0000 0.80330  0.35660  0.64340  Biso   1.000  O
  N3       1.0000 0.66070  0.72540  0.22540  Biso   1.000  N
  C7       1.0000 0.61800  0.73380  0.23379  Biso   1.000  C
  C8       1.0000 0.57930  0.71910  0.21910  Biso   1.000  C
  C9       1.0000 0.53860  0.73390  0.23390  Biso   1.000  C
  H3       1.0000 0.57955  0.69783  0.19783  Biso   1.000  H
  O3       1.0000 0.69670  0.64340  0.14340  Biso   1.000  O
  N4       1.0000 0.16070  0.72540  0.72540  Biso   1.000  N
  C10      1.0000 0.11800  0.73380  0.73380  Biso   1.000  C
  C11      1.0000 0.07930  0.71910  0.71910  Biso   1.000  C
  C12      1.0000 0.03860  0.73390  0.73390  Biso   1.000  C
  H4       1.0000 0.07955  0.69783  0.69783  Biso   1.000  H
  O4       1.0000 0.19670  0.64340  0.64340  Biso   1.000  O
  N5       1.0000 0.16070  0.22540  0.22540  Biso   1.000  N
  C13      1.0000 0.11800  0.23379  0.23379  Biso   1.000  C
  C14      1.0000 0.07930  0.21910  0.21910  Biso   1.000  C
  C15      1.0000 0.03860  0.23390  0.23390  Biso   1.000  C
  H5       1.0000 0.07955  0.19783  0.19783  Biso   1.000  H
  O5       1.0000 0.19670  0.14340  0.14340  Biso   1.000  O
  N6       1.0000 0.66070  0.27460  0.77460  Biso   1.000  N
  C16      1.0000 0.61800  0.26621  0.76621  Biso   1.000  C
  C17      1.0000 0.57930  0.28090  0.78090  Biso   1.000  C
  C18      1.0000 0.53860  0.26610  0.76610  Biso   1.000  C
  H6       1.0000 0.57955  0.30217  0.80217  Biso   1.000  H
  O6       1.0000 0.69670  0.35660  0.85660  Biso   1.000  O
  N7       1.0000 0.16070  0.27460  0.27460  Biso   1.000  N
  C19      1.0000 0.11800  0.26621  0.26621  Biso   1.000  C
  C20      1.0000 0.07930  0.28090  0.28090  Biso   1.000  C
  C21      1.0000 0.03860  0.26610  0.26610  Biso   1.000  C
  H7       1.0000 0.07955  0.30217  0.30217  Biso   1.000  H
  O7       1.0000 0.19670  0.35660  0.35660  Biso   1.000  O
  N8       1.0000 0.33930  0.72540  0.77460  Biso   1.000  N
  C22      1.0000 0.38200  0.73380  0.76621  Biso   1.000  C
  C23      1.0000 0.42070  0.71910  0.78090  Biso   1.000  C
  C24      1.0000 0.46140  0.73390  0.76610  Biso   1.000  C
  H8       1.0000 0.42045  0.69783  0.80217  Biso   1.000  H
  O8       1.0000 0.30330  0.64340  0.85660  Biso   1.000  O
  N9       1.0000 0.33930  0.22540  0.27460  Biso   1.000  N
  C25      1.0000 0.38200  0.23379  0.26621  Biso   1.000  C
  C26      1.0000 0.42070  0.21910  0.28090  Biso   1.000  C
  C27      1.0000 0.46140  0.23390  0.26610  Biso   1.000  C
  H9       1.0000 0.42045  0.19783  0.30217  Biso   1.000  H
  O9       1.0000 0.30330  0.14340  0.35660  Biso   1.000  O
  N10      1.0000 0.83930  0.72540  0.27460  Biso   1.000  N
  C28      1.0000 0.88200  0.73380  0.26621  Biso   1.000  C
  C29      1.0000 0.92070  0.71910  0.28090  Biso   1.000  C
  C30      1.0000 0.96140  0.73390  0.26610  Biso   1.000  C
  H10      1.0000 0.92045  0.69783  0.30217  Biso   1.000  H
  O10      1.0000 0.80330  0.64340  0.35660  Biso   1.000  O
  N11      1.0000 0.22540  0.33930  0.27460  Biso   1.000  N
  C31      1.0000 0.23379  0.38200  0.26621  Biso   1.000  C
  C32      1.0000 0.21910  0.42070  0.28090  Biso   1.000  C
  C33      1.0000 0.23390  0.46140  0.26610  Biso   1.000  C
  H11      1.0000 0.19783  0.42045  0.30217  Biso   1.000  H
  O11      1.0000 0.14340  0.30330  0.35660  Biso   1.000  O
  N12      1.0000 0.22540  0.83930  0.77460  Biso   1.000  N
  C34      1.0000 0.23379  0.88200  0.76621  Biso   1.000  C
  C35      1.0000 0.21910  0.92070  0.78090  Biso   1.000  C
  C36      1.0000 0.23390  0.96140  0.76610  Biso   1.000  C
  H12      1.0000 0.19783  0.92045  0.80217  Biso   1.000  H
  O12      1.0000 0.14340  0.80330  0.85660  Biso   1.000  O
  N13      1.0000 0.22540  0.66070  0.72540  Biso   1.000  N
  C37      1.0000 0.23379  0.61800  0.73380  Biso   1.000  C
  C38      1.0000 0.21910  0.57930  0.71910  Biso   1.000  C
  C39      1.0000 0.23390  0.53860  0.73390  Biso   1.000  C
  H13      1.0000 0.19783  0.57955  0.69783  Biso   1.000  H
  O13      1.0000 0.14340  0.69670  0.64340  Biso   1.000  O
  N14      1.0000 0.22540  0.16070  0.22540  Biso   1.000  N
  C40      1.0000 0.23379  0.11800  0.23379  Biso   1.000  C
  C41      1.0000 0.21910  0.07930  0.21910  Biso   1.000  C
  C42      1.0000 0.23390  0.03860  0.23390  Biso   1.000  C
  H14      1.0000 0.19783  0.07955  0.19783  Biso   1.000  H
  O14      1.0000 0.14340  0.19670  0.14340  Biso   1.000  O
  N15      1.0000 0.77460  0.66070  0.27460  Biso   1.000  N
  C43      1.0000 0.76621  0.61800  0.26621  Biso   1.000  C
  C44      1.0000 0.78090  0.57930  0.28090  Biso   1.000  C
  C45      1.0000 0.76610  0.53860  0.26610  Biso   1.000  C
  H15      1.0000 0.80217  0.57955  0.30217  Biso   1.000  H
  O15      1.0000 0.85660  0.69670  0.35660  Biso   1.000  O
  N16      1.0000 0.77460  0.16070  0.77460  Biso   1.000  N
  C46      1.0000 0.76621  0.11800  0.76621  Biso   1.000  C
  C47      1.0000 0.78090  0.07930  0.78090  Biso   1.000  C
  C48      1.0000 0.76610  0.03860  0.76610  Biso   1.000  C
  H16      1.0000 0.80217  0.07955  0.80217  Biso   1.000  H
  O16      1.0000 0.85660  0.19670  0.85660  Biso   1.000  O
  N17      1.0000 0.27460  0.16070  0.27460  Biso   1.000  N
  C49      1.0000 0.26621  0.11800  0.26621  Biso   1.000  C
  C50      1.0000 0.28090  0.07930  0.28090  Biso   1.000  C
  C51      1.0000 0.26610  0.03860  0.26610  Biso   1.000  C
  H17      1.0000 0.30217  0.07955  0.30217  Biso   1.000  H
  O17      1.0000 0.35660  0.19670  0.35660  Biso   1.000  O
  N18      1.0000 0.77460  0.33930  0.72540  Biso   1.000  N
  C52      1.0000 0.76621  0.38200  0.73380  Biso   1.000  C
  C53      1.0000 0.78090  0.42070  0.71910  Biso   1.000  C
  C54      1.0000 0.76610  0.46140  0.73390  Biso   1.000  C
  H18      1.0000 0.80217  0.42045  0.69783  Biso   1.000  H
  O18      1.0000 0.85660  0.30330  0.64340  Biso   1.000  O
  N19      1.0000 0.77460  0.83930  0.22540  Biso   1.000  N
  C55      1.0000 0.76621  0.88200  0.23379  Biso   1.000  C
  C56      1.0000 0.78090  0.92070  0.21910  Biso   1.000  C
  C57      1.0000 0.76610  0.96140  0.23390  Biso   1.000  C
  H19      1.0000 0.80217  0.92045  0.19783  Biso   1.000  H
  O19      1.0000 0.85660  0.80330  0.14340  Biso   1.000  O
  N20      1.0000 0.27460  0.33930  0.22540  Biso   1.000  N
  C58      1.0000 0.26621  0.38200  0.23379  Biso   1.000  C
  C59      1.0000 0.28090  0.42070  0.21910  Biso   1.000  C
  C60      1.0000 0.26610  0.46140  0.23390  Biso   1.000  C
  H20      1.0000 0.30217  0.42045  0.19783  Biso   1.000  H
  O20      1.0000 0.35660  0.30330  0.14340  Biso   1.000  O
  N21      1.0000 0.27460  0.22540  0.33930  Biso   1.000  N
  C61      1.0000 0.26621  0.23379  0.38200  Biso   1.000  C
  C62      1.0000 0.28090  0.21910  0.42070  Biso   1.000  C
  C63      1.0000 0.26610  0.23390  0.46140  Biso   1.000  C
  H21      1.0000 0.30217  0.19783  0.42045  Biso   1.000  H
  O21      1.0000 0.35660  0.14340  0.30330  Biso   1.000  O
  N22      1.0000 0.27460  0.72540  0.83930  Biso   1.000  N
  C64      1.0000 0.26621  0.73380  0.88200  Biso   1.000  C
  C65      1.0000 0.28090  0.71910  0.92070  Biso   1.000  C
  C66      1.0000 0.26610  0.73390  0.96140  Biso   1.000  C
  H22      1.0000 0.30217  0.69783  0.92045  Biso   1.000  H
  O22      1.0000 0.35660  0.64340  0.80330  Biso   1.000  O
  N23      1.0000 0.72540  0.22540  0.66070  Biso   1.000  N
  C67      1.0000 0.73380  0.23379  0.61800  Biso   1.000  C
  C68      1.0000 0.71910  0.21910  0.57930  Biso   1.000  C
  C69      1.0000 0.73390  0.23390  0.53860  Biso   1.000  C
  H23      1.0000 0.69783  0.19783  0.57955  Biso   1.000  H
  O23      1.0000 0.64340  0.14340  0.69670  Biso   1.000  O
  N24      1.0000 0.72540  0.72540  0.16070  Biso   1.000  N
  C70      1.0000 0.73380  0.73380  0.11800  Biso   1.000  C
  C71      1.0000 0.71910  0.71910  0.07930  Biso   1.000  C
  C72      1.0000 0.73390  0.73390  0.03860  Biso   1.000  C
  H24      1.0000 0.69783  0.69783  0.07955  Biso   1.000  H
  O24      1.0000 0.64340  0.64340  0.19670  Biso   1.000  O
  N25      1.0000 0.22540  0.22540  0.16070  Biso   1.000  N
  C73      1.0000 0.23379  0.23379  0.11800  Biso   1.000  C
  C74      1.0000 0.21910  0.21910  0.07930  Biso   1.000  C
  C75      1.0000 0.23390  0.23390  0.03860  Biso   1.000  C
  H25      1.0000 0.19783  0.19783  0.07955  Biso   1.000  H
  O25      1.0000 0.14340  0.14340  0.19670  Biso   1.000  O
  N26      1.0000 0.27460  0.77460  0.66070  Biso   1.000  N
  C76      1.0000 0.26621  0.76621  0.61800  Biso   1.000  C
  C77      1.0000 0.28090  0.78090  0.57930  Biso   1.000  C
  C78      1.0000 0.26610  0.76610  0.53860  Biso   1.000  C
  H26      1.0000 0.30217  0.80217  0.57955  Biso   1.000  H
  O26      1.0000 0.35660  0.85660  0.69670  Biso   1.000  O
  N27      1.0000 0.27460  0.27460  0.16070  Biso   1.000  N
  C79      1.0000 0.26621  0.26621  0.11800  Biso   1.000  C
  C80      1.0000 0.28090  0.28090  0.07930  Biso   1.000  C
  C81      1.0000 0.26610  0.26610  0.03860  Biso   1.000  C
  H27      1.0000 0.30217  0.30217  0.07955  Biso   1.000  H
  O27      1.0000 0.35660  0.35660  0.19670  Biso   1.000  O
  N28      1.0000 0.72540  0.77460  0.33930  Biso   1.000  N
  C82      1.0000 0.73380  0.76621  0.38200  Biso   1.000  C
  C83      1.0000 0.71910  0.78090  0.42070  Biso   1.000  C
  C84      1.0000 0.73390  0.76610  0.46140  Biso   1.000  C
  H28      1.0000 0.69783  0.80217  0.42045  Biso   1.000  H
  O28      1.0000 0.64340  0.85660  0.30330  Biso   1.000  O
  N29      1.0000 0.72540  0.27460  0.83930  Biso   1.000  N
  C85      1.0000 0.73380  0.26621  0.88200  Biso   1.000  C
  C86      1.0000 0.71910  0.28090  0.92070  Biso   1.000  C
  C87      1.0000 0.73390  0.26610  0.96140  Biso   1.000  C
  H29      1.0000 0.69783  0.30217  0.92045  Biso   1.000  H
  O29      1.0000 0.64340  0.35660  0.80330  Biso   1.000  O
  N30      1.0000 0.22540  0.27460  0.33930  Biso   1.000  N
  C88      1.0000 0.23379  0.26621  0.38200  Biso   1.000  C
  C89      1.0000 0.21910  0.28090  0.42070  Biso   1.000  C
  C90      1.0000 0.23390  0.26610  0.46140  Biso   1.000  C
  H30      1.0000 0.19783  0.30217  0.42045  Biso   1.000  H
  O30      1.0000 0.14340  0.35660  0.30330  Biso   1.000  O
  N31      1.0000 0.27460  0.33930  0.77460  Biso   1.000  N
  C91      1.0000 0.26621  0.38200  0.76621  Biso   1.000  C
  C92      1.0000 0.28090  0.42070  0.78090  Biso   1.000  C
  C93      1.0000 0.26610  0.46140  0.76610  Biso   1.000  C
  H31      1.0000 0.30217  0.42045  0.80217  Biso   1.000  H
  O31      1.0000 0.35660  0.30330  0.85660  Biso   1.000  O
  N32      1.0000 0.27460  0.83930  0.27460  Biso   1.000  N
  C94      1.0000 0.26621  0.88200  0.26621  Biso   1.000  C
  C95      1.0000 0.28090  0.92070  0.28090  Biso   1.000  C
  C96      1.0000 0.26610  0.96140  0.26610  Biso   1.000  C
  H32      1.0000 0.30217  0.92045  0.30217  Biso   1.000  H
  O32      1.0000 0.35660  0.80330  0.35660  Biso   1.000  O
  N33      1.0000 0.72540  0.66070  0.77460  Biso   1.000  N
  C97      1.0000 0.73380  0.61800  0.76621  Biso   1.000  C
  C98      1.0000 0.71910  0.57930  0.78090  Biso   1.000  C
  C99      1.0000 0.73390  0.53860  0.76610  Biso   1.000  C
  H33      1.0000 0.69783  0.57955  0.80217  Biso   1.000  H
  O33      1.0000 0.64340  0.69670  0.85660  Biso   1.000  O
  N34      1.0000 0.72540  0.16070  0.27460  Biso   1.000  N
  C100     1.0000 0.73380  0.11800  0.26621  Biso   1.000  C
  C101     1.0000 0.71910  0.07930  0.28090  Biso   1.000  C
  C102     1.0000 0.73390  0.03860  0.26610  Biso   1.000  C
  H34      1.0000 0.69783  0.07955  0.30217  Biso   1.000  H
  O34      1.0000 0.64340  0.19670  0.35660  Biso   1.000  O
  N35      1.0000 0.22540  0.66070  0.27460  Biso   1.000  N
  C103     1.0000 0.23379  0.61800  0.26621  Biso   1.000  C
  C104     1.0000 0.21910  0.57930  0.28090  Biso   1.000  C
  C105     1.0000 0.23390  0.53860  0.26610  Biso   1.000  C
  H35      1.0000 0.19783  0.57955  0.30217  Biso   1.000  H
  O35      1.0000 0.14340  0.69670  0.35660  Biso   1.000  O
  N36      1.0000 0.27460  0.66070  0.22540  Biso   1.000  N
  C106     1.0000 0.26621  0.61800  0.23379  Biso   1.000  C
  C107     1.0000 0.28090  0.57930  0.21910  Biso   1.000  C
  C108     1.0000 0.26610  0.53860  0.23390  Biso   1.000  C
  H36      1.0000 0.30217  0.57955  0.19783  Biso   1.000  H
  O36      1.0000 0.35660  0.69670  0.14340  Biso   1.000  O
  N37      1.0000 0.27460  0.16070  0.72540  Biso   1.000  N
  C109     1.0000 0.26621  0.11800  0.73380  Biso   1.000  C
  C110     1.0000 0.28090  0.07930  0.71910  Biso   1.000  C
  C111     1.0000 0.26610  0.03860  0.73390  Biso   1.000  C
  H37      1.0000 0.30217  0.07955  0.69783  Biso   1.000  H
  O37      1.0000 0.35660  0.19670  0.64340  Biso   1.000  O
  N38      1.0000 0.72540  0.33930  0.22540  Biso   1.000  N
  C112     1.0000 0.73380  0.38200  0.23379  Biso   1.000  C
  C113     1.0000 0.71910  0.42070  0.21910  Biso   1.000  C
  C114     1.0000 0.73390  0.46140  0.23390  Biso   1.000  C
  H38      1.0000 0.69783  0.42045  0.19783  Biso   1.000  H
  O38      1.0000 0.64340  0.30330  0.14340  Biso   1.000  O
  N39      1.0000 0.72540  0.83930  0.72540  Biso   1.000  N
  C115     1.0000 0.73380  0.88200  0.73380  Biso   1.000  C
  C116     1.0000 0.71910  0.92070  0.71910  Biso   1.000  C
  C117     1.0000 0.73390  0.96140  0.73390  Biso   1.000  C
  H39      1.0000 0.69783  0.92045  0.69783  Biso   1.000  H
  O39      1.0000 0.64340  0.80330  0.64340  Biso   1.000  O
  N40      1.0000 0.22540  0.83930  0.22540  Biso   1.000  N
  C118     1.0000 0.23379  0.88200  0.23379  Biso   1.000  C
  C119     1.0000 0.21910  0.92070  0.21910  Biso   1.000  C
  C120     1.0000 0.23390  0.96140  0.23390  Biso   1.000  C
  H40      1.0000 0.19783  0.92045  0.19783  Biso   1.000  H
  O40      1.0000 0.14340  0.80330  0.14340  Biso   1.000  O
  N41      1.0000 0.33930  0.22540  0.72540  Biso   1.000  N
  C121     1.0000 0.38200  0.23379  0.73380  Biso   1.000  C
  C122     1.0000 0.42070  0.21910  0.71910  Biso   1.000  C
  C123     1.0000 0.46140  0.23390  0.73390  Biso   1.000  C
  H41      1.0000 0.42045  0.19783  0.69783  Biso   1.000  H
  O41      1.0000 0.30330  0.14340  0.64340  Biso   1.000  O
  N42      1.0000 0.83930  0.22540  0.22540  Biso   1.000  N
  C124     1.0000 0.88200  0.23379  0.23379  Biso   1.000  C
  C125     1.0000 0.92070  0.21910  0.21910  Biso   1.000  C
  C126     1.0000 0.96140  0.23390  0.23390  Biso   1.000  C
  H42      1.0000 0.92045  0.19783  0.19783  Biso   1.000  H
  O42      1.0000 0.80330  0.14340  0.14340  Biso   1.000  O
  N43      1.0000 0.66070  0.22540  0.27460  Biso   1.000  N
  C127     1.0000 0.61800  0.23379  0.26621  Biso   1.000  C
  C128     1.0000 0.57930  0.21910  0.28090  Biso   1.000  C
  C129     1.0000 0.53860  0.23390  0.26610  Biso   1.000  C
  H43      1.0000 0.57955  0.19783  0.30217  Biso   1.000  H
  O43      1.0000 0.69670  0.14340  0.35660  Biso   1.000  O
  N44      1.0000 0.16070  0.22540  0.77460  Biso   1.000  N
  C130     1.0000 0.11800  0.23379  0.76621  Biso   1.000  C
  C131     1.0000 0.07930  0.21910  0.78090  Biso   1.000  C
  C132     1.0000 0.03860  0.23390  0.76610  Biso   1.000  C
  H44      1.0000 0.07955  0.19783  0.80217  Biso   1.000  H
  O44      1.0000 0.19670  0.14340  0.85660  Biso   1.000  O
  N45      1.0000 0.66070  0.77460  0.72540  Biso   1.000  N
  C133     1.0000 0.61800  0.76621  0.73380  Biso   1.000  C
  C134     1.0000 0.57930  0.78090  0.71910  Biso   1.000  C
  C135     1.0000 0.53860  0.76610  0.73390  Biso   1.000  C
  H45      1.0000 0.57955  0.80217  0.69783  Biso   1.000  H
  O45      1.0000 0.69670  0.85660  0.64340  Biso   1.000  O
  N46      1.0000 0.66070  0.27460  0.22540  Biso   1.000  N
  C136     1.0000 0.61800  0.26621  0.23379  Biso   1.000  C
  C137     1.0000 0.57930  0.28090  0.21910  Biso   1.000  C
  C138     1.0000 0.53860  0.26610  0.23390  Biso   1.000  C
  H46      1.0000 0.57955  0.30217  0.19783  Biso   1.000  H
  O46      1.0000 0.69670  0.35660  0.14340  Biso   1.000  O
  N47      1.0000 0.16070  0.77460  0.22540  Biso   1.000  N
  C139     1.0000 0.11800  0.76621  0.23379  Biso   1.000  C
  C140     1.0000 0.07930  0.78090  0.21910  Biso   1.000  C
  C141     1.0000 0.03860  0.76610  0.23390  Biso   1.000  C
  H47      1.0000 0.07955  0.80217  0.19783  Biso   1.000  H
  O47      1.0000 0.19670  0.85660  0.14340  Biso   1.000  O
  N48      1.0000 0.33930  0.77460  0.27460  Biso   1.000  N
  C142     1.0000 0.38200  0.76621  0.26621  Biso   1.000  C
  C143     1.0000 0.42070  0.78090  0.28090  Biso   1.000  C
  C144     1.0000 0.46140  0.76610  0.26610  Biso   1.000  C
  H48      1.0000 0.42045  0.80217  0.30217  Biso   1.000  H
  O48      1.0000 0.30330  0.85660  0.35660  Biso   1.000  O
  N49      1.0000 0.83930  0.77460  0.77460  Biso   1.000  N
  C145     1.0000 0.88200  0.76621  0.76621  Biso   1.000  C
  C146     1.0000 0.92070  0.78090  0.78090  Biso   1.000  C
  C147     1.0000 0.96140  0.76610  0.76610  Biso   1.000  C
  H49      1.0000 0.92045  0.80217  0.80217  Biso   1.000  H
  O49      1.0000 0.80330  0.85660  0.85660  Biso   1.000  O
  N50      1.0000 0.83930  0.27460  0.27460  Biso   1.000  N
  C148     1.0000 0.88200  0.26621  0.26621  Biso   1.000  C
  C149     1.0000 0.92070  0.28090  0.28090  Biso   1.000  C
  C150     1.0000 0.96140  0.26610  0.26610  Biso   1.000  C
  H50      1.0000 0.92045  0.30217  0.30217  Biso   1.000  H
  O50      1.0000 0.80330  0.35660  0.35660  Biso   1.000  O
  N51      1.0000 0.22540  0.27460  0.66070  Biso   1.000  N
  C151     1.0000 0.23379  0.26621  0.61800  Biso   1.000  C
  C152     1.0000 0.21910  0.28090  0.57930  Biso   1.000  C
  C153     1.0000 0.23390  0.26610  0.53860  Biso   1.000  C
  H51      1.0000 0.19783  0.30217  0.57955  Biso   1.000  H
  O51      1.0000 0.14340  0.35660  0.69670  Biso   1.000  O
  N52      1.0000 0.22540  0.77460  0.16070  Biso   1.000  N
  C154     1.0000 0.23379  0.76621  0.11800  Biso   1.000  C
  C155     1.0000 0.21910  0.78090  0.07930  Biso   1.000  C
  C156     1.0000 0.23390  0.76610  0.03860  Biso   1.000  C
  H52      1.0000 0.19783  0.80217  0.07955  Biso   1.000  H
  O52      1.0000 0.14340  0.85660  0.19670  Biso   1.000  O
  N53      1.0000 0.22540  0.72540  0.33930  Biso   1.000  N
  C157     1.0000 0.23379  0.73380  0.38200  Biso   1.000  C
  C158     1.0000 0.21910  0.71910  0.42070  Biso   1.000  C
  C159     1.0000 0.23390  0.73390  0.46140  Biso   1.000  C
  H53      1.0000 0.19783  0.69783  0.42045  Biso   1.000  H
  O53      1.0000 0.14340  0.64340  0.30330  Biso   1.000  O
  N54      1.0000 0.22540  0.22540  0.83930  Biso   1.000  N
  C160     1.0000 0.23379  0.23379  0.88200  Biso   1.000  C
  C161     1.0000 0.21910  0.21910  0.92070  Biso   1.000  C
  C162     1.0000 0.23390  0.23390  0.96140  Biso   1.000  C
  H54      1.0000 0.19783  0.19783  0.92045  Biso   1.000  H
  O54      1.0000 0.14340  0.14340  0.80330  Biso   1.000  O
  N55      1.0000 0.77460  0.27460  0.33930  Biso   1.000  N
  C163     1.0000 0.76621  0.26621  0.38200  Biso   1.000  C
  C164     1.0000 0.78090  0.28090  0.42070  Biso   1.000  C
  C165     1.0000 0.76610  0.26610  0.46140  Biso   1.000  C
  H55      1.0000 0.80217  0.30217  0.42045  Biso   1.000  H
  O55      1.0000 0.85660  0.35660  0.30330  Biso   1.000  O
  N56      1.0000 0.77460  0.77460  0.83930  Biso   1.000  N
  C166     1.0000 0.76621  0.76621  0.88200  Biso   1.000  C
  C167     1.0000 0.78090  0.78090  0.92070  Biso   1.000  C
  C168     1.0000 0.76610  0.76610  0.96140  Biso   1.000  C
  H56      1.0000 0.80217  0.80217  0.92045  Biso   1.000  H
  O56      1.0000 0.85660  0.85660  0.80330  Biso   1.000  O
  N57      1.0000 0.27460  0.27460  0.83930  Biso   1.000  N
  C169     1.0000 0.26621  0.26621  0.88200  Biso   1.000  C
  C170     1.0000 0.28090  0.28090  0.92070  Biso   1.000  C
  C171     1.0000 0.26610  0.26610  0.96140  Biso   1.000  C
  H57      1.0000 0.30217  0.30217  0.92045  Biso   1.000  H
  O57      1.0000 0.35660  0.35660  0.80330  Biso   1.000  O
  N58      1.0000 0.77460  0.72540  0.66070  Biso   1.000  N
  C172     1.0000 0.76621  0.73380  0.61800  Biso   1.000  C
  C173     1.0000 0.78090  0.71910  0.57930  Biso   1.000  C
  C174     1.0000 0.76610  0.73390  0.53860  Biso   1.000  C
  H58      1.0000 0.80217  0.69783  0.57955  Biso   1.000  H
  O58      1.0000 0.85660  0.64340  0.69670  Biso   1.000  O
  N59      1.0000 0.77460  0.22540  0.16070  Biso   1.000  N
  C175     1.0000 0.76621  0.23379  0.11800  Biso   1.000  C
  C176     1.0000 0.78090  0.21910  0.07930  Biso   1.000  C
  C177     1.0000 0.76610  0.23390  0.03860  Biso   1.000  C
  H59      1.0000 0.80217  0.19783  0.07955  Biso   1.000  H
  O59      1.0000 0.85660  0.14340  0.19670  Biso   1.000  O
  N60      1.0000 0.27460  0.22540  0.66070  Biso   1.000  N
  C178     1.0000 0.26621  0.23379  0.61800  Biso   1.000  C
  C179     1.0000 0.28090  0.21910  0.57930  Biso   1.000  C
  C180     1.0000 0.26610  0.23390  0.53860  Biso   1.000  C
  H60      1.0000 0.30217  0.19783  0.57955  Biso   1.000  H
  O60      1.0000 0.35660  0.14340  0.69670  Biso   1.000  O
  N61      1.0000 0.66070  0.72540  0.77460  Biso   1.000  N
  C181     1.0000 0.61800  0.73380  0.76621  Biso   1.000  C
  C182     1.0000 0.57930  0.71910  0.78090  Biso   1.000  C
  C183     1.0000 0.53860  0.73390  0.76610  Biso   1.000  C
  H61      1.0000 0.57955  0.69783  0.80217  Biso   1.000  H
  O61      1.0000 0.69670  0.64340  0.85660  Biso   1.000  O
  N62      1.0000 0.16070  0.72540  0.27460  Biso   1.000  N
  C184     1.0000 0.11800  0.73380  0.26621  Biso   1.000  C
  C185     1.0000 0.07930  0.71910  0.28090  Biso   1.000  C
  C186     1.0000 0.03860  0.73390  0.26610  Biso   1.000  C
  H62      1.0000 0.07955  0.69783  0.30217  Biso   1.000  H
  O62      1.0000 0.19670  0.64340  0.35660  Biso   1.000  O
  N63      1.0000 0.33930  0.27460  0.77460  Biso   1.000  N
  C187     1.0000 0.38200  0.26621  0.76621  Biso   1.000  C
  C188     1.0000 0.42070  0.28090  0.78090  Biso   1.000  C
  C189     1.0000 0.46140  0.26610  0.76610  Biso   1.000  C
  H63      1.0000 0.42045  0.30217  0.80217  Biso   1.000  H
  O63      1.0000 0.30330  0.35660  0.85660  Biso   1.000  O
  N64      1.0000 0.33930  0.72540  0.22540  Biso   1.000  N
  C190     1.0000 0.38200  0.73380  0.23379  Biso   1.000  C
  C191     1.0000 0.42070  0.71910  0.21910  Biso   1.000  C
  C192     1.0000 0.46140  0.73390  0.23390  Biso   1.000  C
  H64      1.0000 0.42045  0.69783  0.19783  Biso   1.000  H
  O64      1.0000 0.30330  0.64340  0.14340  Biso   1.000  O
  N65      1.0000 0.83930  0.72540  0.72540  Biso   1.000  N
  C193     1.0000 0.88200  0.73380  0.73380  Biso   1.000  C
  C194     1.0000 0.92070  0.71910  0.71910  Biso   1.000  C
  C195     1.0000 0.96140  0.73390  0.73390  Biso   1.000  C
  H65      1.0000 0.92045  0.69783  0.69783  Biso   1.000  H
  O65      1.0000 0.80330  0.64340  0.64340  Biso   1.000  O
  N66      1.0000 0.16070  0.27460  0.72540  Biso   1.000  N
  C196     1.0000 0.11800  0.26621  0.73380  Biso   1.000  C
  C197     1.0000 0.07930  0.28090  0.71910  Biso   1.000  C
  C198     1.0000 0.03860  0.26610  0.73390  Biso   1.000  C
  H66      1.0000 0.07955  0.30217  0.69783  Biso   1.000  H
  O66      1.0000 0.19670  0.35660  0.64340  Biso   1.000  O
  N67      1.0000 0.77460  0.66070  0.72540  Biso   1.000  N
  C199     1.0000 0.76621  0.61800  0.73380  Biso   1.000  C
  C200     1.0000 0.78090  0.57930  0.71910  Biso   1.000  C
  C201     1.0000 0.76610  0.53860  0.73390  Biso   1.000  C
  H67      1.0000 0.80217  0.57955  0.69783  Biso   1.000  H
  O67      1.0000 0.85660  0.69670  0.64340  Biso   1.000  O
  N68      1.0000 0.77460  0.16070  0.22540  Biso   1.000  N
  C202     1.0000 0.76621  0.11800  0.23379  Biso   1.000  C
  C203     1.0000 0.78090  0.07930  0.21910  Biso   1.000  C
  C204     1.0000 0.76610  0.03860  0.23390  Biso   1.000  C
  H68      1.0000 0.80217  0.07955  0.19783  Biso   1.000  H
  O68      1.0000 0.85660  0.19670  0.14340  Biso   1.000  O
  N69      1.0000 0.77460  0.33930  0.27460  Biso   1.000  N
  C205     1.0000 0.76621  0.38200  0.26621  Biso   1.000  C
  C206     1.0000 0.78090  0.42070  0.28090  Biso   1.000  C
  C207     1.0000 0.76610  0.46140  0.26610  Biso   1.000  C
  H69      1.0000 0.80217  0.42045  0.30217  Biso   1.000  H
  O69      1.0000 0.85660  0.30330  0.35660  Biso   1.000  O
  N70      1.0000 0.77460  0.83930  0.77460  Biso   1.000  N
  C208     1.0000 0.76621  0.88200  0.76621  Biso   1.000  C
  C209     1.0000 0.78090  0.92070  0.78090  Biso   1.000  C
  C210     1.0000 0.76610  0.96140  0.76610  Biso   1.000  C
  H70      1.0000 0.80217  0.92045  0.80217  Biso   1.000  H
  O70      1.0000 0.85660  0.80330  0.85660  Biso   1.000  O
  N71      1.0000 0.22540  0.33930  0.72540  Biso   1.000  N
  C211     1.0000 0.23379  0.38200  0.73380  Biso   1.000  C
  C212     1.0000 0.21910  0.42070  0.71910  Biso   1.000  C
  C213     1.0000 0.23390  0.46140  0.73390  Biso   1.000  C
  H71      1.0000 0.19783  0.42045  0.69783  Biso   1.000  H
  O71      1.0000 0.14340  0.30330  0.64340  Biso   1.000  O
  N72      1.0000 0.22540  0.16070  0.77460  Biso   1.000  N
  C214     1.0000 0.23379  0.11800  0.76621  Biso   1.000  C
  C215     1.0000 0.21910  0.07930  0.78090  Biso   1.000  C
  C216     1.0000 0.23390  0.03860  0.76610  Biso   1.000  C
  H72      1.0000 0.19783  0.07955  0.80217  Biso   1.000  H
  O72      1.0000 0.14340  0.19670  0.85660  Biso   1.000  O
  N73      1.0000 0.72540  0.77460  0.66070  Biso   1.000  N
  C217     1.0000 0.73380  0.76621  0.61800  Biso   1.000  C
  C218     1.0000 0.71910  0.78090  0.57930  Biso   1.000  C
  C219     1.0000 0.73390  0.76610  0.53860  Biso   1.000  C
  H73      1.0000 0.69783  0.80217  0.57955  Biso   1.000  H
  O73      1.0000 0.64340  0.85660  0.69670  Biso   1.000  O
  N74      1.0000 0.72540  0.27460  0.16070  Biso   1.000  N
  C220     1.0000 0.73380  0.26621  0.11800  Biso   1.000  C
  C221     1.0000 0.71910  0.28090  0.07930  Biso   1.000  C
  C222     1.0000 0.73390  0.26610  0.03860  Biso   1.000  C
  H74      1.0000 0.69783  0.30217  0.07955  Biso   1.000  H
  O74      1.0000 0.64340  0.35660  0.19670  Biso   1.000  O
  N75      1.0000 0.27460  0.77460  0.33930  Biso   1.000  N
  C223     1.0000 0.26621  0.76621  0.38200  Biso   1.000  C
  C224     1.0000 0.28090  0.78090  0.42070  Biso   1.000  C
  C225     1.0000 0.26610  0.76610  0.46140  Biso   1.000  C
  H75      1.0000 0.30217  0.80217  0.42045  Biso   1.000  H
  O75      1.0000 0.35660  0.85660  0.30330  Biso   1.000  O
  N76      1.0000 0.72540  0.22540  0.33930  Biso   1.000  N
  C226     1.0000 0.73380  0.23379  0.38200  Biso   1.000  C
  C227     1.0000 0.71910  0.21910  0.42070  Biso   1.000  C
  C228     1.0000 0.73390  0.23390  0.46140  Biso   1.000  C
  H76      1.0000 0.69783  0.19783  0.42045  Biso   1.000  H
  O76      1.0000 0.64340  0.14340  0.30330  Biso   1.000  O
  N77      1.0000 0.72540  0.72540  0.83930  Biso   1.000  N
  C229     1.0000 0.73380  0.73380  0.88200  Biso   1.000  C
  C230     1.0000 0.71910  0.71910  0.92070  Biso   1.000  C
  C231     1.0000 0.73390  0.73390  0.96140  Biso   1.000  C
  H77      1.0000 0.69783  0.69783  0.92045  Biso   1.000  H
  O77      1.0000 0.64340  0.64340  0.80330  Biso   1.000  O
  N78      1.0000 0.27460  0.72540  0.16070  Biso   1.000  N
  C232     1.0000 0.26621  0.73380  0.11800  Biso   1.000  C
  C233     1.0000 0.28090  0.71910  0.07930  Biso   1.000  C
  C234     1.0000 0.26610  0.73390  0.03860  Biso   1.000  C
  H78      1.0000 0.30217  0.69783  0.07955  Biso   1.000  H
  O78      1.0000 0.35660  0.64340  0.19670  Biso   1.000  O
  N79      1.0000 0.72540  0.66070  0.22540  Biso   1.000  N
  C235     1.0000 0.73380  0.61800  0.23379  Biso   1.000  C
  C236     1.0000 0.71910  0.57930  0.21910  Biso   1.000  C
  C237     1.0000 0.73390  0.53860  0.23390  Biso   1.000  C
  H79      1.0000 0.69783  0.57955  0.19783  Biso   1.000  H
  O79      1.0000 0.64340  0.69670  0.14340  Biso   1.000  O
  N80      1.0000 0.72540  0.16070  0.72540  Biso   1.000  N
  C238     1.0000 0.73380  0.11800  0.73380  Biso   1.000  C
  C239     1.0000 0.71910  0.07930  0.71910  Biso   1.000  C
  C240     1.0000 0.73390  0.03860  0.73390  Biso   1.000  C
  H80      1.0000 0.69783  0.07955  0.69783  Biso   1.000  H
  O80      1.0000 0.64340  0.19670  0.64340  Biso   1.000  O
  N81      1.0000 0.27460  0.83930  0.72540  Biso   1.000  N
  C241     1.0000 0.26621  0.88200  0.73380  Biso   1.000  C
  C242     1.0000 0.28090  0.92070  0.71910  Biso   1.000  C
  C243     1.0000 0.26610  0.96140  0.73390  Biso   1.000  C
  H81      1.0000 0.30217  0.92045  0.69783  Biso   1.000  H
  O81      1.0000 0.35660  0.80330  0.64340  Biso   1.000  O
  N82      1.0000 0.72540  0.33930  0.77460  Biso   1.000  N
  C244     1.0000 0.73380  0.38200  0.76621  Biso   1.000  C
  C245     1.0000 0.71910  0.42070  0.78090  Biso   1.000  C
  C246     1.0000 0.73390  0.46140  0.76610  Biso   1.000  C
  H82      1.0000 0.69783  0.42045  0.80217  Biso   1.000  H
  O82      1.0000 0.64340  0.30330  0.85660  Biso   1.000  O
  N83      1.0000 0.72540  0.83930  0.27460  Biso   1.000  N
  C247     1.0000 0.73380  0.88200  0.26621  Biso   1.000  C
  C248     1.0000 0.71910  0.92070  0.28090  Biso   1.000  C
  C249     1.0000 0.73390  0.96140  0.26610  Biso   1.000  C
  H83      1.0000 0.69783  0.92045  0.30217  Biso   1.000  H
  O83      1.0000 0.64340  0.80330  0.35660  Biso   1.000  O
  N84      1.0000 0.27460  0.66070  0.77460  Biso   1.000  N
  C250     1.0000 0.26621  0.61800  0.76621  Biso   1.000  C
  C251     1.0000 0.28090  0.57930  0.78090  Biso   1.000  C
  C252     1.0000 0.26610  0.53860  0.76610  Biso   1.000  C
  H84      1.0000 0.30217  0.57955  0.80217  Biso   1.000  H
  O84      1.0000 0.35660  0.69670  0.85660  Biso   1.000  O
  N85      1.0000 0.66070  0.77460  0.27460  Biso   1.000  N
  C253     1.0000 0.61800  0.76621  0.26621  Biso   1.000  C
  C254     1.0000 0.57930  0.78090  0.28090  Biso   1.000  C
  C255     1.0000 0.53860  0.76610  0.26610  Biso   1.000  C
  H85      1.0000 0.57955  0.80217  0.30217  Biso   1.000  H
  O85      1.0000 0.69670  0.85660  0.35660  Biso   1.000  O
  N86      1.0000 0.16070  0.77460  0.77460  Biso   1.000  N
  C256     1.0000 0.11800  0.76621  0.76621  Biso   1.000  C
  C257     1.0000 0.07930  0.78090  0.78090  Biso   1.000  C
  C258     1.0000 0.03860  0.76610  0.76610  Biso   1.000  C
  H86      1.0000 0.07955  0.80217  0.80217  Biso   1.000  H
  O86      1.0000 0.19670  0.85660  0.85660  Biso   1.000  O
  N87      1.0000 0.33930  0.77460  0.72540  Biso   1.000  N
  C259     1.0000 0.38200  0.76621  0.73380  Biso   1.000  C
  C260     1.0000 0.42070  0.78090  0.71910  Biso   1.000  C
  C261     1.0000 0.46140  0.76610  0.73390  Biso   1.000  C
  H87      1.0000 0.42045  0.80217  0.69783  Biso   1.000  H
  O87      1.0000 0.30330  0.85660  0.64340  Biso   1.000  O
  N88      1.0000 0.83930  0.77460  0.22540  Biso   1.000  N
  C262     1.0000 0.88200  0.76621  0.23379  Biso   1.000  C
  C263     1.0000 0.92070  0.78090  0.21910  Biso   1.000  C
  C264     1.0000 0.96140  0.76610  0.23390  Biso   1.000  C
  H88      1.0000 0.92045  0.80217  0.19783  Biso   1.000  H
  O88      1.0000 0.80330  0.85660  0.14340  Biso   1.000  O
  N89      1.0000 0.83930  0.22540  0.77460  Biso   1.000  N
  C265     1.0000 0.88200  0.23379  0.76621  Biso   1.000  C
  C266     1.0000 0.92070  0.21910  0.78090  Biso   1.000  C
  C267     1.0000 0.96140  0.23390  0.76610  Biso   1.000  C
  H89      1.0000 0.92045  0.19783  0.80217  Biso   1.000  H
  O89      1.0000 0.80330  0.14340  0.85660  Biso   1.000  O
  N90      1.0000 0.66070  0.22540  0.72540  Biso   1.000  N
  C268     1.0000 0.61800  0.23379  0.73380  Biso   1.000  C
  C269     1.0000 0.57930  0.21910  0.71910  Biso   1.000  C
  C270     1.0000 0.53860  0.23390  0.73390  Biso   1.000  C
  H90      1.0000 0.57955  0.19783  0.69783  Biso   1.000  H
  O90      1.0000 0.69670  0.14340  0.64340  Biso   1.000  O
  N91      1.0000 0.77460  0.72540  0.33930  Biso   1.000  N
  C271     1.0000 0.76621  0.73380  0.38200  Biso   1.000  C
  C272     1.0000 0.78090  0.71910  0.42070  Biso   1.000  C
  C273     1.0000 0.76610  0.73390  0.46140  Biso   1.000  C
  H91      1.0000 0.80217  0.69783  0.42045  Biso   1.000  H
  O91      1.0000 0.85660  0.64340  0.30330  Biso   1.000  O
  N92      1.0000 0.77460  0.22540  0.83930  Biso   1.000  N
  C274     1.0000 0.76621  0.23379  0.88200  Biso   1.000  C
  C275     1.0000 0.78090  0.21910  0.92070  Biso   1.000  C
  C276     1.0000 0.76610  0.23390  0.96140  Biso   1.000  C
  H92      1.0000 0.80217  0.19783  0.92045  Biso   1.000  H
  O92      1.0000 0.85660  0.14340  0.80330  Biso   1.000  O
  N93      1.0000 0.77460  0.27460  0.66070  Biso   1.000  N
  C277     1.0000 0.76621  0.26621  0.61800  Biso   1.000  C
  C278     1.0000 0.78090  0.28090  0.57930  Biso   1.000  C
  C279     1.0000 0.76610  0.26610  0.53860  Biso   1.000  C
  H93      1.0000 0.80217  0.30217  0.57955  Biso   1.000  H
  O93      1.0000 0.85660  0.35660  0.69670  Biso   1.000  O
  N94      1.0000 0.77460  0.77460  0.16070  Biso   1.000  N
  C280     1.0000 0.76621  0.76621  0.11800  Biso   1.000  C
  C281     1.0000 0.78090  0.78090  0.07930  Biso   1.000  C
  C282     1.0000 0.76610  0.76610  0.03860  Biso   1.000  C
  H94      1.0000 0.80217  0.80217  0.07955  Biso   1.000  H
  O94      1.0000 0.85660  0.85660  0.19670  Biso   1.000  O
  N95      1.0000 0.22540  0.72540  0.66070  Biso   1.000  N
  C283     1.0000 0.23379  0.73380  0.61800  Biso   1.000  C
  C284     1.0000 0.21910  0.71910  0.57930  Biso   1.000  C
  C285     1.0000 0.23390  0.73390  0.53860  Biso   1.000  C
  H95      1.0000 0.19783  0.69783  0.57955  Biso   1.000  H
  O95      1.0000 0.14340  0.64340  0.69670  Biso   1.000  O
  N96      1.0000 0.22540  0.77460  0.83930  Biso   1.000  N
  C286     1.0000 0.23379  0.76621  0.88200  Biso   1.000  C
  C287     1.0000 0.21910  0.78090  0.92070  Biso   1.000  C
  C288     1.0000 0.23390  0.76610  0.96140  Biso   1.000  C
  H96      1.0000 0.19783  0.80217  0.92045  Biso   1.000  H
  O96      1.0000 0.14340  0.85660  0.80330  Biso   1.000  O
  N97      1.0000 0.31410  0.25000  0.25000  Biso   1.000  N
  N98      1.0000 0.81410  0.25000  0.75000  Biso   1.000  N
  N99      1.0000 0.68590  0.75000  0.25000  Biso   1.000  N
  N100     1.0000 0.18590  0.75000  0.75000  Biso   1.000  N
  N101     1.0000 0.18590  0.25000  0.25000  Biso   1.000  N
  N102     1.0000 0.68590  0.25000  0.75000  Biso   1.000  N
  N103     1.0000 0.31410  0.75000  0.75000  Biso   1.000  N
  N104     1.0000 0.81410  0.75000  0.25000  Biso   1.000  N
  N105     1.0000 0.25000  0.31410  0.25000  Biso   1.000  N
  N106     1.0000 0.25000  0.81410  0.75000  Biso   1.000  N
  N107     1.0000 0.25000  0.68590  0.75000  Biso   1.000  N
  N108     1.0000 0.25000  0.18590  0.25000  Biso   1.000  N
  N109     1.0000 0.75000  0.68590  0.25000  Biso   1.000  N
  N110     1.0000 0.75000  0.18590  0.75000  Biso   1.000  N
  N111     1.0000 0.75000  0.31410  0.75000  Biso   1.000  N
  N112     1.0000 0.75000  0.81410  0.25000  Biso   1.000  N
  N113     1.0000 0.25000  0.25000  0.31410  Biso   1.000  N
  N114     1.0000 0.25000  0.75000  0.81410  Biso   1.000  N
  N115     1.0000 0.75000  0.25000  0.68590  Biso   1.000  N
  N116     1.0000 0.75000  0.75000  0.18590  Biso   1.000  N
  N117     1.0000 0.25000  0.25000  0.18590  Biso   1.000  N
  N118     1.0000 0.25000  0.75000  0.68590  Biso   1.000  N
  N119     1.0000 0.75000  0.75000  0.31410  Biso   1.000  N
  N120     1.0000 0.75000  0.25000  0.81410  Biso   1.000  N
  N121     1.0000 0.25000  0.31410  0.75000  Biso   1.000  N
  N122     1.0000 0.25000  0.81410  0.25000  Biso   1.000  N
  N123     1.0000 0.75000  0.68590  0.75000  Biso   1.000  N
  N124     1.0000 0.75000  0.18590  0.25000  Biso   1.000  N
  N125     1.0000 0.25000  0.68590  0.25000  Biso   1.000  N
  N126     1.0000 0.25000  0.18590  0.75000  Biso   1.000  N
  N127     1.0000 0.75000  0.31410  0.25000  Biso   1.000  N
  N128     1.0000 0.75000  0.81410  0.75000  Biso   1.000  N
  N129     1.0000 0.31410  0.25000  0.75000  Biso   1.000  N
  N130     1.0000 0.81410  0.25000  0.25000  Biso   1.000  N
  N131     1.0000 0.68590  0.25000  0.25000  Biso   1.000  N
  N132     1.0000 0.18590  0.25000  0.75000  Biso   1.000  N
  N133     1.0000 0.68590  0.75000  0.75000  Biso   1.000  N
  N134     1.0000 0.18590  0.75000  0.25000  Biso   1.000  N
  N135     1.0000 0.31410  0.75000  0.25000  Biso   1.000  N
  N136     1.0000 0.81410  0.75000  0.75000  Biso   1.000  N
  N137     1.0000 0.25000  0.25000  0.68590  Biso   1.000  N
  N138     1.0000 0.25000  0.75000  0.18590  Biso   1.000  N
  N139     1.0000 0.25000  0.75000  0.31410  Biso   1.000  N
  N140     1.0000 0.25000  0.25000  0.81410  Biso   1.000  N
  N141     1.0000 0.75000  0.25000  0.31410  Biso   1.000  N
  N142     1.0000 0.75000  0.75000  0.81410  Biso   1.000  N
  N143     1.0000 0.75000  0.75000  0.68590  Biso   1.000  N
  N144     1.0000 0.75000  0.25000  0.18590  Biso   1.000  N
  O97      1.0000 0.50000  0.28198  0.21802  Biso   1.000  O
  O98      1.0000 0.00000  0.28198  0.71802  Biso   1.000  O
  O99      1.0000 0.50000  0.71802  0.21802  Biso   1.000  O
  O100     1.0000 0.00000  0.71802  0.71802  Biso   1.000  O
  O101     1.0000 0.50000  0.28198  0.78198  Biso   1.000  O
  O102     1.0000 0.00000  0.28198  0.28198  Biso   1.000  O
  O103     1.0000 0.50000  0.71802  0.78198  Biso   1.000  O
  O104     1.0000 0.00000  0.71802  0.28198  Biso   1.000  O
  O105     1.0000 0.21802  0.50000  0.28198  Biso   1.000  O
  O106     1.0000 0.21802  0.00000  0.78198  Biso   1.000  O
  O107     1.0000 0.21802  0.50000  0.71802  Biso   1.000  O
  O108     1.0000 0.21802  0.00000  0.21802  Biso   1.000  O
  O109     1.0000 0.78198  0.50000  0.28198  Biso   1.000  O
  O110     1.0000 0.78198  0.00000  0.78198  Biso   1.000  O
  O111     1.0000 0.78198  0.50000  0.71802  Biso   1.000  O
  O112     1.0000 0.78198  0.00000  0.21802  Biso   1.000  O
  O113     1.0000 0.28198  0.21802  0.50000  Biso   1.000  O
  O114     1.0000 0.28198  0.71802  0.00000  Biso   1.000  O
  O115     1.0000 0.71802  0.21802  0.50000  Biso   1.000  O
  O116     1.0000 0.71802  0.71802  0.00000  Biso   1.000  O
  O117     1.0000 0.28198  0.78198  0.50000  Biso   1.000  O
  O118     1.0000 0.28198  0.28198  0.00000  Biso   1.000  O
  O119     1.0000 0.71802  0.78198  0.50000  Biso   1.000  O
  O120     1.0000 0.71802  0.28198  0.00000  Biso   1.000  O
  O121     1.0000 0.28198  0.50000  0.78198  Biso   1.000  O
  O122     1.0000 0.28198  0.00000  0.28198  Biso   1.000  O
  O123     1.0000 0.71802  0.50000  0.78198  Biso   1.000  O
  O124     1.0000 0.71802  0.00000  0.28198  Biso   1.000  O
  O125     1.0000 0.28198  0.50000  0.21802  Biso   1.000  O
  O126     1.0000 0.28198  0.00000  0.71802  Biso   1.000  O
  O127     1.0000 0.71802  0.50000  0.21802  Biso   1.000  O
  O128     1.0000 0.71802  0.00000  0.71802  Biso   1.000  O
  O129     1.0000 0.50000  0.21802  0.71802  Biso   1.000  O
  O130     1.0000 0.00000  0.21802  0.21802  Biso   1.000  O
  O131     1.0000 0.50000  0.21802  0.28198  Biso   1.000  O
  O132     1.0000 0.00000  0.21802  0.78198  Biso   1.000  O
  O133     1.0000 0.50000  0.78198  0.71802  Biso   1.000  O
  O134     1.0000 0.00000  0.78198  0.21802  Biso   1.000  O
  O135     1.0000 0.50000  0.78198  0.28198  Biso   1.000  O
  O136     1.0000 0.00000  0.78198  0.78198  Biso   1.000  O
  O137     1.0000 0.21802  0.28198  0.50000  Biso   1.000  O
  O138     1.0000 0.21802  0.78198  0.00000  Biso   1.000  O
  O139     1.0000 0.21802  0.71802  0.50000  Biso   1.000  O
  O140     1.0000 0.21802  0.21802  0.00000  Biso   1.000  O
  O141     1.0000 0.78198  0.28198  0.50000  Biso   1.000  O
  O142     1.0000 0.78198  0.78198  0.00000  Biso   1.000  O
  O143     1.0000 0.78198  0.71802  0.50000  Biso   1.000  O
  O144     1.0000 0.78198  0.21802  0.00000  Biso   1.000  O
  Zn1      1.0000 0.25000  0.25000  0.25000  Biso   1.000  Zn
  Zn2      1.0000 0.75000  0.75000  0.25000  Biso   1.000  Zn
  Zn3      1.0000 0.75000  0.25000  0.75000  Biso   1.000  Zn
  Zn4      1.0000 0.25000  0.75000  0.75000  Biso   1.000  Zn
  Zn5      1.0000 0.25000  0.25000  0.75000  Biso   1.000  Zn
  Zn6      1.0000 0.75000  0.75000  0.75000  Biso   1.000  Zn
  Zn7      1.0000 0.75000  0.25000  0.25000  Biso   1.000  Zn
  Zn8      1.0000 0.25000  0.75000  0.25000  Biso   1.000  Zn
  Cu1      1.0000 0.31460  0.31460  0.18540  Biso   1.000  Cu
  C289     1.0000 0.35660  0.35660  0.14340  Biso   1.000  C
  H97      1.0000 0.37491  0.37491  0.12509  Biso   1.000  H
  Cu2      1.0000 0.68540  0.68540  0.18540  Biso   1.000  Cu
  C290     1.0000 0.64340  0.64340  0.14340  Biso   1.000  C
  H98      1.0000 0.62509  0.62509  0.12509  Biso   1.000  H
  Cu3      1.0000 0.18540  0.18540  0.18540  Biso   1.000  Cu
  C291     1.0000 0.14340  0.14340  0.14340  Biso   1.000  C
  H99      1.0000 0.12509  0.12509  0.12509  Biso   1.000  H
  Cu4      1.0000 0.68540  0.31460  0.81460  Biso   1.000  Cu
  C292     1.0000 0.64340  0.35660  0.85660  Biso   1.000  C
  H100     1.0000 0.62509  0.37491  0.87491  Biso   1.000  H
  Cu5      1.0000 0.18540  0.31460  0.31460  Biso   1.000  Cu
  C293     1.0000 0.14340  0.35660  0.35660  Biso   1.000  C
  H101     1.0000 0.12509  0.37491  0.37491  Biso   1.000  H
  Cu6      1.0000 0.31460  0.68540  0.81460  Biso   1.000  Cu
  C294     1.0000 0.35660  0.64340  0.85660  Biso   1.000  C
  H102     1.0000 0.37491  0.62509  0.87491  Biso   1.000  H
  Cu7      1.0000 0.31460  0.18540  0.31460  Biso   1.000  Cu
  C295     1.0000 0.35660  0.14340  0.35660  Biso   1.000  C
  H103     1.0000 0.37491  0.12509  0.37491  Biso   1.000  H
  Cu8      1.0000 0.18540  0.81460  0.81460  Biso   1.000  Cu
  C296     1.0000 0.14340  0.85660  0.85660  Biso   1.000  C
  H104     1.0000 0.12509  0.87491  0.87491  Biso   1.000  H
  Cu9      1.0000 0.18540  0.68540  0.68540  Biso   1.000  Cu
  C297     1.0000 0.14340  0.64340  0.64340  Biso   1.000  C
  H105     1.0000 0.12509  0.62509  0.62509  Biso   1.000  H
  Cu10     1.0000 0.81460  0.68540  0.31460  Biso   1.000  Cu
  C298     1.0000 0.85660  0.64340  0.35660  Biso   1.000  C
  H106     1.0000 0.87491  0.62509  0.37491  Biso   1.000  H
  Cu11     1.0000 0.81460  0.18540  0.81460  Biso   1.000  Cu
  C299     1.0000 0.85660  0.14340  0.85660  Biso   1.000  C
  H107     1.0000 0.87491  0.12509  0.87491  Biso   1.000  H
  Cu12     1.0000 0.81460  0.31460  0.68540  Biso   1.000  Cu
  C300     1.0000 0.85660  0.35660  0.64340  Biso   1.000  C
  H108     1.0000 0.87491  0.37491  0.62509  Biso   1.000  H
  Cu13     1.0000 0.81460  0.81460  0.18540  Biso   1.000  Cu
  C301     1.0000 0.85660  0.85660  0.14340  Biso   1.000  C
  H109     1.0000 0.87491  0.87491  0.12509  Biso   1.000  H
  Cu14     1.0000 0.68540  0.18540  0.68540  Biso   1.000  Cu
  C302     1.0000 0.64340  0.14340  0.64340  Biso   1.000  C
  H110     1.0000 0.62509  0.12509  0.62509  Biso   1.000  H
  Cu15     1.0000 0.31460  0.81460  0.68540  Biso   1.000  Cu
  C303     1.0000 0.35660  0.85660  0.64340  Biso   1.000  C
  H111     1.0000 0.37491  0.87491  0.62509  Biso   1.000  H
  Cu16     1.0000 0.68540  0.81460  0.31460  Biso   1.000  Cu
  C304     1.0000 0.64340  0.85660  0.35660  Biso   1.000  C
  H112     1.0000 0.62509  0.87491  0.37491  Biso   1.000  H
  Cu17     1.0000 0.31460  0.31460  0.81460  Biso   1.000  Cu
  C305     1.0000 0.35660  0.35660  0.85660  Biso   1.000  C
  H113     1.0000 0.37491  0.37491  0.87491  Biso   1.000  H
  Cu18     1.0000 0.68540  0.68540  0.81460  Biso   1.000  Cu
  C306     1.0000 0.64340  0.64340  0.85660  Biso   1.000  C
  H114     1.0000 0.62509  0.62509  0.87491  Biso   1.000  H
  Cu19     1.0000 0.68540  0.18540  0.31460  Biso   1.000  Cu
  C307     1.0000 0.64340  0.14340  0.35660  Biso   1.000  C
  H115     1.0000 0.62509  0.12509  0.37491  Biso   1.000  H
  Cu20     1.0000 0.18540  0.68540  0.31460  Biso   1.000  Cu
  C308     1.0000 0.14340  0.64340  0.35660  Biso   1.000  C
  H116     1.0000 0.12509  0.62509  0.37491  Biso   1.000  H
  Cu21     1.0000 0.31460  0.68540  0.18540  Biso   1.000  Cu
  C309     1.0000 0.35660  0.64340  0.14340  Biso   1.000  C
  H117     1.0000 0.37491  0.62509  0.12509  Biso   1.000  H
  Cu22     1.0000 0.68540  0.31460  0.18540  Biso   1.000  Cu
  C310     1.0000 0.64340  0.35660  0.14340  Biso   1.000  C
  H118     1.0000 0.62509  0.37491  0.12509  Biso   1.000  H
  Cu23     1.0000 0.18540  0.81460  0.18540  Biso   1.000  Cu
  C311     1.0000 0.14340  0.85660  0.14340  Biso   1.000  C
  H119     1.0000 0.12509  0.87491  0.12509  Biso   1.000  H
  Cu24     1.0000 0.31460  0.18540  0.68540  Biso   1.000  Cu
  C312     1.0000 0.35660  0.14340  0.64340  Biso   1.000  C
  H120     1.0000 0.37491  0.12509  0.62509  Biso   1.000  H
  Cu25     1.0000 0.18540  0.18540  0.81460  Biso   1.000  Cu
  C313     1.0000 0.14340  0.14340  0.85660  Biso   1.000  C
  H121     1.0000 0.12509  0.12509  0.87491  Biso   1.000  H
  Cu26     1.0000 0.68540  0.81460  0.68540  Biso   1.000  Cu
  C314     1.0000 0.64340  0.85660  0.64340  Biso   1.000  C
  H122     1.0000 0.62509  0.87491  0.62509  Biso   1.000  H
  Cu27     1.0000 0.18540  0.31460  0.68540  Biso   1.000  Cu
  C315     1.0000 0.14340  0.35660  0.64340  Biso   1.000  C
  H123     1.0000 0.12509  0.37491  0.62509  Biso   1.000  H
  Cu28     1.0000 0.31460  0.81460  0.31460  Biso   1.000  Cu
  C316     1.0000 0.35660  0.85660  0.35660  Biso   1.000  C
  H124     1.0000 0.37491  0.87491  0.37491  Biso   1.000  H
  Cu29     1.0000 0.81460  0.31460  0.31460  Biso   1.000  Cu
  C317     1.0000 0.85660  0.35660  0.35660  Biso   1.000  C
  H125     1.0000 0.87491  0.37491  0.37491  Biso   1.000  H
  Cu30     1.0000 0.81460  0.81460  0.81460  Biso   1.000  Cu
  C318     1.0000 0.85660  0.85660  0.85660  Biso   1.000  C
  H126     1.0000 0.87491  0.87491  0.87491  Biso   1.000  H
  Cu31     1.0000 0.81460  0.68540  0.68540  Biso   1.000  Cu
  C319     1.0000 0.85660  0.64340  0.64340  Biso   1.000  C
  H127     1.0000 0.87491  0.62509  0.62509  Biso   1.000  H
  Cu32     1.0000 0.81460  0.18540  0.18540  Biso   1.000  Cu
  C320     1.0000 0.85660  0.14340  0.14340  Biso   1.000  C
  H128     1.0000 0.87491  0.12509  0.12509  Biso   1.000  H
