data_image0
_cell_length_a       60.6741
_cell_length_b       60.6741
_cell_length_c       5.1277
_cell_angle_alpha    90
_cell_angle_beta     90
_cell_angle_gamma    120

_symmetry_space_group_name_H-M    "P 1"
_symmetry_int_tables_number       1

loop_
  _symmetry_equiv_pos_as_xyz
  'x, y, z'

loop_
  _atom_site_label
  _atom_site_occupancy
  _atom_site_fract_x
  _atom_site_fract_y
  _atom_site_fract_z
  _atom_site_thermal_displace_type
  _atom_site_B_iso_or_equiv
  _atom_site_type_symbol
  C1       1.0000 0.10610  0.58660  0.54200  Biso   1.000  C
  C2       1.0000 0.09030  0.57480  0.75100  Biso   1.000  C
  C3       1.0000 0.07610  0.58470  0.86100  Biso   1.000  C
  C4       1.0000 0.08340  0.60950  0.80700  Biso   1.000  C
  C5       1.0000 0.10260  0.62280  0.61500  Biso   1.000  C
  C6       1.0000 0.11480  0.61120  0.49200  Biso   1.000  C
  P1       1.0000 0.02345  0.54672  0.02830  Biso   1.000  P
  O1       1.0000 0.01780  0.52780  0.78800  Biso   1.000  O
  O2       1.0000 0.01160  0.52940  0.24800  Biso   1.000  O
  C7       1.0000 0.13390  0.62570  0.26100  Biso   1.000  C
  N1       1.0000 0.14950  0.61760  0.13100  Biso   1.000  N
  O3       1.0000 0.00930  0.56190  0.96900  Biso   1.000  O
  C8       1.0000 0.05870  0.57150  0.10000  Biso   1.000  C
  N2       1.0000 0.14350  0.64990  0.26000  Biso   1.000  N
  C9       1.0000 0.15540  0.66260  0.05400  Biso   1.000  C
  N3       1.0000 0.16860  0.65500  0.90300  Biso   1.000  N
  C10      1.0000 0.16380  0.63060  0.92800  Biso   1.000  C
  C11      1.0000 0.16130  0.68800  0.07200  Biso   1.000  C
  C12      1.0000 0.14790  0.69250  0.25500  Biso   1.000  C
  C13      1.0000 0.15190  0.71670  0.30700  Biso   1.000  C
  C14      1.0000 0.16680  0.73590  0.14800  Biso   1.000  C
  C15      1.0000 0.17770  0.73110  0.93200  Biso   1.000  C
  C16      1.0000 0.17670  0.70670  0.90500  Biso   1.000  C
  C17      1.0000 0.18030  0.61980  0.77500  Biso   1.000  C
  C18      1.0000 0.18720  0.62420  0.50800  Biso   1.000  C
  C19      1.0000 0.17980  0.59870  0.87400  Biso   1.000  C
  C20      1.0000 0.19710  0.59050  0.77200  Biso   1.000  C
  C21      1.0000 0.20530  0.59500  0.51800  Biso   1.000  C
  C22      1.0000 0.20410  0.61480  0.39000  Biso   1.000  C
  C23      1.0000 0.21270  0.57820  0.38600  Biso   1.000  C
  P2       1.0000 0.24285  0.58427  0.46100  Biso   1.000  P
  C24      1.0000 0.16820  0.76150  0.19300  Biso   1.000  C
  P3       1.0000 0.15332  0.76875  0.93700  Biso   1.000  P
  O4       1.0000 0.15630  0.75570  0.70600  Biso   1.000  O
  O5       1.0000 0.16520  0.79957  0.89100  Biso   1.000  O
  O6       1.0000 0.12290  0.75590  0.99600  Biso   1.000  O
  O7       1.0000 0.25360  0.58110  0.21700  Biso   1.000  O
  O8       1.0000 0.25860  0.60910  0.57500  Biso   1.000  O
  O9       1.0000 0.24370  0.56720  0.65600  Biso   1.000  O
  C25      1.0000 0.77277  0.91993  0.87533  Biso   1.000  C
  C26      1.0000 0.75697  0.90813  0.08433  Biso   1.000  C
  C27      1.0000 0.74277  0.91803  0.19433  Biso   1.000  C
  C28      1.0000 0.75007  0.94283  0.14033  Biso   1.000  C
  C29      1.0000 0.76927  0.95613  0.94833  Biso   1.000  C
  C30      1.0000 0.78147  0.94453  0.82533  Biso   1.000  C
  P4       1.0000 0.69012  0.88005  0.36163  Biso   1.000  P
  O10      1.0000 0.68447  0.86113  0.12133  Biso   1.000  O
  O11      1.0000 0.67827  0.86273  0.58133  Biso   1.000  O
  C31      1.0000 0.80057  0.95903  0.59433  Biso   1.000  C
  N4       1.0000 0.81617  0.95093  0.46433  Biso   1.000  N
  O12      1.0000 0.67597  0.89523  0.30233  Biso   1.000  O
  C32      1.0000 0.72537  0.90483  0.43333  Biso   1.000  C
  N5       1.0000 0.81017  0.98323  0.59333  Biso   1.000  N
  C33      1.0000 0.82207  0.99593  0.38733  Biso   1.000  C
  N6       1.0000 0.83527  0.98833  0.23633  Biso   1.000  N
  C34      1.0000 0.83047  0.96393  0.26133  Biso   1.000  C
  C35      1.0000 0.82797  0.02133  0.40533  Biso   1.000  C
  C36      1.0000 0.81457  0.02583  0.58833  Biso   1.000  C
  C37      1.0000 0.81857  0.05003  0.64033  Biso   1.000  C
  C38      1.0000 0.83347  0.06923  0.48133  Biso   1.000  C
  C39      1.0000 0.84437  0.06443  0.26533  Biso   1.000  C
  C40      1.0000 0.84337  0.04003  0.23833  Biso   1.000  C
  C41      1.0000 0.84697  0.95313  0.10833  Biso   1.000  C
  C42      1.0000 0.85387  0.95753  0.84133  Biso   1.000  C
  C43      1.0000 0.84647  0.93203  0.20733  Biso   1.000  C
  C44      1.0000 0.86377  0.92383  0.10533  Biso   1.000  C
  C45      1.0000 0.87197  0.92833  0.85133  Biso   1.000  C
  C46      1.0000 0.87077  0.94813  0.72333  Biso   1.000  C
  C47      1.0000 0.87937  0.91153  0.71933  Biso   1.000  C
  P5       1.0000 0.90952  0.91760  0.79433  Biso   1.000  P
  C48      1.0000 0.83487  0.09483  0.52633  Biso   1.000  C
  P6       1.0000 0.81999  0.10208  0.27033  Biso   1.000  P
  O13      1.0000 0.82297  0.08903  0.03933  Biso   1.000  O
  O14      1.0000 0.83187  0.13290  0.22433  Biso   1.000  O
  O15      1.0000 0.78957  0.08923  0.32933  Biso   1.000  O
  O16      1.0000 0.92027  0.91443  0.55033  Biso   1.000  O
  O17      1.0000 0.92527  0.94243  0.90833  Biso   1.000  O
  O18      1.0000 0.91037  0.90053  0.98933  Biso   1.000  O
  C49      1.0000 0.43943  0.25327  0.20867  Biso   1.000  C
  C50      1.0000 0.42363  0.24147  0.41767  Biso   1.000  C
  C51      1.0000 0.40943  0.25137  0.52767  Biso   1.000  C
  C52      1.0000 0.41673  0.27617  0.47367  Biso   1.000  C
  C53      1.0000 0.43593  0.28947  0.28167  Biso   1.000  C
  C54      1.0000 0.44813  0.27787  0.15867  Biso   1.000  C
  P7       1.0000 0.35678  0.21339  0.69497  Biso   1.000  P
  O19      1.0000 0.35113  0.19447  0.45467  Biso   1.000  O
  O20      1.0000 0.34493  0.19607  0.91467  Biso   1.000  O
  C55      1.0000 0.46723  0.29237  0.92767  Biso   1.000  C
  N7       1.0000 0.48283  0.28427  0.79767  Biso   1.000  N
  O21      1.0000 0.34263  0.22857  0.63567  Biso   1.000  O
  C56      1.0000 0.39203  0.23817  0.76667  Biso   1.000  C
  N8       1.0000 0.47683  0.31657  0.92667  Biso   1.000  N
  C57      1.0000 0.48873  0.32927  0.72067  Biso   1.000  C
  N9       1.0000 0.50193  0.32167  0.56967  Biso   1.000  N
  C58      1.0000 0.49713  0.29727  0.59467  Biso   1.000  C
  C59      1.0000 0.49463  0.35467  0.73867  Biso   1.000  C
  C60      1.0000 0.48123  0.35917  0.92167  Biso   1.000  C
  C61      1.0000 0.48523  0.38337  0.97367  Biso   1.000  C
  C62      1.0000 0.50013  0.40257  0.81467  Biso   1.000  C
  C63      1.0000 0.51103  0.39777  0.59867  Biso   1.000  C
  C64      1.0000 0.51003  0.37337  0.57167  Biso   1.000  C
  C65      1.0000 0.51363  0.28647  0.44167  Biso   1.000  C
  C66      1.0000 0.52053  0.29087  0.17467  Biso   1.000  C
  C67      1.0000 0.51313  0.26537  0.54067  Biso   1.000  C
  C68      1.0000 0.53043  0.25717  0.43867  Biso   1.000  C
  C69      1.0000 0.53863  0.26167  0.18467  Biso   1.000  C
  C70      1.0000 0.53743  0.28147  0.05667  Biso   1.000  C
  C71      1.0000 0.54603  0.24487  0.05267  Biso   1.000  C
  P8       1.0000 0.57618  0.25094  0.12767  Biso   1.000  P
  C72      1.0000 0.50153  0.42817  0.85967  Biso   1.000  C
  P9       1.0000 0.48665  0.43542  0.60367  Biso   1.000  P
  O22      1.0000 0.48963  0.42237  0.37267  Biso   1.000  O
  O23      1.0000 0.49853  0.46624  0.55767  Biso   1.000  O
  O24      1.0000 0.45623  0.42257  0.66267  Biso   1.000  O
  O25      1.0000 0.58693  0.24777  0.88367  Biso   1.000  O
  O26      1.0000 0.59193  0.27577  0.24167  Biso   1.000  O
  O27      1.0000 0.57703  0.23387  0.32267  Biso   1.000  O
  C73      1.0000 0.41340  0.51950  0.54200  Biso   1.000  C
  C74      1.0000 0.42520  0.51550  0.75100  Biso   1.000  C
  C75      1.0000 0.41530  0.49140  0.86100  Biso   1.000  C
  C76      1.0000 0.39050  0.47390  0.80700  Biso   1.000  C
  C77      1.0000 0.37720  0.47980  0.61500  Biso   1.000  C
  C78      1.0000 0.38880  0.50360  0.49200  Biso   1.000  C
  P10      1.0000 0.45328  0.47673  0.02830  Biso   1.000  P
  O28      1.0000 0.47220  0.49000  0.78800  Biso   1.000  O
  O29      1.0000 0.47060  0.48220  0.24800  Biso   1.000  O
  C79      1.0000 0.37430  0.50820  0.26100  Biso   1.000  C
  N10      1.0000 0.38240  0.53190  0.13100  Biso   1.000  N
  O30      1.0000 0.43810  0.44740  0.96900  Biso   1.000  O
  C80      1.0000 0.42850  0.48720  0.10000  Biso   1.000  C
  N11      1.0000 0.35010  0.49360  0.26000  Biso   1.000  N
  C81      1.0000 0.33740  0.49280  0.05400  Biso   1.000  C
  N12      1.0000 0.34500  0.51360  0.90300  Biso   1.000  N
  C82      1.0000 0.36940  0.53320  0.92800  Biso   1.000  C
  C83      1.0000 0.31200  0.47330  0.07200  Biso   1.000  C
  C84      1.0000 0.30750  0.45540  0.25500  Biso   1.000  C
  C85      1.0000 0.28330  0.43520  0.30700  Biso   1.000  C
  C86      1.0000 0.26410  0.43090  0.14800  Biso   1.000  C
  C87      1.0000 0.26890  0.44660  0.93200  Biso   1.000  C
  C88      1.0000 0.29330  0.47000  0.90500  Biso   1.000  C
  C89      1.0000 0.38020  0.56050  0.77500  Biso   1.000  C
  C90      1.0000 0.37580  0.56300  0.50800  Biso   1.000  C
  C91      1.0000 0.40130  0.58110  0.87400  Biso   1.000  C
  C92      1.0000 0.40950  0.60660  0.77200  Biso   1.000  C
  C93      1.0000 0.40500  0.61030  0.51800  Biso   1.000  C
  C94      1.0000 0.38520  0.58930  0.39000  Biso   1.000  C
  C95      1.0000 0.42180  0.63450  0.38600  Biso   1.000  C
  P11      1.0000 0.41573  0.65858  0.46100  Biso   1.000  P
  C96      1.0000 0.23850  0.40670  0.19300  Biso   1.000  C
  P12      1.0000 0.23125  0.38457  0.93700  Biso   1.000  P
  O31      1.0000 0.24430  0.40060  0.70600  Biso   1.000  O
  O32      1.0000 0.20043  0.36563  0.89100  Biso   1.000  O
  O33      1.0000 0.24410  0.36700  0.99600  Biso   1.000  O
  O34      1.0000 0.41890  0.67250  0.21700  Biso   1.000  O
  O35      1.0000 0.39090  0.64950  0.57500  Biso   1.000  O
  O36      1.0000 0.43280  0.67650  0.65600  Biso   1.000  O
  C97      1.0000 0.08007  0.85283  0.87533  Biso   1.000  C
  C98      1.0000 0.09187  0.84883  0.08433  Biso   1.000  C
  C99      1.0000 0.08197  0.82473  0.19433  Biso   1.000  C
  C100     1.0000 0.05717  0.80723  0.14033  Biso   1.000  C
  C101     1.0000 0.04387  0.81313  0.94833  Biso   1.000  C
  C102     1.0000 0.05547  0.83693  0.82533  Biso   1.000  C
  P13      1.0000 0.11995  0.81006  0.36163  Biso   1.000  P
  O37      1.0000 0.13887  0.82333  0.12133  Biso   1.000  O
  O38      1.0000 0.13727  0.81553  0.58133  Biso   1.000  O
  C103     1.0000 0.04097  0.84153  0.59433  Biso   1.000  C
  N13      1.0000 0.04907  0.86523  0.46433  Biso   1.000  N
  O39      1.0000 0.10477  0.78073  0.30233  Biso   1.000  O
  C104     1.0000 0.09517  0.82053  0.43333  Biso   1.000  C
  N14      1.0000 0.01677  0.82693  0.59333  Biso   1.000  N
  C105     1.0000 0.00407  0.82613  0.38733  Biso   1.000  C
  N15      1.0000 0.01167  0.84693  0.23633  Biso   1.000  N
  C106     1.0000 0.03607  0.86653  0.26133  Biso   1.000  C
  C107     1.0000 0.97867  0.80663  0.40533  Biso   1.000  C
  C108     1.0000 0.97417  0.78873  0.58833  Biso   1.000  C
  C109     1.0000 0.94997  0.76853  0.64033  Biso   1.000  C
  C110     1.0000 0.93077  0.76423  0.48133  Biso   1.000  C
  C111     1.0000 0.93557  0.77993  0.26533  Biso   1.000  C
  C112     1.0000 0.95997  0.80333  0.23833  Biso   1.000  C
  C113     1.0000 0.04687  0.89383  0.10833  Biso   1.000  C
  C114     1.0000 0.04247  0.89633  0.84133  Biso   1.000  C
  C115     1.0000 0.06797  0.91443  0.20733  Biso   1.000  C
  C116     1.0000 0.07617  0.93993  0.10533  Biso   1.000  C
  C117     1.0000 0.07167  0.94363  0.85133  Biso   1.000  C
  C118     1.0000 0.05187  0.92263  0.72333  Biso   1.000  C
  C119     1.0000 0.08847  0.96783  0.71933  Biso   1.000  C
  P14      1.0000 0.08240  0.99191  0.79433  Biso   1.000  P
  C120     1.0000 0.90517  0.74003  0.52633  Biso   1.000  C
  P15      1.0000 0.89792  0.71790  0.27033  Biso   1.000  P
  O40      1.0000 0.91097  0.73393  0.03933  Biso   1.000  O
  O41      1.0000 0.86710  0.69896  0.22433  Biso   1.000  O
  O42      1.0000 0.91077  0.70033  0.32933  Biso   1.000  O
  O43      1.0000 0.08557  0.00583  0.55033  Biso   1.000  O
  O44      1.0000 0.05757  0.98283  0.90833  Biso   1.000  O
  O45      1.0000 0.09947  0.00983  0.98933  Biso   1.000  O
  C121     1.0000 0.74673  0.18617  0.20867  Biso   1.000  C
  C122     1.0000 0.75853  0.18217  0.41767  Biso   1.000  C
  C123     1.0000 0.74863  0.15807  0.52767  Biso   1.000  C
  C124     1.0000 0.72383  0.14057  0.47367  Biso   1.000  C
  C125     1.0000 0.71053  0.14647  0.28167  Biso   1.000  C
  C126     1.0000 0.72213  0.17027  0.15867  Biso   1.000  C
  P16      1.0000 0.78661  0.14340  0.69497  Biso   1.000  P
  O46      1.0000 0.80553  0.15667  0.45467  Biso   1.000  O
  O47      1.0000 0.80393  0.14887  0.91467  Biso   1.000  O
  C127     1.0000 0.70763  0.17487  0.92767  Biso   1.000  C
  N16      1.0000 0.71573  0.19857  0.79767  Biso   1.000  N
  O48      1.0000 0.77143  0.11407  0.63567  Biso   1.000  O
  C128     1.0000 0.76183  0.15387  0.76667  Biso   1.000  C
  N17      1.0000 0.68343  0.16027  0.92667  Biso   1.000  N
  C129     1.0000 0.67073  0.15947  0.72067  Biso   1.000  C
  N18      1.0000 0.67833  0.18027  0.56967  Biso   1.000  N
  C130     1.0000 0.70273  0.19987  0.59467  Biso   1.000  C
  C131     1.0000 0.64533  0.13997  0.73867  Biso   1.000  C
  C132     1.0000 0.64083  0.12207  0.92167  Biso   1.000  C
  C133     1.0000 0.61663  0.10187  0.97367  Biso   1.000  C
  C134     1.0000 0.59743  0.09757  0.81467  Biso   1.000  C
  C135     1.0000 0.60223  0.11327  0.59867  Biso   1.000  C
  C136     1.0000 0.62663  0.13667  0.57167  Biso   1.000  C
  C137     1.0000 0.71353  0.22717  0.44167  Biso   1.000  C
  C138     1.0000 0.70913  0.22967  0.17467  Biso   1.000  C
  C139     1.0000 0.73463  0.24777  0.54067  Biso   1.000  C
  C140     1.0000 0.74283  0.27327  0.43867  Biso   1.000  C
  C141     1.0000 0.73833  0.27697  0.18467  Biso   1.000  C
  C142     1.0000 0.71853  0.25597  0.05667  Biso   1.000  C
  C143     1.0000 0.75513  0.30117  0.05267  Biso   1.000  C
  P17      1.0000 0.74906  0.32525  0.12767  Biso   1.000  P
  C144     1.0000 0.57183  0.07337  0.85967  Biso   1.000  C
  P18      1.0000 0.56458  0.05124  0.60367  Biso   1.000  P
  O49      1.0000 0.57763  0.06727  0.37267  Biso   1.000  O
  O50      1.0000 0.53376  0.03230  0.55767  Biso   1.000  O
  O51      1.0000 0.57743  0.03367  0.66267  Biso   1.000  O
  O52      1.0000 0.75223  0.33917  0.88367  Biso   1.000  O
  O53      1.0000 0.72423  0.31617  0.24167  Biso   1.000  O
  O54      1.0000 0.76613  0.34317  0.32267  Biso   1.000  O
  C145     1.0000 0.48050  0.89390  0.54200  Biso   1.000  C
  C146     1.0000 0.48450  0.90970  0.75100  Biso   1.000  C
  C147     1.0000 0.50860  0.92390  0.86100  Biso   1.000  C
  C148     1.0000 0.52610  0.91660  0.80700  Biso   1.000  C
  C149     1.0000 0.52020  0.89740  0.61500  Biso   1.000  C
  C150     1.0000 0.49640  0.88520  0.49200  Biso   1.000  C
  P19      1.0000 0.52327  0.97655  0.02830  Biso   1.000  P
  O55      1.0000 0.51000  0.98220  0.78800  Biso   1.000  O
  O56      1.0000 0.51780  0.98840  0.24800  Biso   1.000  O
  C151     1.0000 0.49180  0.86610  0.26100  Biso   1.000  C
  N19      1.0000 0.46810  0.85050  0.13100  Biso   1.000  N
  O57      1.0000 0.55260  0.99070  0.96900  Biso   1.000  O
  C152     1.0000 0.51280  0.94130  0.10000  Biso   1.000  C
  N20      1.0000 0.50640  0.85650  0.26000  Biso   1.000  N
  C153     1.0000 0.50720  0.84460  0.05400  Biso   1.000  C
  N21      1.0000 0.48640  0.83140  0.90300  Biso   1.000  N
  C154     1.0000 0.46680  0.83620  0.92800  Biso   1.000  C
  C155     1.0000 0.52670  0.83870  0.07200  Biso   1.000  C
  C156     1.0000 0.54460  0.85210  0.25500  Biso   1.000  C
  C157     1.0000 0.56480  0.84810  0.30700  Biso   1.000  C
  C158     1.0000 0.56910  0.83320  0.14800  Biso   1.000  C
  C159     1.0000 0.55340  0.82230  0.93200  Biso   1.000  C
  C160     1.0000 0.53000  0.82330  0.90500  Biso   1.000  C
  C161     1.0000 0.43950  0.81970  0.77500  Biso   1.000  C
  C162     1.0000 0.43700  0.81280  0.50800  Biso   1.000  C
  C163     1.0000 0.41890  0.82020  0.87400  Biso   1.000  C
  C164     1.0000 0.39340  0.80290  0.77200  Biso   1.000  C
  C165     1.0000 0.38970  0.79470  0.51800  Biso   1.000  C
  C166     1.0000 0.41070  0.79590  0.39000  Biso   1.000  C
  C167     1.0000 0.36550  0.78730  0.38600  Biso   1.000  C
  P20      1.0000 0.34142  0.75715  0.46100  Biso   1.000  P
  C168     1.0000 0.59330  0.83180  0.19300  Biso   1.000  C
  P21      1.0000 0.61543  0.84668  0.93700  Biso   1.000  P
  O58      1.0000 0.59940  0.84370  0.70600  Biso   1.000  O
  O59      1.0000 0.63437  0.83480  0.89100  Biso   1.000  O
  O60      1.0000 0.63300  0.87710  0.99600  Biso   1.000  O
  O61      1.0000 0.32750  0.74640  0.21700  Biso   1.000  O
  O62      1.0000 0.35050  0.74140  0.57500  Biso   1.000  O
  O63      1.0000 0.32350  0.75630  0.65600  Biso   1.000  O
  C169     1.0000 0.14717  0.22723  0.87533  Biso   1.000  C
  C170     1.0000 0.15117  0.24303  0.08433  Biso   1.000  C
  C171     1.0000 0.17527  0.25723  0.19433  Biso   1.000  C
  C172     1.0000 0.19277  0.24993  0.14033  Biso   1.000  C
  C173     1.0000 0.18687  0.23073  0.94833  Biso   1.000  C
  C174     1.0000 0.16307  0.21853  0.82533  Biso   1.000  C
  P22      1.0000 0.18994  0.30988  0.36163  Biso   1.000  P
  O64      1.0000 0.17667  0.31553  0.12133  Biso   1.000  O
  O65      1.0000 0.18447  0.32173  0.58133  Biso   1.000  O
  C175     1.0000 0.15847  0.19943  0.59433  Biso   1.000  C
  N22      1.0000 0.13477  0.18383  0.46433  Biso   1.000  N
  O66      1.0000 0.21927  0.32403  0.30233  Biso   1.000  O
  C176     1.0000 0.17947  0.27463  0.43333  Biso   1.000  C
  N23      1.0000 0.17307  0.18983  0.59333  Biso   1.000  N
  C177     1.0000 0.17387  0.17793  0.38733  Biso   1.000  C
  N24      1.0000 0.15307  0.16473  0.23633  Biso   1.000  N
  C178     1.0000 0.13347  0.16953  0.26133  Biso   1.000  C
  C179     1.0000 0.19337  0.17203  0.40533  Biso   1.000  C
  C180     1.0000 0.21127  0.18543  0.58833  Biso   1.000  C
  C181     1.0000 0.23147  0.18143  0.64033  Biso   1.000  C
  C182     1.0000 0.23577  0.16653  0.48133  Biso   1.000  C
  C183     1.0000 0.22007  0.15563  0.26533  Biso   1.000  C
  C184     1.0000 0.19667  0.15663  0.23833  Biso   1.000  C
  C185     1.0000 0.10617  0.15303  0.10833  Biso   1.000  C
  C186     1.0000 0.10367  0.14613  0.84133  Biso   1.000  C
  C187     1.0000 0.08557  0.15353  0.20733  Biso   1.000  C
  C188     1.0000 0.06007  0.13623  0.10533  Biso   1.000  C
  C189     1.0000 0.05637  0.12803  0.85133  Biso   1.000  C
  C190     1.0000 0.07737  0.12923  0.72333  Biso   1.000  C
  C191     1.0000 0.03217  0.12063  0.71933  Biso   1.000  C
  P23      1.0000 0.00809  0.09048  0.79433  Biso   1.000  P
  C192     1.0000 0.25997  0.16513  0.52633  Biso   1.000  C
  P24      1.0000 0.28210  0.18001  0.27033  Biso   1.000  P
  O67      1.0000 0.26607  0.17703  0.03933  Biso   1.000  O
  O68      1.0000 0.30104  0.16813  0.22433  Biso   1.000  O
  O69      1.0000 0.29967  0.21043  0.32933  Biso   1.000  O
  O70      1.0000 0.99417  0.07973  0.55033  Biso   1.000  O
  O71      1.0000 0.01717  0.07473  0.90833  Biso   1.000  O
  O72      1.0000 0.99017  0.08963  0.98933  Biso   1.000  O
  C193     1.0000 0.81383  0.56057  0.20867  Biso   1.000  C
  C194     1.0000 0.81783  0.57637  0.41767  Biso   1.000  C
  C195     1.0000 0.84193  0.59057  0.52767  Biso   1.000  C
  C196     1.0000 0.85943  0.58327  0.47367  Biso   1.000  C
  C197     1.0000 0.85353  0.56407  0.28167  Biso   1.000  C
  C198     1.0000 0.82973  0.55187  0.15867  Biso   1.000  C
  P25      1.0000 0.85660  0.64322  0.69497  Biso   1.000  P
  O73      1.0000 0.84333  0.64887  0.45467  Biso   1.000  O
  O74      1.0000 0.85113  0.65507  0.91467  Biso   1.000  O
  C199     1.0000 0.82513  0.53277  0.92767  Biso   1.000  C
  N25      1.0000 0.80143  0.51717  0.79767  Biso   1.000  N
  O75      1.0000 0.88593  0.65737  0.63567  Biso   1.000  O
  C200     1.0000 0.84613  0.60797  0.76667  Biso   1.000  C
  N26      1.0000 0.83973  0.52317  0.92667  Biso   1.000  N
  C201     1.0000 0.84053  0.51127  0.72067  Biso   1.000  C
  N27      1.0000 0.81973  0.49807  0.56967  Biso   1.000  N
  C202     1.0000 0.80013  0.50287  0.59467  Biso   1.000  C
  C203     1.0000 0.86003  0.50537  0.73867  Biso   1.000  C
  C204     1.0000 0.87793  0.51877  0.92167  Biso   1.000  C
  C205     1.0000 0.89813  0.51477  0.97367  Biso   1.000  C
  C206     1.0000 0.90243  0.49987  0.81467  Biso   1.000  C
  C207     1.0000 0.88673  0.48897  0.59867  Biso   1.000  C
  C208     1.0000 0.86333  0.48997  0.57167  Biso   1.000  C
  C209     1.0000 0.77283  0.48637  0.44167  Biso   1.000  C
  C210     1.0000 0.77033  0.47947  0.17467  Biso   1.000  C
  C211     1.0000 0.75223  0.48687  0.54067  Biso   1.000  C
  C212     1.0000 0.72673  0.46957  0.43867  Biso   1.000  C
  C213     1.0000 0.72303  0.46137  0.18467  Biso   1.000  C
  C214     1.0000 0.74403  0.46257  0.05667  Biso   1.000  C
  C215     1.0000 0.69883  0.45397  0.05267  Biso   1.000  C
  P26      1.0000 0.67475  0.42382  0.12767  Biso   1.000  P
  C216     1.0000 0.92663  0.49847  0.85967  Biso   1.000  C
  P27      1.0000 0.94876  0.51335  0.60367  Biso   1.000  P
  O76      1.0000 0.93273  0.51037  0.37267  Biso   1.000  O
  O77      1.0000 0.96770  0.50147  0.55767  Biso   1.000  O
  O78      1.0000 0.96633  0.54377  0.66267  Biso   1.000  O
  O79      1.0000 0.66083  0.41307  0.88367  Biso   1.000  O
  O80      1.0000 0.68383  0.40807  0.24167  Biso   1.000  O
  O81      1.0000 0.65683  0.42297  0.32267  Biso   1.000  O
  C217     1.0000 0.89390  0.41340  0.45800  Biso   1.000  C
  C218     1.0000 0.90970  0.42520  0.24900  Biso   1.000  C
  C219     1.0000 0.92390  0.41530  0.13900  Biso   1.000  C
  C220     1.0000 0.91660  0.39050  0.19300  Biso   1.000  C
  C221     1.0000 0.89740  0.37720  0.38500  Biso   1.000  C
  C222     1.0000 0.88520  0.38880  0.50800  Biso   1.000  C
  P28      1.0000 0.97655  0.45328  0.97170  Biso   1.000  P
  O82      1.0000 0.98220  0.47220  0.21200  Biso   1.000  O
  O83      1.0000 0.98840  0.47060  0.75200  Biso   1.000  O
  C223     1.0000 0.86610  0.37430  0.73900  Biso   1.000  C
  N28      1.0000 0.85050  0.38240  0.86900  Biso   1.000  N
  O84      1.0000 0.99070  0.43810  0.03100  Biso   1.000  O
  C224     1.0000 0.94130  0.42850  0.90000  Biso   1.000  C
  N29      1.0000 0.85650  0.35010  0.74000  Biso   1.000  N
  C225     1.0000 0.84460  0.33740  0.94600  Biso   1.000  C
  N30      1.0000 0.83140  0.34500  0.09700  Biso   1.000  N
  C226     1.0000 0.83620  0.36940  0.07200  Biso   1.000  C
  C227     1.0000 0.83870  0.31200  0.92800  Biso   1.000  C
  C228     1.0000 0.85210  0.30750  0.74500  Biso   1.000  C
  C229     1.0000 0.84810  0.28330  0.69300  Biso   1.000  C
  C230     1.0000 0.83320  0.26410  0.85200  Biso   1.000  C
  C231     1.0000 0.82230  0.26890  0.06800  Biso   1.000  C
  C232     1.0000 0.82330  0.29330  0.09500  Biso   1.000  C
  C233     1.0000 0.81970  0.38020  0.22500  Biso   1.000  C
  C234     1.0000 0.81280  0.37580  0.49200  Biso   1.000  C
  C235     1.0000 0.82020  0.40130  0.12600  Biso   1.000  C
  C236     1.0000 0.80290  0.40950  0.22800  Biso   1.000  C
  C237     1.0000 0.79470  0.40500  0.48200  Biso   1.000  C
  C238     1.0000 0.79590  0.38520  0.61000  Biso   1.000  C
  C239     1.0000 0.78730  0.42180  0.61400  Biso   1.000  C
  P29      1.0000 0.75715  0.41573  0.53900  Biso   1.000  P
  C240     1.0000 0.83180  0.23850  0.80700  Biso   1.000  C
  P30      1.0000 0.84668  0.23125  0.06300  Biso   1.000  P
  O85      1.0000 0.84370  0.24430  0.29400  Biso   1.000  O
  O86      1.0000 0.83480  0.20043  0.10900  Biso   1.000  O
  O87      1.0000 0.87710  0.24410  0.00400  Biso   1.000  O
  O88      1.0000 0.74640  0.41890  0.78300  Biso   1.000  O
  O89      1.0000 0.74140  0.39090  0.42500  Biso   1.000  O
  O90      1.0000 0.75630  0.43280  0.34400  Biso   1.000  O
  C241     1.0000 0.56057  0.74673  0.79133  Biso   1.000  C
  C242     1.0000 0.57637  0.75853  0.58233  Biso   1.000  C
  C243     1.0000 0.59057  0.74863  0.47233  Biso   1.000  C
  C244     1.0000 0.58327  0.72383  0.52633  Biso   1.000  C
  C245     1.0000 0.56407  0.71053  0.71833  Biso   1.000  C
  C246     1.0000 0.55187  0.72213  0.84133  Biso   1.000  C
  P31      1.0000 0.64322  0.78661  0.30503  Biso   1.000  P
  O91      1.0000 0.64887  0.80553  0.54533  Biso   1.000  O
  O92      1.0000 0.65507  0.80393  0.08533  Biso   1.000  O
  C247     1.0000 0.53277  0.70763  0.07233  Biso   1.000  C
  N31      1.0000 0.51717  0.71573  0.20233  Biso   1.000  N
  O93      1.0000 0.65737  0.77143  0.36433  Biso   1.000  O
  C248     1.0000 0.60797  0.76183  0.23333  Biso   1.000  C
  N32      1.0000 0.52317  0.68343  0.07333  Biso   1.000  N
  C249     1.0000 0.51127  0.67073  0.27933  Biso   1.000  C
  N33      1.0000 0.49807  0.67833  0.43033  Biso   1.000  N
  C250     1.0000 0.50287  0.70273  0.40533  Biso   1.000  C
  C251     1.0000 0.50537  0.64533  0.26133  Biso   1.000  C
  C252     1.0000 0.51877  0.64083  0.07833  Biso   1.000  C
  C253     1.0000 0.51477  0.61663  0.02633  Biso   1.000  C
  C254     1.0000 0.49987  0.59743  0.18533  Biso   1.000  C
  C255     1.0000 0.48897  0.60223  0.40133  Biso   1.000  C
  C256     1.0000 0.48997  0.62663  0.42833  Biso   1.000  C
  C257     1.0000 0.48637  0.71353  0.55833  Biso   1.000  C
  C258     1.0000 0.47947  0.70913  0.82533  Biso   1.000  C
  C259     1.0000 0.48687  0.73463  0.45933  Biso   1.000  C
  C260     1.0000 0.46957  0.74283  0.56133  Biso   1.000  C
  C261     1.0000 0.46137  0.73833  0.81533  Biso   1.000  C
  C262     1.0000 0.46257  0.71853  0.94333  Biso   1.000  C
  C263     1.0000 0.45397  0.75513  0.94733  Biso   1.000  C
  P32      1.0000 0.42382  0.74906  0.87233  Biso   1.000  P
  C264     1.0000 0.49847  0.57183  0.14033  Biso   1.000  C
  P33      1.0000 0.51335  0.56458  0.39633  Biso   1.000  P
  O94      1.0000 0.51037  0.57763  0.62733  Biso   1.000  O
  O95      1.0000 0.50147  0.53376  0.44233  Biso   1.000  O
  O96      1.0000 0.54377  0.57743  0.33733  Biso   1.000  O
  O97      1.0000 0.41307  0.75223  0.11633  Biso   1.000  O
  O98      1.0000 0.40807  0.72423  0.75833  Biso   1.000  O
  O99      1.0000 0.42297  0.76613  0.67733  Biso   1.000  O
  C265     1.0000 0.22723  0.08007  0.12467  Biso   1.000  C
  C266     1.0000 0.24303  0.09187  0.91567  Biso   1.000  C
  C267     1.0000 0.25723  0.08197  0.80567  Biso   1.000  C
  C268     1.0000 0.24993  0.05717  0.85967  Biso   1.000  C
  C269     1.0000 0.23073  0.04387  0.05167  Biso   1.000  C
  C270     1.0000 0.21853  0.05547  0.17467  Biso   1.000  C
  P34      1.0000 0.30988  0.11995  0.63837  Biso   1.000  P
  O100     1.0000 0.31553  0.13887  0.87867  Biso   1.000  O
  O101     1.0000 0.32173  0.13727  0.41867  Biso   1.000  O
  C271     1.0000 0.19943  0.04097  0.40567  Biso   1.000  C
  N34      1.0000 0.18383  0.04907  0.53567  Biso   1.000  N
  O102     1.0000 0.32403  0.10477  0.69767  Biso   1.000  O
  C272     1.0000 0.27463  0.09517  0.56667  Biso   1.000  C
  N35      1.0000 0.18983  0.01677  0.40667  Biso   1.000  N
  C273     1.0000 0.17793  0.00407  0.61267  Biso   1.000  C
  N36      1.0000 0.16473  0.01167  0.76367  Biso   1.000  N
  C274     1.0000 0.16953  0.03607  0.73867  Biso   1.000  C
  C275     1.0000 0.17203  0.97867  0.59467  Biso   1.000  C
  C276     1.0000 0.18543  0.97417  0.41167  Biso   1.000  C
  C277     1.0000 0.18143  0.94997  0.35967  Biso   1.000  C
  C278     1.0000 0.16653  0.93077  0.51867  Biso   1.000  C
  C279     1.0000 0.15563  0.93557  0.73467  Biso   1.000  C
  C280     1.0000 0.15663  0.95997  0.76167  Biso   1.000  C
  C281     1.0000 0.15303  0.04687  0.89167  Biso   1.000  C
  C282     1.0000 0.14613  0.04247  0.15867  Biso   1.000  C
  C283     1.0000 0.15353  0.06797  0.79267  Biso   1.000  C
  C284     1.0000 0.13623  0.07617  0.89467  Biso   1.000  C
  C285     1.0000 0.12803  0.07167  0.14867  Biso   1.000  C
  C286     1.0000 0.12923  0.05187  0.27667  Biso   1.000  C
  C287     1.0000 0.12063  0.08847  0.28067  Biso   1.000  C
  P35      1.0000 0.09048  0.08240  0.20567  Biso   1.000  P
  C288     1.0000 0.16513  0.90517  0.47367  Biso   1.000  C
  P36      1.0000 0.18001  0.89792  0.72967  Biso   1.000  P
  O103     1.0000 0.17703  0.91097  0.96067  Biso   1.000  O
  O104     1.0000 0.16813  0.86710  0.77567  Biso   1.000  O
  O105     1.0000 0.21043  0.91077  0.67067  Biso   1.000  O
  O106     1.0000 0.07973  0.08557  0.44967  Biso   1.000  O
  O107     1.0000 0.07473  0.05757  0.09167  Biso   1.000  O
  O108     1.0000 0.08963  0.09947  0.01067  Biso   1.000  O
  C289     1.0000 0.58660  0.48050  0.45800  Biso   1.000  C
  C290     1.0000 0.57480  0.48450  0.24900  Biso   1.000  C
  C291     1.0000 0.58470  0.50860  0.13900  Biso   1.000  C
  C292     1.0000 0.60950  0.52610  0.19300  Biso   1.000  C
  C293     1.0000 0.62280  0.52020  0.38500  Biso   1.000  C
  C294     1.0000 0.61120  0.49640  0.50800  Biso   1.000  C
  P37      1.0000 0.54672  0.52327  0.97170  Biso   1.000  P
  O109     1.0000 0.52780  0.51000  0.21200  Biso   1.000  O
  O110     1.0000 0.52940  0.51780  0.75200  Biso   1.000  O
  C295     1.0000 0.62570  0.49180  0.73900  Biso   1.000  C
  N37      1.0000 0.61760  0.46810  0.86900  Biso   1.000  N
  O111     1.0000 0.56190  0.55260  0.03100  Biso   1.000  O
  C296     1.0000 0.57150  0.51280  0.90000  Biso   1.000  C
  N38      1.0000 0.64990  0.50640  0.74000  Biso   1.000  N
  C297     1.0000 0.66260  0.50720  0.94600  Biso   1.000  C
  N39      1.0000 0.65500  0.48640  0.09700  Biso   1.000  N
  C298     1.0000 0.63060  0.46680  0.07200  Biso   1.000  C
  C299     1.0000 0.68800  0.52670  0.92800  Biso   1.000  C
  C300     1.0000 0.69250  0.54460  0.74500  Biso   1.000  C
  C301     1.0000 0.71670  0.56480  0.69300  Biso   1.000  C
  C302     1.0000 0.73590  0.56910  0.85200  Biso   1.000  C
  C303     1.0000 0.73110  0.55340  0.06800  Biso   1.000  C
  C304     1.0000 0.70670  0.53000  0.09500  Biso   1.000  C
  C305     1.0000 0.61980  0.43950  0.22500  Biso   1.000  C
  C306     1.0000 0.62420  0.43700  0.49200  Biso   1.000  C
  C307     1.0000 0.59870  0.41890  0.12600  Biso   1.000  C
  C308     1.0000 0.59050  0.39340  0.22800  Biso   1.000  C
  C309     1.0000 0.59500  0.38970  0.48200  Biso   1.000  C
  C310     1.0000 0.61480  0.41070  0.61000  Biso   1.000  C
  C311     1.0000 0.57820  0.36550  0.61400  Biso   1.000  C
  P38      1.0000 0.58427  0.34142  0.53900  Biso   1.000  P
  C312     1.0000 0.76150  0.59330  0.80700  Biso   1.000  C
  P39      1.0000 0.76875  0.61543  0.06300  Biso   1.000  P
  O112     1.0000 0.75570  0.59940  0.29400  Biso   1.000  O
  O113     1.0000 0.79957  0.63437  0.10900  Biso   1.000  O
  O114     1.0000 0.75590  0.63300  0.00400  Biso   1.000  O
  O115     1.0000 0.58110  0.32750  0.78300  Biso   1.000  O
  O116     1.0000 0.60910  0.35050  0.42500  Biso   1.000  O
  O117     1.0000 0.56720  0.32350  0.34400  Biso   1.000  O
  C313     1.0000 0.25327  0.81383  0.79133  Biso   1.000  C
  C314     1.0000 0.24147  0.81783  0.58233  Biso   1.000  C
  C315     1.0000 0.25137  0.84193  0.47233  Biso   1.000  C
  C316     1.0000 0.27617  0.85943  0.52633  Biso   1.000  C
  C317     1.0000 0.28947  0.85353  0.71833  Biso   1.000  C
  C318     1.0000 0.27787  0.82973  0.84133  Biso   1.000  C
  P40      1.0000 0.21339  0.85660  0.30503  Biso   1.000  P
  O118     1.0000 0.19447  0.84333  0.54533  Biso   1.000  O
  O119     1.0000 0.19607  0.85113  0.08533  Biso   1.000  O
  C319     1.0000 0.29237  0.82513  0.07233  Biso   1.000  C
  N40      1.0000 0.28427  0.80143  0.20233  Biso   1.000  N
  O120     1.0000 0.22857  0.88593  0.36433  Biso   1.000  O
  C320     1.0000 0.23817  0.84613  0.23333  Biso   1.000  C
  N41      1.0000 0.31657  0.83973  0.07333  Biso   1.000  N
  C321     1.0000 0.32927  0.84053  0.27933  Biso   1.000  C
  N42      1.0000 0.32167  0.81973  0.43033  Biso   1.000  N
  C322     1.0000 0.29727  0.80013  0.40533  Biso   1.000  C
  C323     1.0000 0.35467  0.86003  0.26133  Biso   1.000  C
  C324     1.0000 0.35917  0.87793  0.07833  Biso   1.000  C
  C325     1.0000 0.38337  0.89813  0.02633  Biso   1.000  C
  C326     1.0000 0.40257  0.90243  0.18533  Biso   1.000  C
  C327     1.0000 0.39777  0.88673  0.40133  Biso   1.000  C
  C328     1.0000 0.37337  0.86333  0.42833  Biso   1.000  C
  C329     1.0000 0.28647  0.77283  0.55833  Biso   1.000  C
  C330     1.0000 0.29087  0.77033  0.82533  Biso   1.000  C
  C331     1.0000 0.26537  0.75223  0.45933  Biso   1.000  C
  C332     1.0000 0.25717  0.72673  0.56133  Biso   1.000  C
  C333     1.0000 0.26167  0.72303  0.81533  Biso   1.000  C
  C334     1.0000 0.28147  0.74403  0.94333  Biso   1.000  C
  C335     1.0000 0.24487  0.69883  0.94733  Biso   1.000  C
  P41      1.0000 0.25094  0.67475  0.87233  Biso   1.000  P
  C336     1.0000 0.42817  0.92663  0.14033  Biso   1.000  C
  P42      1.0000 0.43542  0.94876  0.39633  Biso   1.000  P
  O121     1.0000 0.42237  0.93273  0.62733  Biso   1.000  O
  O122     1.0000 0.46624  0.96770  0.44233  Biso   1.000  O
  O123     1.0000 0.42257  0.96633  0.33733  Biso   1.000  O
  O124     1.0000 0.24777  0.66083  0.11633  Biso   1.000  O
  O125     1.0000 0.27577  0.68383  0.75833  Biso   1.000  O
  O126     1.0000 0.23387  0.65683  0.67733  Biso   1.000  O
  C337     1.0000 0.91993  0.14717  0.12467  Biso   1.000  C
  C338     1.0000 0.90813  0.15117  0.91567  Biso   1.000  C
  C339     1.0000 0.91803  0.17527  0.80567  Biso   1.000  C
  C340     1.0000 0.94283  0.19277  0.85967  Biso   1.000  C
  C341     1.0000 0.95613  0.18687  0.05167  Biso   1.000  C
  C342     1.0000 0.94453  0.16307  0.17467  Biso   1.000  C
  P43      1.0000 0.88005  0.18994  0.63837  Biso   1.000  P
  O127     1.0000 0.86113  0.17667  0.87867  Biso   1.000  O
  O128     1.0000 0.86273  0.18447  0.41867  Biso   1.000  O
  C343     1.0000 0.95903  0.15847  0.40567  Biso   1.000  C
  N43      1.0000 0.95093  0.13477  0.53567  Biso   1.000  N
  O129     1.0000 0.89523  0.21927  0.69767  Biso   1.000  O
  C344     1.0000 0.90483  0.17947  0.56667  Biso   1.000  C
  N44      1.0000 0.98323  0.17307  0.40667  Biso   1.000  N
  C345     1.0000 0.99593  0.17387  0.61267  Biso   1.000  C
  N45      1.0000 0.98833  0.15307  0.76367  Biso   1.000  N
  C346     1.0000 0.96393  0.13347  0.73867  Biso   1.000  C
  C347     1.0000 0.02133  0.19337  0.59467  Biso   1.000  C
  C348     1.0000 0.02583  0.21127  0.41167  Biso   1.000  C
  C349     1.0000 0.05003  0.23147  0.35967  Biso   1.000  C
  C350     1.0000 0.06923  0.23577  0.51867  Biso   1.000  C
  C351     1.0000 0.06443  0.22007  0.73467  Biso   1.000  C
  C352     1.0000 0.04003  0.19667  0.76167  Biso   1.000  C
  C353     1.0000 0.95313  0.10617  0.89167  Biso   1.000  C
  C354     1.0000 0.95753  0.10367  0.15867  Biso   1.000  C
  C355     1.0000 0.93203  0.08557  0.79267  Biso   1.000  C
  C356     1.0000 0.92383  0.06007  0.89467  Biso   1.000  C
  C357     1.0000 0.92833  0.05637  0.14867  Biso   1.000  C
  C358     1.0000 0.94813  0.07737  0.27667  Biso   1.000  C
  C359     1.0000 0.91153  0.03217  0.28067  Biso   1.000  C
  P44      1.0000 0.91760  0.00809  0.20567  Biso   1.000  P
  C360     1.0000 0.09483  0.25997  0.47367  Biso   1.000  C
  P45      1.0000 0.10208  0.28210  0.72967  Biso   1.000  P
  O130     1.0000 0.08903  0.26607  0.96067  Biso   1.000  O
  O131     1.0000 0.13290  0.30104  0.77567  Biso   1.000  O
  O132     1.0000 0.08923  0.29967  0.67067  Biso   1.000  O
  O133     1.0000 0.91443  0.99417  0.44967  Biso   1.000  O
  O134     1.0000 0.94243  0.01717  0.09167  Biso   1.000  O
  O135     1.0000 0.90053  0.99017  0.01067  Biso   1.000  O
  C361     1.0000 0.51950  0.10610  0.45800  Biso   1.000  C
  C362     1.0000 0.51550  0.09030  0.24900  Biso   1.000  C
  C363     1.0000 0.49140  0.07610  0.13900  Biso   1.000  C
  C364     1.0000 0.47390  0.08340  0.19300  Biso   1.000  C
  C365     1.0000 0.47980  0.10260  0.38500  Biso   1.000  C
  C366     1.0000 0.50360  0.11480  0.50800  Biso   1.000  C
  P46      1.0000 0.47673  0.02345  0.97170  Biso   1.000  P
  O136     1.0000 0.49000  0.01780  0.21200  Biso   1.000  O
  O137     1.0000 0.48220  0.01160  0.75200  Biso   1.000  O
  C367     1.0000 0.50820  0.13390  0.73900  Biso   1.000  C
  N46      1.0000 0.53190  0.14950  0.86900  Biso   1.000  N
  O138     1.0000 0.44740  0.00930  0.03100  Biso   1.000  O
  C368     1.0000 0.48720  0.05870  0.90000  Biso   1.000  C
  N47      1.0000 0.49360  0.14350  0.74000  Biso   1.000  N
  C369     1.0000 0.49280  0.15540  0.94600  Biso   1.000  C
  N48      1.0000 0.51360  0.16860  0.09700  Biso   1.000  N
  C370     1.0000 0.53320  0.16380  0.07200  Biso   1.000  C
  C371     1.0000 0.47330  0.16130  0.92800  Biso   1.000  C
  C372     1.0000 0.45540  0.14790  0.74500  Biso   1.000  C
  C373     1.0000 0.43520  0.15190  0.69300  Biso   1.000  C
  C374     1.0000 0.43090  0.16680  0.85200  Biso   1.000  C
  C375     1.0000 0.44660  0.17770  0.06800  Biso   1.000  C
  C376     1.0000 0.47000  0.17670  0.09500  Biso   1.000  C
  C377     1.0000 0.56050  0.18030  0.22500  Biso   1.000  C
  C378     1.0000 0.56300  0.18720  0.49200  Biso   1.000  C
  C379     1.0000 0.58110  0.17980  0.12600  Biso   1.000  C
  C380     1.0000 0.60660  0.19710  0.22800  Biso   1.000  C
  C381     1.0000 0.61030  0.20530  0.48200  Biso   1.000  C
  C382     1.0000 0.58930  0.20410  0.61000  Biso   1.000  C
  C383     1.0000 0.63450  0.21270  0.61400  Biso   1.000  C
  P47      1.0000 0.65858  0.24285  0.53900  Biso   1.000  P
  C384     1.0000 0.40670  0.16820  0.80700  Biso   1.000  C
  P48      1.0000 0.38457  0.15332  0.06300  Biso   1.000  P
  O139     1.0000 0.40060  0.15630  0.29400  Biso   1.000  O
  O140     1.0000 0.36563  0.16520  0.10900  Biso   1.000  O
  O141     1.0000 0.36700  0.12290  0.00400  Biso   1.000  O
  O142     1.0000 0.67250  0.25360  0.78300  Biso   1.000  O
  O143     1.0000 0.64950  0.25860  0.42500  Biso   1.000  O
  O144     1.0000 0.67650  0.24370  0.34400  Biso   1.000  O
  C385     1.0000 0.18617  0.43943  0.79133  Biso   1.000  C
  C386     1.0000 0.18217  0.42363  0.58233  Biso   1.000  C
  C387     1.0000 0.15807  0.40943  0.47233  Biso   1.000  C
  C388     1.0000 0.14057  0.41673  0.52633  Biso   1.000  C
  C389     1.0000 0.14647  0.43593  0.71833  Biso   1.000  C
  C390     1.0000 0.17027  0.44813  0.84133  Biso   1.000  C
  P49      1.0000 0.14340  0.35678  0.30503  Biso   1.000  P
  O145     1.0000 0.15667  0.35113  0.54533  Biso   1.000  O
  O146     1.0000 0.14887  0.34493  0.08533  Biso   1.000  O
  C391     1.0000 0.17487  0.46723  0.07233  Biso   1.000  C
  N49      1.0000 0.19857  0.48283  0.20233  Biso   1.000  N
  O147     1.0000 0.11407  0.34263  0.36433  Biso   1.000  O
  C392     1.0000 0.15387  0.39203  0.23333  Biso   1.000  C
  N50      1.0000 0.16027  0.47683  0.07333  Biso   1.000  N
  C393     1.0000 0.15947  0.48873  0.27933  Biso   1.000  C
  N51      1.0000 0.18027  0.50193  0.43033  Biso   1.000  N
  C394     1.0000 0.19987  0.49713  0.40533  Biso   1.000  C
  C395     1.0000 0.13997  0.49463  0.26133  Biso   1.000  C
  C396     1.0000 0.12207  0.48123  0.07833  Biso   1.000  C
  C397     1.0000 0.10187  0.48523  0.02633  Biso   1.000  C
  C398     1.0000 0.09757  0.50013  0.18533  Biso   1.000  C
  C399     1.0000 0.11327  0.51103  0.40133  Biso   1.000  C
  C400     1.0000 0.13667  0.51003  0.42833  Biso   1.000  C
  C401     1.0000 0.22717  0.51363  0.55833  Biso   1.000  C
  C402     1.0000 0.22967  0.52053  0.82533  Biso   1.000  C
  C403     1.0000 0.24777  0.51313  0.45933  Biso   1.000  C
  C404     1.0000 0.27327  0.53043  0.56133  Biso   1.000  C
  C405     1.0000 0.27697  0.53863  0.81533  Biso   1.000  C
  C406     1.0000 0.25597  0.53743  0.94333  Biso   1.000  C
  C407     1.0000 0.30117  0.54603  0.94733  Biso   1.000  C
  P50      1.0000 0.32525  0.57618  0.87233  Biso   1.000  P
  C408     1.0000 0.07337  0.50153  0.14033  Biso   1.000  C
  P51      1.0000 0.05124  0.48665  0.39633  Biso   1.000  P
  O148     1.0000 0.06727  0.48963  0.62733  Biso   1.000  O
  O149     1.0000 0.03230  0.49853  0.44233  Biso   1.000  O
  O150     1.0000 0.03367  0.45623  0.33733  Biso   1.000  O
  O151     1.0000 0.33917  0.58693  0.11633  Biso   1.000  O
  O152     1.0000 0.31617  0.59193  0.75833  Biso   1.000  O
  O153     1.0000 0.34317  0.57703  0.67733  Biso   1.000  O
  C409     1.0000 0.85283  0.77277  0.12467  Biso   1.000  C
  C410     1.0000 0.84883  0.75697  0.91567  Biso   1.000  C
  C411     1.0000 0.82473  0.74277  0.80567  Biso   1.000  C
  C412     1.0000 0.80723  0.75007  0.85967  Biso   1.000  C
  C413     1.0000 0.81313  0.76927  0.05167  Biso   1.000  C
  C414     1.0000 0.83693  0.78147  0.17467  Biso   1.000  C
  P52      1.0000 0.81006  0.69012  0.63837  Biso   1.000  P
  O154     1.0000 0.82333  0.68447  0.87867  Biso   1.000  O
  O155     1.0000 0.81553  0.67827  0.41867  Biso   1.000  O
  C415     1.0000 0.84153  0.80057  0.40567  Biso   1.000  C
  N52      1.0000 0.86523  0.81617  0.53567  Biso   1.000  N
  O156     1.0000 0.78073  0.67597  0.69767  Biso   1.000  O
  C416     1.0000 0.82053  0.72537  0.56667  Biso   1.000  C
  N53      1.0000 0.82693  0.81017  0.40667  Biso   1.000  N
  C417     1.0000 0.82613  0.82207  0.61267  Biso   1.000  C
  N54      1.0000 0.84693  0.83527  0.76367  Biso   1.000  N
  C418     1.0000 0.86653  0.83047  0.73867  Biso   1.000  C
  C419     1.0000 0.80663  0.82797  0.59467  Biso   1.000  C
  C420     1.0000 0.78873  0.81457  0.41167  Biso   1.000  C
  C421     1.0000 0.76853  0.81857  0.35967  Biso   1.000  C
  C422     1.0000 0.76423  0.83347  0.51867  Biso   1.000  C
  C423     1.0000 0.77993  0.84437  0.73467  Biso   1.000  C
  C424     1.0000 0.80333  0.84337  0.76167  Biso   1.000  C
  C425     1.0000 0.89383  0.84697  0.89167  Biso   1.000  C
  C426     1.0000 0.89633  0.85387  0.15867  Biso   1.000  C
  C427     1.0000 0.91443  0.84647  0.79267  Biso   1.000  C
  C428     1.0000 0.93993  0.86377  0.89467  Biso   1.000  C
  C429     1.0000 0.94363  0.87197  0.14867  Biso   1.000  C
  C430     1.0000 0.92263  0.87077  0.27667  Biso   1.000  C
  C431     1.0000 0.96783  0.87937  0.28067  Biso   1.000  C
  P53      1.0000 0.99191  0.90952  0.20567  Biso   1.000  P
  C432     1.0000 0.74003  0.83487  0.47367  Biso   1.000  C
  P54      1.0000 0.71790  0.81999  0.72967  Biso   1.000  P
  O157     1.0000 0.73393  0.82297  0.96067  Biso   1.000  O
  O158     1.0000 0.69896  0.83187  0.77567  Biso   1.000  O
  O159     1.0000 0.70033  0.78957  0.67067  Biso   1.000  O
  O160     1.0000 0.00583  0.92027  0.44967  Biso   1.000  O
  O161     1.0000 0.98283  0.92527  0.09167  Biso   1.000  O
  O162     1.0000 0.00983  0.91037  0.01067  Biso   1.000  O
  Zr1      1.0000 0.00000  0.50000  0.50000  Biso   1.000  Zr
  Zr2      1.0000 0.66667  0.83333  0.83333  Biso   1.000  Zr
  Zr3      1.0000 0.33333  0.16667  0.16667  Biso   1.000  Zr
  Zr4      1.0000 0.50000  0.50000  0.50000  Biso   1.000  Zr
  Zr5      1.0000 0.16667  0.83333  0.83333  Biso   1.000  Zr
  Zr6      1.0000 0.83333  0.16667  0.16667  Biso   1.000  Zr
  Zr7      1.0000 0.50000  0.00000  0.50000  Biso   1.000  Zr
  Zr8      1.0000 0.16667  0.33333  0.83333  Biso   1.000  Zr
  Zr9      1.0000 0.83333  0.66667  0.16667  Biso   1.000  Zr
