data_image0
_cell_length_a       16.62
_cell_length_b       30.526
_cell_length_c       28.362
_cell_angle_alpha    90
_cell_angle_beta     98.317
_cell_angle_gamma    90

_symmetry_space_group_name_H-M    "P 1"
_symmetry_int_tables_number       1

loop_
  _symmetry_equiv_pos_as_xyz
  'x, y, z'

loop_
  _atom_site_label
  _atom_site_occupancy
  _atom_site_fract_x
  _atom_site_fract_y
  _atom_site_fract_z
  _atom_site_thermal_displace_type
  _atom_site_B_iso_or_equiv
  _atom_site_type_symbol
  O1       1.0000 0.58700  0.93900  0.13710  Biso   1.000  O
  C1       1.0000 0.10370  0.93020  0.14100  Biso   1.000  C
  H1       1.0000 0.14020  0.95490  0.13790  Biso   1.000  H
  C2       1.0000 0.07170  0.95480  0.44930  Biso   1.000  C
  H2       1.0000 0.04390  0.96050  0.47680  Biso   1.000  H
  C3       1.0000 0.30050  0.84580  0.31400  Biso   1.000  C
  C4       1.0000 0.00650  0.94350  0.40830  Biso   1.000  C
  C5       1.0000 0.30590  0.40010  0.49530  Biso   1.000  C
  H3       1.0000 0.26010  0.39070  0.51110  Biso   1.000  H
  C6       1.0000 0.12270  0.99500  0.44310  Biso   1.000  C
  H4       1.0000 0.15550  0.98840  0.41790  Biso   1.000  H
  C7       1.0000 0.12860  0.85390  0.31060  Biso   1.000  C
  C8       1.0000 0.08170  0.03900  0.43100  Biso   1.000  C
  Fe1      1.0000 0.34500  0.36926  0.04982  Biso   1.000  Fe
  O2       1.0000 0.35610  0.43170  0.06970  Biso   1.000  O
  C9       1.0000 0.37100  0.44550  0.11180  Biso   1.000  C
  H5       1.0000 0.37850  0.42580  0.13710  Biso   1.000  H
  O3       1.0000 0.37600  0.48690  0.11980  Biso   1.000  O
  C10      1.0000 0.25190  0.87530  0.58080  Biso   1.000  C
  H6       1.0000 0.29350  0.89300  0.60010  Biso   1.000  H
  C11      1.0000 0.30910  0.44940  0.48960  Biso   1.000  C
  C12      1.0000 0.17200  0.89790  0.58500  Biso   1.000  C
  H7       1.0000 0.12910  0.88320  0.56330  Biso   1.000  H
  C13      1.0000 0.38600  0.37990  0.51760  Biso   1.000  C
  H8       1.0000 0.43160  0.38880  0.50140  Biso   1.000  H
  C14      1.0000 0.26840  0.82870  0.59770  Biso   1.000  C
  C15      1.0000 0.14870  0.89670  0.63470  Biso   1.000  C
  C16      1.0000 0.03370  0.02360  0.57920  Biso   1.000  C
  H9       1.0000 0.97810  0.02560  0.57990  Biso   1.000  H
  C17      1.0000 0.38070  0.98460  0.65090  Biso   1.000  C
  H10      1.0000 0.42280  0.97190  0.67160  Biso   1.000  H
  O4       1.0000 0.21180  0.08770  0.72090  Biso   1.000  O
  C18      1.0000 0.21000  0.06750  0.68110  Biso   1.000  C
  H11      1.0000 0.20860  0.08320  0.65290  Biso   1.000  H
  O5       1.0000 0.20870  0.02580  0.68050  Biso   1.000  O
  C19      1.0000 0.30440  0.11480  0.50600  Biso   1.000  C
  H12      1.0000 0.33740  0.11620  0.48010  Biso   1.000  H
  C20      1.0000 0.36120  0.12600  0.55100  Biso   1.000  C
  C21      1.0000 0.23730  0.14860  0.49400  Biso   1.000  C
  H13      1.0000 0.20350  0.13810  0.46500  Biso   1.000  H
  C22      1.0000 0.18240  0.14970  0.53250  Biso   1.000  C
  C23      1.0000 0.39950  0.39160  0.57040  Biso   1.000  C
  C24      1.0000 0.14890  0.42090  0.35220  Biso   1.000  C
  H14      1.0000 0.09870  0.43480  0.34900  Biso   1.000  H
  C25      1.0000 0.51710  0.40980  0.40590  Biso   1.000  C
  H15      1.0000 0.56860  0.41560  0.42230  Biso   1.000  H
  C26      1.0000 0.34540  0.30400  0.25540  Biso   1.000  C
  H16      1.0000 0.37010  0.27520  0.25220  Biso   1.000  H
  C27      1.0000 0.40460  0.33760  0.24080  Biso   1.000  C
  C28      1.0000 0.25030  0.29800  0.94520  Biso   1.000  C
  H17      1.0000 0.21380  0.31950  0.95670  Biso   1.000  H
  C29      1.0000 0.23500  0.29970  0.89130  Biso   1.000  C
  C30      1.0000 0.33620  0.31160  0.96440  Biso   1.000  C
  H18      1.0000 0.37300  0.28850  0.95640  Biso   1.000  H
  C31      1.0000 0.37100  0.35520  0.95210  Biso   1.000  C
  C32      1.0000 0.05600  0.19860  0.92410  Biso   1.000  C
  H19      1.0000 0.00260  0.20480  0.91140  Biso   1.000  H
  C33      1.0000 0.42300  0.19400  0.91440  Biso   1.000  C
  H20      1.0000 0.46980  0.20130  0.90200  Biso   1.000  H
  C34      1.0000 0.28020  0.07600  0.04470  Biso   1.000  C
  H21      1.0000 0.31460  0.07050  0.07530  Biso   1.000  H
  C35      1.0000 0.20110  0.05180  0.04460  Biso   1.000  C
  H22      1.0000 0.17000  0.06580  0.06730  Biso   1.000  H
  C36      1.0000 0.34000  0.93520  0.14580  Biso   1.000  C
  H23      1.0000 0.30860  0.93960  0.17210  Biso   1.000  H
  C37      1.0000 0.39060  0.97630  0.14310  Biso   1.000  C
  C38      1.0000 0.37810  0.88970  0.15280  Biso   1.000  C
  H24      1.0000 0.40820  0.88400  0.12610  Biso   1.000  H
  C39      1.0000 0.16820  0.79920  0.04520  Biso   1.000  C
  H25      1.0000 0.12640  0.81340  0.02230  Biso   1.000  H
  C40      1.0000 0.25210  0.80940  0.03320  Biso   1.000  C
  H26      1.0000 0.29420  0.79560  0.05620  Biso   1.000  H
  C41      1.0000 0.25700  0.79290  0.98290  Biso   1.000  C
  C42      1.0000 0.15600  0.75000  0.04430  Biso   1.000  C
  C43      1.0000 0.00100  0.79420  0.15700  Biso   1.000  C
  H27      1.0000 0.94630  0.78720  0.15100  Biso   1.000  H
  C44      1.0000 0.35100  0.75440  0.17060  Biso   1.000  C
  H28      1.0000 0.39100  0.73330  0.16920  Biso   1.000  H
  C45      1.0000 0.25470  0.88680  0.29510  Biso   1.000  C
  H29      1.0000 0.29130  0.91180  0.30220  Biso   1.000  H
  C46      1.0000 0.17930  0.89520  0.31860  Biso   1.000  C
  H30      1.0000 0.14870  0.91940  0.30190  Biso   1.000  H
  O6       1.0000 0.17700  0.71450  0.18660  Biso   1.000  O
  C47      1.0000 0.20600  0.70500  0.23090  Biso   1.000  C
  H31      1.0000 0.21170  0.72620  0.25480  Biso   1.000  H
  O7       1.0000 0.22700  0.66500  0.23940  Biso   1.000  O
  Fe2      1.0000 0.23010  0.21186  0.91267  Biso   1.000  Fe
  O8       1.0000 0.22720  0.17520  0.85290  Biso   1.000  O
  C48      1.0000 0.21400  0.13320  0.85610  Biso   1.000  C
  H32      1.0000 0.20210  0.12070  0.88410  Biso   1.000  H
  O9       1.0000 0.21900  0.11000  0.81900  Biso   1.000  O
  C49      1.0000 0.37700  0.47480  0.32000  Biso   1.000  C
  H33      1.0000 0.39110  0.44800  0.30810  Biso   1.000  H
  C50      1.0000 0.05870  0.92230  0.09110  Biso   1.000  C
  H34      1.0000 0.02850  0.89480  0.09210  Biso   1.000  H
  C51      1.0000 0.99780  0.95710  0.07090  Biso   1.000  C
  C52      1.0000 0.05620  0.94290  0.18070  Biso   1.000  C
  C53      1.0000 0.43710  0.88570  0.19860  Biso   1.000  C
  C54      1.0000 0.42200  0.90710  0.00300  Biso   1.000  C
  H35      1.0000 0.47530  0.89940  0.00140  Biso   1.000  H
  C55      1.0000 0.05740  0.89480  0.94960  Biso   1.000  C
  H36      1.0000 0.00970  0.88330  0.93300  Biso   1.000  H
  O10      1.0000 0.21980  0.90350  0.90460  Biso   1.000  O
  C56      1.0000 0.21800  0.94240  0.88880  Biso   1.000  C
  H37      1.0000 0.22860  0.96560  0.90990  Biso   1.000  H
  O11      1.0000 0.20010  0.94990  0.84400  Biso   1.000  O
  C57      1.0000 0.32370  0.05860  0.00510  Biso   1.000  C
  C58      1.0000 0.15150  0.05330  0.99500  Biso   1.000  C
  C59      1.0000 0.43610  0.20440  0.06300  Biso   1.000  C
  H38      1.0000 0.47140  0.23000  0.06170  Biso   1.000  H
  C60      1.0000 0.39550  0.20710  0.10720  Biso   1.000  C
  H39      1.0000 0.35830  0.18220  0.10790  Biso   1.000  H
  C61      1.0000 0.44730  0.21200  0.15570  Biso   1.000  C
  C62      1.0000 0.10500  0.17700  0.08650  Biso   1.000  C
  C63      1.0000 0.16240  0.21520  0.08390  Biso   1.000  C
  H40      1.0000 0.19930  0.21770  0.11400  Biso   1.000  H
  C64      1.0000 0.12580  0.25960  0.06990  Biso   1.000  C
  H41      1.0000 0.09650  0.25610  0.03760  Biso   1.000  H
  C65      1.0000 0.06360  0.27610  0.10010  Biso   1.000  C
  C66      1.0000 0.15300  0.39590  0.04180  Biso   1.000  C
  H42      1.0000 0.10910  0.41130  0.02560  Biso   1.000  H
  C67      1.0000 0.50800  0.33790  0.08970  Biso   1.000  C
  H43      1.0000 0.56210  0.33890  0.08550  Biso   1.000  H
  C68      1.0000 0.26720  0.30500  0.22000  Biso   1.000  C
  H44      1.0000 0.22850  0.28480  0.23150  Biso   1.000  H
  C69      1.0000 0.23140  0.35070  0.21950  Biso   1.000  C
  C70      1.0000 0.47270  0.27680  0.41630  Biso   1.000  C
  H45      1.0000 0.50510  0.27730  0.44800  Biso   1.000  H
  C71      1.0000 0.52880  0.27310  0.37880  Biso   1.000  C
  C72      1.0000 0.40550  0.24280  0.41540  Biso   1.000  C
  H46      1.0000 0.36820  0.24580  0.38550  Biso   1.000  H
  C73      1.0000 0.43720  0.19620  0.41960  Biso   1.000  C
  C74      1.0000 0.13620  0.27080  0.33750  Biso   1.000  C
  C75      1.0000 0.19060  0.27590  0.38470  Biso   1.000  C
  H47      1.0000 0.21550  0.24710  0.39220  Biso   1.000  H
  C76      1.0000 0.14920  0.28850  0.42730  Biso   1.000  C
  H48      1.0000 0.12750  0.31820  0.42210  Biso   1.000  H
  C77      1.0000 0.08060  0.25880  0.43770  Biso   1.000  C
  C78      1.0000 0.16580  0.31420  0.57210  Biso   1.000  C
  H49      1.0000 0.12630  0.33000  0.58490  Biso   1.000  H
  C79      1.0000 0.51600  0.26010  0.57840  Biso   1.000  C
  H50      1.0000 0.57100  0.26140  0.59050  Biso   1.000  H
  C80      1.0000 0.31900  0.24210  0.65260  Biso   1.000  C
  H51      1.0000 0.31630  0.22040  0.62950  Biso   1.000  H
  C81      1.0000 0.39650  0.97210  0.49610  Biso   1.000  C
  H52      1.0000 0.42390  0.94360  0.50030  Biso   1.000  H
  C82      1.0000 0.34400  0.97330  0.44760  Biso   1.000  C
  H53      1.0000 0.31290  0.00070  0.44460  Biso   1.000  H
  C83      1.0000 0.38540  0.96760  0.40370  Biso   1.000  C
  C84      1.0000 0.45960  0.00840  0.50530  Biso   1.000  C
  C85      1.0000 0.05690  0.81780  0.47610  Biso   1.000  C
  H54      1.0000 0.01180  0.80450  0.48600  Biso   1.000  H
  C86      1.0000 0.42130  0.83860  0.47980  Biso   1.000  C
  H55      1.0000 0.47610  0.83450  0.49110  Biso   1.000  H
  O12      1.0000 0.22760  0.76230  0.47000  Biso   1.000  O
  C87      1.0000 0.23000  0.74770  0.42780  Biso   1.000  C
  H56      1.0000 0.24330  0.76600  0.40400  Biso   1.000  H
  O13      1.0000 0.21200  0.70720  0.41910  Biso   1.000  O
  C88      1.0000 0.48570  0.16300  0.06020  Biso   1.000  C
  O14      1.0000 0.55890  0.16110  0.08600  Biso   1.000  O
  O15      1.0000 0.22490  0.85270  0.43950  Biso   1.000  O
  O16      1.0000 0.26690  0.88100  0.53220  Biso   1.000  O
  O17      1.0000 0.12530  0.92010  0.46210  Biso   1.000  O
  O18      1.0000 0.03160  0.91470  0.38200  Biso   1.000  O
  O19      1.0000 0.94280  0.96300  0.40060  Biso   1.000  O
  O20      1.0000 0.17680  0.99980  0.48580  Biso   1.000  O
  O21      1.0000 0.23410  0.02930  0.57850  Biso   1.000  O
  O22      1.0000 0.18020  0.94300  0.56760  Biso   1.000  O
  O23      1.0000 0.26220  0.79900  0.56430  Biso   1.000  O
  O24      1.0000 0.27730  0.81940  0.63950  Biso   1.000  O
  O25      1.0000 0.16740  0.93540  0.65740  Biso   1.000  O
  O26      1.0000 0.11960  0.86780  0.65240  Biso   1.000  O
  O27      1.0000 0.07460  0.00380  0.61250  Biso   1.000  O
  O28      1.0000 0.05950  0.04070  0.54580  Biso   1.000  O
  O29      1.0000 0.31660  0.96760  0.65000  Biso   1.000  O
  O30      1.0000 0.40150  0.01800  0.62750  Biso   1.000  O
  O31      1.0000 0.27710  0.07090  0.50710  Biso   1.000  O
  O32      1.0000 0.36780  0.09830  0.58630  Biso   1.000  O
  O33      1.0000 0.38870  0.16430  0.55820  Biso   1.000  O
  O34      1.0000 0.31260  0.25130  0.54400  Biso   1.000  O
  O35      1.0000 0.37180  0.33340  0.51510  Biso   1.000  O
  O36      1.0000 0.25650  0.30590  0.38220  Biso   1.000  O
  O37      1.0000 0.33310  0.37830  0.35260  Biso   1.000  O
  O38      1.0000 0.30170  0.38130  0.44540  Biso   1.000  O
  O39      1.0000 0.32160  0.46560  0.45030  Biso   1.000  O
  O40      1.0000 0.29420  0.47010  0.52380  Biso   1.000  O
  O41      1.0000 0.38650  0.36310  0.60160  Biso   1.000  O
  O42      1.0000 0.42720  0.42800  0.58340  Biso   1.000  O
  O43      1.0000 0.35730  0.47640  0.35890  Biso   1.000  O
  O44      1.0000 0.37800  0.50940  0.29450  Biso   1.000  O
  O45      1.0000 0.20970  0.44300  0.37250  Biso   1.000  O
  O46      1.0000 0.14960  0.38350  0.33660  Biso   1.000  O
  O47      1.0000 0.45360  0.42230  0.42540  Biso   1.000  O
  O48      1.0000 0.51230  0.39030  0.36600  Biso   1.000  O
  O49      1.0000 0.33640  0.30840  0.30230  Biso   1.000  O
  O50      1.0000 0.44140  0.36180  0.27530  Biso   1.000  O
  O51      1.0000 0.42350  0.33950  0.20230  Biso   1.000  O
  O52      1.0000 0.31840  0.34270  0.10730  Biso   1.000  O
  O53      1.0000 0.33520  0.31040  0.01680  Biso   1.000  O
  O54      1.0000 0.21000  0.20360  0.04450  Biso   1.000  O
  O55      1.0000 0.24670  0.16670  0.96070  Biso   1.000  O
  O56      1.0000 0.23460  0.25770  0.96490  Biso   1.000  O
  O57      1.0000 0.22330  0.26460  0.87180  Biso   1.000  O
  O58      1.0000 0.21630  0.33950  0.87170  Biso   1.000  O
  O59      1.0000 0.36930  0.38670  0.98590  Biso   1.000  O
  O60      1.0000 0.39630  0.36310  0.91200  Biso   1.000  O
  O61      1.0000 0.10750  0.20990  0.90210  Biso   1.000  O
  O62      1.0000 0.06870  0.17790  0.96510  Biso   1.000  O
  O63      1.0000 0.36180  0.21670  0.90860  Biso   1.000  O
  O64      1.0000 0.41600  0.15770  0.93990  Biso   1.000  O
  O65      1.0000 0.27330  0.12270  0.03790  Biso   1.000  O
  O66      1.0000 0.21150  0.00780  0.05610  Biso   1.000  O
  O67      1.0000 0.22810  0.94040  0.00100  Biso   1.000  O
  O68      1.0000 0.25600  0.85630  0.03760  Biso   1.000  O
  O69      1.0000 0.27940  0.93350  0.10100  Biso   1.000  O
  O70      1.0000 0.39270  0.99380  0.10150  Biso   1.000  O
  O71      1.0000 0.43990  0.98470  0.17830  Biso   1.000  O
  O72      1.0000 0.31140  0.85930  0.14940  Biso   1.000  O
  O73      1.0000 0.19880  0.81250  0.19160  Biso   1.000  O
  O74      1.0000 0.16610  0.81610  0.09250  Biso   1.000  O
  O75      1.0000 0.25230  0.82260  0.95140  Biso   1.000  O
  O76      1.0000 0.27500  0.75800  0.98120  Biso   1.000  O
  O77      1.0000 0.14820  0.73210  0.08500  Biso   1.000  O
  O78      1.0000 0.14100  0.73120  0.00600  Biso   1.000  O
  O79      1.0000 0.04800  0.76860  0.14550  Biso   1.000  O
  O80      1.0000 0.02080  0.83050  0.17670  Biso   1.000  O
  O81      1.0000 0.29490  0.75250  0.13950  Biso   1.000  O
  O82      1.0000 0.36430  0.77960  0.20370  Biso   1.000  O
  O83      1.0000 0.23590  0.88280  0.24170  Biso   1.000  O
  O84      1.0000 0.19800  0.90590  0.36380  Biso   1.000  O
  O85      1.0000 0.10140  0.83830  0.34900  Biso   1.000  O
  O86      1.0000 0.10370  0.83730  0.27080  Biso   1.000  O
  O87      1.0000 0.32230  0.84380  0.35830  Biso   1.000  O
  O88      1.0000 0.32000  0.81530  0.28300  Biso   1.000  O
  O89      1.0000 0.15440  0.89420  0.15150  Biso   1.000  O
  O90      1.0000 0.12030  0.91490  0.06160  Biso   1.000  O
  O91      1.0000 0.03110  0.98520  0.04350  Biso   1.000  O
  O92      1.0000 0.93310  0.96330  0.07950  Biso   1.000  O
  O93      1.0000 0.06090  0.91420  0.21550  Biso   1.000  O
  O94      1.0000 0.01210  0.97450  0.17860  Biso   1.000  O
  O95      1.0000 0.40720  0.86820  0.23120  Biso   1.000  O
  O96      1.0000 0.50760  0.89710  0.19820  Biso   1.000  O
  O97      1.0000 0.36640  0.89270  0.97510  Biso   1.000  O
  O98      1.0000 0.40320  0.93330  0.03480  Biso   1.000  O
  O99      1.0000 0.11730  0.87030  0.95710  Biso   1.000  O
  O100     1.0000 0.05640  0.93580  0.96330  Biso   1.000  O
  O101     1.0000 0.34010  0.01560  0.00170  Biso   1.000  O
  O102     1.0000 0.34800  0.08450  0.97470  Biso   1.000  O
  O103     1.0000 0.11930  0.02140  0.97340  Biso   1.000  O
  O104     1.0000 0.13010  0.09280  0.97440  Biso   1.000  O
  O105     1.0000 0.36890  0.20630  0.02300  Biso   1.000  O
  O106     1.0000 0.34460  0.25110  0.09890  Biso   1.000  O
  O107     1.0000 0.44680  0.24820  0.17820  Biso   1.000  O
  O108     1.0000 0.47250  0.17860  0.17080  Biso   1.000  O
  O109     1.0000 0.44920  0.13310  0.03670  Biso   1.000  O
  O110     1.0000 0.10330  0.14650  0.05780  Biso   1.000  O
  O111     1.0000 0.05100  0.17990  0.11550  Biso   1.000  O
  O112     1.0000 0.19000  0.28670  0.06600  Biso   1.000  O
  O113     1.0000 0.10950  0.30570  0.13290  Biso   1.000  O
  O114     1.0000 0.99310  0.26580  0.10070  Biso   1.000  O
  O115     1.0000 0.22360  0.38680  0.02090  Biso   1.000  O
  O116     1.0000 0.15280  0.38140  0.08490  Biso   1.000  O
  O117     1.0000 0.46430  0.36620  0.06400  Biso   1.000  O
  O118     1.0000 0.49420  0.30950  0.11880  Biso   1.000  O
  O119     1.0000 0.27560  0.29230  0.17140  Biso   1.000  O
  O120     1.0000 0.22310  0.36980  0.25890  Biso   1.000  O
  O121     1.0000 0.21400  0.37010  0.17830  Biso   1.000  O
  O122     1.0000 0.42410  0.31700  0.40930  Biso   1.000  O
  O123     1.0000 0.50710  0.29710  0.34140  Biso   1.000  O
  O124     1.0000 0.58540  0.24750  0.38430  Biso   1.000  O
  O125     1.0000 0.36370  0.25440  0.45380  Biso   1.000  O
  O126     1.0000 0.43310  0.17750  0.46260  Biso   1.000  O
  O127     1.0000 0.47190  0.17480  0.39040  Biso   1.000  O
  O128     1.0000 0.15240  0.29860  0.30550  Biso   1.000  O
  O129     1.0000 0.08930  0.24230  0.33000  Biso   1.000  O
  O130     1.0000 0.21230  0.28970  0.46470  Biso   1.000  O
  O131     1.0000 0.09920  0.22980  0.46960  Biso   1.000  O
  O132     1.0000 0.01030  0.26430  0.41810  Biso   1.000  O
  O133     1.0000 0.23020  0.33210  0.57290  Biso   1.000  O
  O134     1.0000 0.14380  0.27480  0.55550  Biso   1.000  O
  O135     1.0000 0.46650  0.28230  0.59660  Biso   1.000  O
  O136     1.0000 0.48910  0.23310  0.53930  Biso   1.000  O
  O137     1.0000 0.33530  0.28700  0.64420  Biso   1.000  O
  O138     1.0000 0.31000  0.23540  0.69600  Biso   1.000  O
  O139     1.0000 0.26270  0.18970  0.48380  Biso   1.000  O
  O140     1.0000 0.15360  0.11540  0.54890  Biso   1.000  O
  O141     1.0000 0.17010  0.18620  0.55280  Biso   1.000  O
  O142     1.0000 0.33750  0.97560  0.53000  Biso   1.000  O
  O143     1.0000 0.28980  0.93790  0.44940  Biso   1.000  O
  O144     1.0000 0.37880  0.93210  0.38330  Biso   1.000  O
  O145     1.0000 0.43050  0.99800  0.39240  Biso   1.000  O
  O146     1.0000 0.44520  0.03930  0.53530  Biso   1.000  O
  O147     1.0000 0.52390  0.00580  0.49010  Biso   1.000  O
  O148     1.0000 0.09820  0.07010  0.46190  Biso   1.000  O
  O149     1.0000 0.03950  0.04390  0.39160  Biso   1.000  O
  O150     1.0000 0.12350  0.81950  0.50730  Biso   1.000  O
  O151     1.0000 0.04830  0.83220  0.43480  Biso   1.000  O
  O152     1.0000 0.36930  0.81330  0.49850  Biso   1.000  O
  O153     1.0000 0.40500  0.86680  0.44910  Biso   1.000  O
  Fe3      1.0000 0.30520  0.88756  0.40825  Biso   1.000  Fe
  Fe4      1.0000 0.12550  0.87646  0.40925  Biso   1.000  Fe
  Fe5      1.0000 0.24710  0.82339  0.49655  Biso   1.000  Fe
  Fe6      1.0000 0.23060  0.94140  0.50667  Biso   1.000  Fe
  Fe7      1.0000 0.16650  0.05379  0.52355  Biso   1.000  Fe
  Fe8      1.0000 0.34030  0.03553  0.56258  Biso   1.000  Fe
  Fe9      1.0000 0.20020  0.98765  0.62212  Biso   1.000  Fe
  Fe10     1.0000 0.37580  0.21410  0.50945  Biso   1.000  Fe
  Fe11     1.0000 0.20470  0.24095  0.51218  Biso   1.000  Fe
  Fe12     1.0000 0.34750  0.30390  0.57702  Biso   1.000  Fe
  Fe13     1.0000 0.32130  0.31553  0.44682  Biso   1.000  Fe
  Fe14     1.0000 0.24120  0.34270  0.32361  Biso   1.000  Fe
  Fe15     1.0000 0.42310  0.34460  0.34386  Biso   1.000  Fe
  Fe16     1.0000 0.32930  0.42475  0.39645  Biso   1.000  Fe
  Fe17     1.0000 0.38520  0.29979  0.14496  Biso   1.000  Fe
  Fe18     1.0000 0.21320  0.33033  0.11949  Biso   1.000  Fe
  Fe19     1.0000 0.28230  0.25436  0.03406  Biso   1.000  Fe
  Fe20     1.0000 0.17210  0.15197  0.00512  Biso   1.000  Fe
  Fe21     1.0000 0.34730  0.14848  0.99350  Biso   1.000  Fe
  Fe22     1.0000 0.13060  0.96466  0.01586  Biso   1.000  Fe
  Fe23     1.0000 0.30930  0.96963  0.04804  Biso   1.000  Fe
  Fe24     1.0000 0.24260  0.88627  0.97288  Biso   1.000  Fe
  Fe25     1.0000 0.21490  0.87759  0.09773  Biso   1.000  Fe
  Fe26     1.0000 0.30230  0.83477  0.21348  Biso   1.000  Fe
  Fe27     1.0000 0.12820  0.85971  0.20735  Biso   1.000  Fe
  Fe28     1.0000 0.17350  0.76949  0.14415  Biso   1.000  Fe
  O154     1.0000 0.64200  0.09790  0.14220  Biso   1.000  O
  Ba1      1.0000 0.59448  0.01639  0.40921  Biso   1.000  Ba
  Ba2      1.0000 0.73968  0.22704  0.36523  Biso   1.000  Ba
  Ba3      1.0000 0.25360  0.17075  0.74716  Biso   1.000  Ba
  Ba4      1.0000 0.92230  0.11916  0.09367  Biso   1.000  Ba
  Ba5      1.0000 0.58890  0.02611  0.16230  Biso   1.000  Ba
  Ba6      1.0000 0.60750  0.86290  0.28810  Biso   1.000  Ba
  Ba7      1.0000 0.39770  0.52913  0.20810  Biso   1.000  Ba
  Ba8      1.0000 0.20270  0.02532  0.78976  Biso   1.000  Ba
  O155     1.0000 0.61900  0.95840  0.24090  Biso   1.000  O
  O156     1.0000 0.69800  0.19720  0.45460  Biso   1.000  O
  O157     1.0000 0.66700  0.87040  0.19300  Biso   1.000  O
  O158     1.0000 0.52700  0.04840  0.07930  Biso   1.000  O
  O159     1.0000 0.90320  0.15100  0.99750  Biso   1.000  O
  O160     1.0000 0.49040  0.79480  0.30520  Biso   1.000  O
  Ba9      1.0000 0.14180  0.66266  0.49288  Biso   1.000  Ba
  O161     1.0000 0.12920  0.73120  0.55560  Biso   1.000  O
  O162     1.0000 0.77800  0.83200  0.27990  Biso   1.000  O
  O163     1.0000 0.25000  0.25880  0.78210  Biso   1.000  O
  O164     1.0000 0.28600  0.94580  0.75640  Biso   1.000  O
  Ba10     1.0000 0.11100  0.87420  0.80230  Biso   1.000  Ba
  O165     1.0000 0.13790  0.79840  0.76090  Biso   1.000  O
  O166     1.0000 0.96790  0.80970  0.78220  Biso   1.000  O
  O167     1.0000 0.14330  0.80020  0.87460  Biso   1.000  O
  O168     1.0000 0.27700  0.62930  0.45280  Biso   1.000  O
  O169     1.0000 0.70690  0.07860  0.66120  Biso   1.000  O
  O170     1.0000 0.66600  0.23280  0.10660  Biso   1.000  O
  Ba11     1.0000 0.77180  0.91450  0.26737  Biso   1.000  Ba
  Ba12     1.0000 0.60890  0.79857  0.24570  Biso   1.000  Ba
  Ba13     1.0000 0.93010  0.03300  0.31440  Biso   1.000  Ba
  Ba14     1.0000 0.79070  0.37210  0.19400  Biso   1.000  Ba
  O171     1.0000 0.83000  0.07880  0.95710  Biso   1.000  O
  O172     1.0000 0.80500  0.09390  0.99400  Biso   1.000  O
  O173     1.0000 0.59600  0.11470  0.17530  Biso   1.000  O
  Ba15     1.0000 0.79030  0.23070  0.17770  Biso   1.000  Ba
  Ba16     1.0000 0.77930  0.24500  0.13180  Biso   1.000  Ba
  Ba17     1.0000 0.83110  0.39020  0.24190  Biso   1.000  Ba
  Ba18     1.0000 0.68710  0.00890  0.11130  Biso   1.000  Ba
  Ba19     1.0000 0.94370  0.22890  0.17860  Biso   1.000  Ba
  Ba20     1.0000 0.87330  0.20390  0.08440  Biso   1.000  Ba
  Ba21     1.0000 0.33250  0.47750  0.97830  Biso   1.000  Ba
  Ba22     1.0000 0.89850  0.95160  0.24090  Biso   1.000  Ba
  Ba23     1.0000 0.01310  0.09540  0.29850  Biso   1.000  Ba
  Ba24     1.0000 0.31090  0.53600  0.04630  Biso   1.000  Ba
  Ba25     1.0000 0.21800  0.66040  0.34000  Biso   1.000  Ba
  Ba26     1.0000 0.63450  0.05320  0.56610  Biso   1.000  Ba
  O174     1.0000 0.31510  0.63110  0.39640  Biso   1.000  O
  O175     1.0000 0.41300  0.43900  0.86290  Biso   1.000  O
  C89      1.0000 0.89630  0.43020  0.85900  Biso   1.000  C
  H57      1.0000 0.85980  0.45490  0.86210  Biso   1.000  H
  C90      1.0000 0.92830  0.45480  0.55070  Biso   1.000  C
  H58      1.0000 0.95610  0.46050  0.52320  Biso   1.000  H
  C91      1.0000 0.69950  0.34580  0.68600  Biso   1.000  C
  C92      1.0000 0.99350  0.44350  0.59170  Biso   1.000  C
  C93      1.0000 0.69410  0.90010  0.50470  Biso   1.000  C
  H59      1.0000 0.73990  0.89070  0.48890  Biso   1.000  H
  C94      1.0000 0.87730  0.49500  0.55690  Biso   1.000  C
  H60      1.0000 0.84450  0.48840  0.58210  Biso   1.000  H
  C95      1.0000 0.87140  0.35390  0.68940  Biso   1.000  C
  C96      1.0000 0.91830  0.53900  0.56900  Biso   1.000  C
  Fe29     1.0000 0.65500  0.86926  0.95018  Biso   1.000  Fe
  O176     1.0000 0.64390  0.93170  0.93030  Biso   1.000  O
  C97      1.0000 0.62900  0.94550  0.88820  Biso   1.000  C
  H61      1.0000 0.62150  0.92580  0.86290  Biso   1.000  H
  O177     1.0000 0.62400  0.98690  0.88020  Biso   1.000  O
  C98      1.0000 0.74810  0.37530  0.41920  Biso   1.000  C
  H62      1.0000 0.70650  0.39300  0.39990  Biso   1.000  H
  C99      1.0000 0.69090  0.94940  0.51040  Biso   1.000  C
  C100     1.0000 0.82800  0.39790  0.41500  Biso   1.000  C
  H63      1.0000 0.87090  0.38320  0.43670  Biso   1.000  H
  C101     1.0000 0.61400  0.87990  0.48240  Biso   1.000  C
  H64      1.0000 0.56840  0.88880  0.49860  Biso   1.000  H
  C102     1.0000 0.73160  0.32870  0.40230  Biso   1.000  C
  C103     1.0000 0.85130  0.39670  0.36530  Biso   1.000  C
  C104     1.0000 0.96630  0.52360  0.42080  Biso   1.000  C
  H65      1.0000 0.02190  0.52560  0.42010  Biso   1.000  H
  C105     1.0000 0.61930  0.48460  0.34910  Biso   1.000  C
  H66      1.0000 0.57720  0.47190  0.32840  Biso   1.000  H
  O178     1.0000 0.78820  0.58770  0.27910  Biso   1.000  O
  C106     1.0000 0.79000  0.56750  0.31890  Biso   1.000  C
  H67      1.0000 0.79140  0.58320  0.34710  Biso   1.000  H
  O179     1.0000 0.79130  0.52580  0.31950  Biso   1.000  O
  C107     1.0000 0.69560  0.61480  0.49400  Biso   1.000  C
  H68      1.0000 0.66260  0.61620  0.51990  Biso   1.000  H
  C108     1.0000 0.63880  0.62600  0.44900  Biso   1.000  C
  C109     1.0000 0.76270  0.64860  0.50600  Biso   1.000  C
  H69      1.0000 0.79650  0.63810  0.53500  Biso   1.000  H
  C110     1.0000 0.81760  0.64970  0.46750  Biso   1.000  C
  C111     1.0000 0.60050  0.89160  0.42960  Biso   1.000  C
  C112     1.0000 0.85110  0.92090  0.64780  Biso   1.000  C
  H70      1.0000 0.90130  0.93480  0.65100  Biso   1.000  H
  C113     1.0000 0.48290  0.90980  0.59410  Biso   1.000  C
  H71      1.0000 0.43140  0.91560  0.57770  Biso   1.000  H
  C114     1.0000 0.65460  0.80400  0.74460  Biso   1.000  C
  H72      1.0000 0.62990  0.77520  0.74780  Biso   1.000  H
  C115     1.0000 0.59540  0.83760  0.75920  Biso   1.000  C
  C116     1.0000 0.74970  0.79800  0.05480  Biso   1.000  C
  H73      1.0000 0.78620  0.81950  0.04330  Biso   1.000  H
  C117     1.0000 0.76500  0.79970  0.10870  Biso   1.000  C
  C118     1.0000 0.66380  0.81160  0.03560  Biso   1.000  C
  H74      1.0000 0.62700  0.78850  0.04360  Biso   1.000  H
  C119     1.0000 0.62900  0.85520  0.04790  Biso   1.000  C
  C120     1.0000 0.94400  0.69860  0.07590  Biso   1.000  C
  H75      1.0000 0.99740  0.70480  0.08860  Biso   1.000  H
  C121     1.0000 0.57700  0.69400  0.08560  Biso   1.000  C
  H76      1.0000 0.53020  0.70130  0.09800  Biso   1.000  H
  C122     1.0000 0.71980  0.57600  0.95530  Biso   1.000  C
  H77      1.0000 0.68540  0.57050  0.92470  Biso   1.000  H
  C123     1.0000 0.79890  0.55180  0.95540  Biso   1.000  C
  H78      1.0000 0.83000  0.56580  0.93270  Biso   1.000  H
  C124     1.0000 0.66000  0.43520  0.85420  Biso   1.000  C
  H79      1.0000 0.69140  0.43960  0.82790  Biso   1.000  H
  C125     1.0000 0.60940  0.47630  0.85690  Biso   1.000  C
  C126     1.0000 0.62190  0.38970  0.84720  Biso   1.000  C
  H80      1.0000 0.59180  0.38400  0.87390  Biso   1.000  H
  C127     1.0000 0.83180  0.29920  0.95480  Biso   1.000  C
  H81      1.0000 0.87360  0.31340  0.97770  Biso   1.000  H
  C128     1.0000 0.74790  0.30940  0.96680  Biso   1.000  C
  H82      1.0000 0.70580  0.29560  0.94380  Biso   1.000  H
  C129     1.0000 0.74300  0.29290  0.01710  Biso   1.000  C
  C130     1.0000 0.84400  0.25000  0.95570  Biso   1.000  C
  C131     1.0000 0.99900  0.29420  0.84300  Biso   1.000  C
  H83      1.0000 0.05370  0.28720  0.84900  Biso   1.000  H
  C132     1.0000 0.64900  0.25440  0.82940  Biso   1.000  C
  H84      1.0000 0.60900  0.23330  0.83080  Biso   1.000  H
  C133     1.0000 0.74530  0.38680  0.70490  Biso   1.000  C
  H85      1.0000 0.70870  0.41180  0.69780  Biso   1.000  H
  C134     1.0000 0.82070  0.39520  0.68140  Biso   1.000  C
  H86      1.0000 0.85130  0.41940  0.69810  Biso   1.000  H
  O180     1.0000 0.82300  0.21450  0.81340  Biso   1.000  O
  C135     1.0000 0.79400  0.20500  0.76910  Biso   1.000  C
  H87      1.0000 0.78830  0.22620  0.74520  Biso   1.000  H
  O181     1.0000 0.77300  0.16500  0.76060  Biso   1.000  O
  Fe30     1.0000 0.76990  0.71186  0.08733  Biso   1.000  Fe
  O182     1.0000 0.77280  0.67520  0.14710  Biso   1.000  O
  C136     1.0000 0.78600  0.63320  0.14390  Biso   1.000  C
  H88      1.0000 0.79790  0.62070  0.11590  Biso   1.000  H
  O183     1.0000 0.78100  0.61000  0.18100  Biso   1.000  O
  C137     1.0000 0.62300  0.97480  0.68000  Biso   1.000  C
  H89      1.0000 0.60890  0.94800  0.69190  Biso   1.000  H
  C138     1.0000 0.94130  0.42230  0.90890  Biso   1.000  C
  H90      1.0000 0.97150  0.39480  0.90790  Biso   1.000  H
  C139     1.0000 0.00220  0.45710  0.92910  Biso   1.000  C
  C140     1.0000 0.94380  0.44290  0.81930  Biso   1.000  C
  C141     1.0000 0.56290  0.38570  0.80140  Biso   1.000  C
  C142     1.0000 0.57800  0.40710  0.99700  Biso   1.000  C
  H91      1.0000 0.52470  0.39940  0.99860  Biso   1.000  H
  C143     1.0000 0.94260  0.39480  0.05040  Biso   1.000  C
  H92      1.0000 0.99030  0.38330  0.06700  Biso   1.000  H
  O184     1.0000 0.78020  0.40350  0.09540  Biso   1.000  O
  C144     1.0000 0.78200  0.44240  0.11120  Biso   1.000  C
  H93      1.0000 0.77140  0.46560  0.09010  Biso   1.000  H
  O185     1.0000 0.79990  0.44990  0.15600  Biso   1.000  O
  C145     1.0000 0.67630  0.55860  0.99490  Biso   1.000  C
  C146     1.0000 0.84850  0.55330  0.00500  Biso   1.000  C
  C147     1.0000 0.56390  0.70440  0.93700  Biso   1.000  C
  H94      1.0000 0.52860  0.73000  0.93830  Biso   1.000  H
  C148     1.0000 0.60450  0.70710  0.89280  Biso   1.000  C
  H95      1.0000 0.64170  0.68220  0.89210  Biso   1.000  H
  C149     1.0000 0.55270  0.71200  0.84430  Biso   1.000  C
  C150     1.0000 0.89500  0.67700  0.91350  Biso   1.000  C
  C151     1.0000 0.83760  0.71520  0.91610  Biso   1.000  C
  H96      1.0000 0.80070  0.71770  0.88600  Biso   1.000  H
  C152     1.0000 0.87420  0.75960  0.93010  Biso   1.000  C
  H97      1.0000 0.90350  0.75610  0.96240  Biso   1.000  H
  C153     1.0000 0.93640  0.77610  0.89990  Biso   1.000  C
  C154     1.0000 0.84700  0.89590  0.95820  Biso   1.000  C
  H98      1.0000 0.89090  0.91130  0.97440  Biso   1.000  H
  C155     1.0000 0.49200  0.83790  0.91030  Biso   1.000  C
  H99      1.0000 0.43790  0.83890  0.91450  Biso   1.000  H
  C156     1.0000 0.73280  0.80500  0.78000  Biso   1.000  C
  H100     1.0000 0.77150  0.78480  0.76850  Biso   1.000  H
  C157     1.0000 0.76860  0.85070  0.78050  Biso   1.000  C
  C158     1.0000 0.52730  0.77680  0.58370  Biso   1.000  C
  H101     1.0000 0.49490  0.77730  0.55200  Biso   1.000  H
  C159     1.0000 0.47120  0.77310  0.62120  Biso   1.000  C
  C160     1.0000 0.59450  0.74280  0.58460  Biso   1.000  C
  H102     1.0000 0.63180  0.74580  0.61450  Biso   1.000  H
  C161     1.0000 0.56280  0.69620  0.58040  Biso   1.000  C
  C162     1.0000 0.86380  0.77080  0.66250  Biso   1.000  C
  C163     1.0000 0.80940  0.77590  0.61530  Biso   1.000  C
  H103     1.0000 0.78450  0.74710  0.60780  Biso   1.000  H
  C164     1.0000 0.85080  0.78850  0.57270  Biso   1.000  C
  H104     1.0000 0.87250  0.81820  0.57790  Biso   1.000  H
  C165     1.0000 0.91940  0.75880  0.56230  Biso   1.000  C
  C166     1.0000 0.83420  0.81420  0.42790  Biso   1.000  C
  H105     1.0000 0.87370  0.83000  0.41510  Biso   1.000  H
  C167     1.0000 0.48400  0.76010  0.42160  Biso   1.000  C
  H106     1.0000 0.42900  0.76140  0.40950  Biso   1.000  H
  C168     1.0000 0.68100  0.74210  0.34740  Biso   1.000  C
  H107     1.0000 0.68370  0.72040  0.37050  Biso   1.000  H
  C169     1.0000 0.60350  0.47210  0.50390  Biso   1.000  C
  H108     1.0000 0.57610  0.44360  0.49970  Biso   1.000  H
  C170     1.0000 0.65600  0.47330  0.55240  Biso   1.000  C
  H109     1.0000 0.68710  0.50070  0.55540  Biso   1.000  H
  C171     1.0000 0.61460  0.46760  0.59630  Biso   1.000  C
  C172     1.0000 0.54040  0.50840  0.49470  Biso   1.000  C
  C173     1.0000 0.94310  0.31780  0.52390  Biso   1.000  C
  H110     1.0000 0.98820  0.30450  0.51400  Biso   1.000  H
  C174     1.0000 0.57870  0.33860  0.52020  Biso   1.000  C
  H111     1.0000 0.52390  0.33450  0.50890  Biso   1.000  H
  O186     1.0000 0.77240  0.26230  0.53000  Biso   1.000  O
  C175     1.0000 0.77000  0.24770  0.57220  Biso   1.000  C
  H112     1.0000 0.75670  0.26600  0.59600  Biso   1.000  H
  O187     1.0000 0.78800  0.20720  0.58090  Biso   1.000  O
  C176     1.0000 0.51430  0.66300  0.93980  Biso   1.000  C
  O188     1.0000 0.44110  0.66110  0.91400  Biso   1.000  O
  O189     1.0000 0.77510  0.35270  0.56050  Biso   1.000  O
  O190     1.0000 0.73310  0.38100  0.46780  Biso   1.000  O
  O191     1.0000 0.87470  0.42010  0.53790  Biso   1.000  O
  O192     1.0000 0.96840  0.41470  0.61800  Biso   1.000  O
  O193     1.0000 0.05720  0.46300  0.59940  Biso   1.000  O
  O194     1.0000 0.82320  0.49980  0.51420  Biso   1.000  O
  O195     1.0000 0.76590  0.52930  0.42150  Biso   1.000  O
  O196     1.0000 0.81980  0.44300  0.43240  Biso   1.000  O
  O197     1.0000 0.73780  0.29900  0.43570  Biso   1.000  O
  O198     1.0000 0.72270  0.31940  0.36050  Biso   1.000  O
  O199     1.0000 0.83260  0.43540  0.34260  Biso   1.000  O
  O200     1.0000 0.88040  0.36780  0.34760  Biso   1.000  O
  O201     1.0000 0.92540  0.50380  0.38750  Biso   1.000  O
  O202     1.0000 0.94050  0.54070  0.45420  Biso   1.000  O
  O203     1.0000 0.68340  0.46760  0.35000  Biso   1.000  O
  O204     1.0000 0.59850  0.51800  0.37250  Biso   1.000  O
  O205     1.0000 0.72290  0.57090  0.49290  Biso   1.000  O
  O206     1.0000 0.63220  0.59830  0.41370  Biso   1.000  O
  O207     1.0000 0.61130  0.66430  0.44180  Biso   1.000  O
  O208     1.0000 0.68740  0.75130  0.45600  Biso   1.000  O
  O209     1.0000 0.62820  0.83340  0.48490  Biso   1.000  O
  O210     1.0000 0.74350  0.80590  0.61780  Biso   1.000  O
  O211     1.0000 0.66690  0.87830  0.64740  Biso   1.000  O
  O212     1.0000 0.69830  0.88130  0.55460  Biso   1.000  O
  O213     1.0000 0.67840  0.96560  0.54970  Biso   1.000  O
  O214     1.0000 0.70580  0.97010  0.47620  Biso   1.000  O
  O215     1.0000 0.61350  0.86310  0.39840  Biso   1.000  O
  O216     1.0000 0.57280  0.92800  0.41660  Biso   1.000  O
  O217     1.0000 0.64270  0.97640  0.64110  Biso   1.000  O
  O218     1.0000 0.62200  0.00940  0.70550  Biso   1.000  O
  O219     1.0000 0.79030  0.94300  0.62750  Biso   1.000  O
  O220     1.0000 0.85040  0.88350  0.66340  Biso   1.000  O
  O221     1.0000 0.54640  0.92230  0.57460  Biso   1.000  O
  O222     1.0000 0.48770  0.89030  0.63400  Biso   1.000  O
  O223     1.0000 0.66360  0.80840  0.69770  Biso   1.000  O
  O224     1.0000 0.55860  0.86180  0.72470  Biso   1.000  O
  O225     1.0000 0.57650  0.83950  0.79770  Biso   1.000  O
  O226     1.0000 0.68160  0.84270  0.89270  Biso   1.000  O
  O227     1.0000 0.66480  0.81040  0.98320  Biso   1.000  O
  O228     1.0000 0.79000  0.70360  0.95550  Biso   1.000  O
  O229     1.0000 0.75330  0.66670  0.03930  Biso   1.000  O
  O230     1.0000 0.76540  0.75770  0.03510  Biso   1.000  O
  O231     1.0000 0.77670  0.76460  0.12820  Biso   1.000  O
  O232     1.0000 0.78370  0.83950  0.12830  Biso   1.000  O
  O233     1.0000 0.63070  0.88670  0.01410  Biso   1.000  O
  O234     1.0000 0.60370  0.86310  0.08800  Biso   1.000  O
  O235     1.0000 0.89250  0.70990  0.09790  Biso   1.000  O
  O236     1.0000 0.93130  0.67790  0.03490  Biso   1.000  O
  O237     1.0000 0.63820  0.71670  0.09140  Biso   1.000  O
  O238     1.0000 0.58400  0.65770  0.06010  Biso   1.000  O
  O239     1.0000 0.72670  0.62270  0.96210  Biso   1.000  O
  O240     1.0000 0.78850  0.50780  0.94390  Biso   1.000  O
  O241     1.0000 0.77190  0.44040  0.99900  Biso   1.000  O
  O242     1.0000 0.74400  0.35630  0.96240  Biso   1.000  O
  O243     1.0000 0.72060  0.43350  0.89900  Biso   1.000  O
  O244     1.0000 0.60730  0.49380  0.89850  Biso   1.000  O
  O245     1.0000 0.56010  0.48470  0.82170  Biso   1.000  O
  O246     1.0000 0.68860  0.35930  0.85060  Biso   1.000  O
  O247     1.0000 0.80120  0.31250  0.80840  Biso   1.000  O
  O248     1.0000 0.83390  0.31610  0.90750  Biso   1.000  O
  O249     1.0000 0.74770  0.32260  0.04860  Biso   1.000  O
  O250     1.0000 0.72500  0.25800  0.01880  Biso   1.000  O
  O251     1.0000 0.85180  0.23210  0.91500  Biso   1.000  O
  O252     1.0000 0.85900  0.23120  0.99400  Biso   1.000  O
  O253     1.0000 0.95200  0.26860  0.85450  Biso   1.000  O
  O254     1.0000 0.97920  0.33050  0.82330  Biso   1.000  O
  O255     1.0000 0.70510  0.25250  0.86050  Biso   1.000  O
  O256     1.0000 0.63570  0.27960  0.79630  Biso   1.000  O
  O257     1.0000 0.76410  0.38280  0.75830  Biso   1.000  O
  O258     1.0000 0.80200  0.40590  0.63620  Biso   1.000  O
  O259     1.0000 0.89860  0.33830  0.65100  Biso   1.000  O
  O260     1.0000 0.89630  0.33730  0.72920  Biso   1.000  O
  O261     1.0000 0.67770  0.34380  0.64170  Biso   1.000  O
  O262     1.0000 0.68000  0.31530  0.71700  Biso   1.000  O
  O263     1.0000 0.84560  0.39420  0.84850  Biso   1.000  O
  O264     1.0000 0.87970  0.41490  0.93840  Biso   1.000  O
  O265     1.0000 0.96890  0.48520  0.95650  Biso   1.000  O
  O266     1.0000 0.06690  0.46330  0.92050  Biso   1.000  O
  O267     1.0000 0.93910  0.41420  0.78450  Biso   1.000  O
  O268     1.0000 0.98790  0.47450  0.82140  Biso   1.000  O
  O269     1.0000 0.59280  0.36820  0.76880  Biso   1.000  O
  O270     1.0000 0.49240  0.39710  0.80180  Biso   1.000  O
  O271     1.0000 0.63360  0.39270  0.02490  Biso   1.000  O
  O272     1.0000 0.59680  0.43330  0.96520  Biso   1.000  O
  O273     1.0000 0.88270  0.37030  0.04290  Biso   1.000  O
  O274     1.0000 0.94360  0.43580  0.03670  Biso   1.000  O
  O275     1.0000 0.65990  0.51560  0.99830  Biso   1.000  O
  O276     1.0000 0.65200  0.58450  0.02530  Biso   1.000  O
  O277     1.0000 0.88070  0.52140  0.02660  Biso   1.000  O
  O278     1.0000 0.86990  0.59280  0.02560  Biso   1.000  O
  O279     1.0000 0.63110  0.70630  0.97700  Biso   1.000  O
  O280     1.0000 0.65540  0.75110  0.90110  Biso   1.000  O
  O281     1.0000 0.55320  0.74820  0.82180  Biso   1.000  O
  O282     1.0000 0.52750  0.67860  0.82920  Biso   1.000  O
  O283     1.0000 0.55080  0.63310  0.96330  Biso   1.000  O
  O284     1.0000 0.89670  0.64650  0.94220  Biso   1.000  O
  O285     1.0000 0.94900  0.67990  0.88450  Biso   1.000  O
  O286     1.0000 0.81000  0.78670  0.93400  Biso   1.000  O
  O287     1.0000 0.89050  0.80570  0.86710  Biso   1.000  O
  O288     1.0000 0.00690  0.76580  0.89930  Biso   1.000  O
  O289     1.0000 0.77640  0.88680  0.97910  Biso   1.000  O
  O290     1.0000 0.84720  0.88140  0.91510  Biso   1.000  O
  O291     1.0000 0.53570  0.86620  0.93600  Biso   1.000  O
  O292     1.0000 0.50580  0.80950  0.88120  Biso   1.000  O
  O293     1.0000 0.72440  0.79230  0.82860  Biso   1.000  O
  O294     1.0000 0.77690  0.86980  0.74110  Biso   1.000  O
  O295     1.0000 0.78600  0.87010  0.82170  Biso   1.000  O
  O296     1.0000 0.57590  0.81700  0.59070  Biso   1.000  O
  O297     1.0000 0.49290  0.79710  0.65860  Biso   1.000  O
  O298     1.0000 0.41460  0.74750  0.61570  Biso   1.000  O
  O299     1.0000 0.63630  0.75440  0.54620  Biso   1.000  O
  O300     1.0000 0.56690  0.67750  0.53740  Biso   1.000  O
  O301     1.0000 0.52810  0.67480  0.60960  Biso   1.000  O
  O302     1.0000 0.84760  0.79860  0.69450  Biso   1.000  O
  O303     1.0000 0.91070  0.74230  0.67000  Biso   1.000  O
  O304     1.0000 0.78770  0.78970  0.53530  Biso   1.000  O
  O305     1.0000 0.90080  0.72980  0.53040  Biso   1.000  O
  O306     1.0000 0.98970  0.76430  0.58190  Biso   1.000  O
  O307     1.0000 0.76980  0.83210  0.42710  Biso   1.000  O
  O308     1.0000 0.85620  0.77480  0.44450  Biso   1.000  O
  O309     1.0000 0.53350  0.78230  0.40340  Biso   1.000  O
  O310     1.0000 0.51090  0.73310  0.46070  Biso   1.000  O
  O311     1.0000 0.66470  0.78700  0.35580  Biso   1.000  O
  O312     1.0000 0.69000  0.73540  0.30400  Biso   1.000  O
  O313     1.0000 0.73730  0.68970  0.51620  Biso   1.000  O
  O314     1.0000 0.84640  0.61540  0.45110  Biso   1.000  O
  O315     1.0000 0.82990  0.68620  0.44720  Biso   1.000  O
  O316     1.0000 0.66250  0.47560  0.47000  Biso   1.000  O
  O317     1.0000 0.71020  0.43790  0.55060  Biso   1.000  O
  O318     1.0000 0.62120  0.43210  0.61670  Biso   1.000  O
  O319     1.0000 0.56950  0.49800  0.60760  Biso   1.000  O
  O320     1.0000 0.55480  0.53930  0.46470  Biso   1.000  O
  O321     1.0000 0.47610  0.50580  0.50990  Biso   1.000  O
  O322     1.0000 0.90180  0.57010  0.53810  Biso   1.000  O
  O323     1.0000 0.96050  0.54390  0.60840  Biso   1.000  O
  O324     1.0000 0.87650  0.31950  0.49270  Biso   1.000  O
  O325     1.0000 0.95170  0.33220  0.56520  Biso   1.000  O
  O326     1.0000 0.63070  0.31330  0.50150  Biso   1.000  O
  O327     1.0000 0.59500  0.36680  0.55090  Biso   1.000  O
  Fe31     1.0000 0.69480  0.38756  0.59175  Biso   1.000  Fe
  Fe32     1.0000 0.87450  0.37646  0.59075  Biso   1.000  Fe
  Fe33     1.0000 0.75290  0.32339  0.50345  Biso   1.000  Fe
  Fe34     1.0000 0.76940  0.44140  0.49333  Biso   1.000  Fe
  Fe35     1.0000 0.83350  0.55379  0.47645  Biso   1.000  Fe
  Fe36     1.0000 0.65970  0.53553  0.43742  Biso   1.000  Fe
  Fe37     1.0000 0.79980  0.48765  0.37788  Biso   1.000  Fe
  Fe38     1.0000 0.62420  0.71410  0.49055  Biso   1.000  Fe
  Fe39     1.0000 0.79530  0.74095  0.48782  Biso   1.000  Fe
  Fe40     1.0000 0.65250  0.80390  0.42298  Biso   1.000  Fe
  Fe41     1.0000 0.67870  0.81553  0.55318  Biso   1.000  Fe
  Fe42     1.0000 0.75880  0.84270  0.67639  Biso   1.000  Fe
  Fe43     1.0000 0.57690  0.84460  0.65614  Biso   1.000  Fe
  Fe44     1.0000 0.67070  0.92475  0.60355  Biso   1.000  Fe
  Fe45     1.0000 0.61480  0.79979  0.85504  Biso   1.000  Fe
  Fe46     1.0000 0.78680  0.83033  0.88051  Biso   1.000  Fe
  Fe47     1.0000 0.71770  0.75436  0.96594  Biso   1.000  Fe
  Fe48     1.0000 0.82790  0.65197  0.99488  Biso   1.000  Fe
  Fe49     1.0000 0.65270  0.64848  0.00650  Biso   1.000  Fe
  Fe50     1.0000 0.86940  0.46466  0.98414  Biso   1.000  Fe
  Fe51     1.0000 0.69070  0.46963  0.95196  Biso   1.000  Fe
  Fe52     1.0000 0.75740  0.38627  0.02712  Biso   1.000  Fe
  Fe53     1.0000 0.78510  0.37759  0.90227  Biso   1.000  Fe
  Fe54     1.0000 0.69770  0.33477  0.78652  Biso   1.000  Fe
  Fe55     1.0000 0.87180  0.35971  0.79265  Biso   1.000  Fe
  Fe56     1.0000 0.82650  0.26949  0.85585  Biso   1.000  Fe
  O328     1.0000 0.35800  0.59790  0.85780  Biso   1.000  O
  Ba27     1.0000 0.40552  0.51639  0.59079  Biso   1.000  Ba
  Ba28     1.0000 0.26032  0.72704  0.63477  Biso   1.000  Ba
  Ba29     1.0000 0.74640  0.67075  0.25284  Biso   1.000  Ba
  Ba30     1.0000 0.07770  0.61916  0.90633  Biso   1.000  Ba
  Ba31     1.0000 0.41110  0.52611  0.83770  Biso   1.000  Ba
  Ba32     1.0000 0.39250  0.36290  0.71190  Biso   1.000  Ba
  Ba33     1.0000 0.60230  0.02913  0.79190  Biso   1.000  Ba
  Ba34     1.0000 0.79730  0.52532  0.21024  Biso   1.000  Ba
  O329     1.0000 0.38100  0.45840  0.75910  Biso   1.000  O
  O330     1.0000 0.30200  0.69720  0.54540  Biso   1.000  O
  O331     1.0000 0.33300  0.37040  0.80700  Biso   1.000  O
  O332     1.0000 0.47300  0.54840  0.92070  Biso   1.000  O
  O333     1.0000 0.09680  0.65100  0.00250  Biso   1.000  O
  O334     1.0000 0.50960  0.29480  0.69480  Biso   1.000  O
  Ba35     1.0000 0.85820  0.16266  0.50712  Biso   1.000  Ba
  O335     1.0000 0.87080  0.23120  0.44440  Biso   1.000  O
  O336     1.0000 0.22200  0.33200  0.72010  Biso   1.000  O
  O337     1.0000 0.75000  0.75880  0.21790  Biso   1.000  O
  O338     1.0000 0.71400  0.44580  0.24360  Biso   1.000  O
  Ba36     1.0000 0.88900  0.37420  0.19770  Biso   1.000  Ba
  O339     1.0000 0.86210  0.29840  0.23910  Biso   1.000  O
  O340     1.0000 0.03210  0.30970  0.21780  Biso   1.000  O
  O341     1.0000 0.85670  0.30020  0.12540  Biso   1.000  O
  O342     1.0000 0.72300  0.12930  0.54720  Biso   1.000  O
  O343     1.0000 0.29310  0.57860  0.33880  Biso   1.000  O
  O344     1.0000 0.33400  0.73280  0.89340  Biso   1.000  O
  Ba37     1.0000 0.22820  0.41450  0.73263  Biso   1.000  Ba
  Ba38     1.0000 0.39110  0.29857  0.75430  Biso   1.000  Ba
  Ba39     1.0000 0.06990  0.53300  0.68560  Biso   1.000  Ba
  Ba40     1.0000 0.20930  0.87210  0.80600  Biso   1.000  Ba
  O345     1.0000 0.17000  0.57880  0.04290  Biso   1.000  O
  O346     1.0000 0.19500  0.59390  0.00600  Biso   1.000  O
  O347     1.0000 0.40400  0.61470  0.82470  Biso   1.000  O
  Ba41     1.0000 0.20970  0.73070  0.82230  Biso   1.000  Ba
  Ba42     1.0000 0.22070  0.74500  0.86820  Biso   1.000  Ba
  Ba43     1.0000 0.16890  0.89020  0.75810  Biso   1.000  Ba
  Ba44     1.0000 0.31290  0.50890  0.88870  Biso   1.000  Ba
  Ba45     1.0000 0.05630  0.72890  0.82140  Biso   1.000  Ba
  Ba46     1.0000 0.12670  0.70390  0.91560  Biso   1.000  Ba
  Ba47     1.0000 0.66750  0.97750  0.02170  Biso   1.000  Ba
  Ba48     1.0000 0.10150  0.45160  0.75910  Biso   1.000  Ba
  Ba49     1.0000 0.98690  0.59540  0.70150  Biso   1.000  Ba
  Ba50     1.0000 0.68910  0.03600  0.95370  Biso   1.000  Ba
  Ba51     1.0000 0.78200  0.16040  0.66000  Biso   1.000  Ba
  Ba52     1.0000 0.36550  0.55320  0.43390  Biso   1.000  Ba
  O348     1.0000 0.68490  0.13110  0.60360  Biso   1.000  O
