data_image0
_cell_length_a       19.168
_cell_length_b       19.168
_cell_length_c       67.695
_cell_angle_alpha    90
_cell_angle_beta     90
_cell_angle_gamma    120

_symmetry_space_group_name_H-M    "P 1"
_symmetry_int_tables_number       1

loop_
  _symmetry_equiv_pos_as_xyz
  'x, y, z'

loop_
  _atom_site_label
  _atom_site_occupancy
  _atom_site_fract_x
  _atom_site_fract_y
  _atom_site_fract_z
  _atom_site_thermal_displace_type
  _atom_site_B_iso_or_equiv
  _atom_site_type_symbol
  Zn1      1.0000 0.35649  0.58519  0.33171  Biso   1.000  Zn
  Zn2      1.0000 0.10308  0.08677  0.15076  Biso   1.000  Zn
  O1       1.0000 0.33760  0.57490  0.28323  Biso   1.000  O
  O2       1.0000 0.38180  0.53690  0.30995  Biso   1.000  O
  O3       1.0000 0.10340  0.08050  0.19820  Biso   1.000  O
  O4       1.0000 0.18110  0.14360  0.17224  Biso   1.000  O
  O5       1.0000 0.15300  0.04420  0.13365  Biso   1.000  O
  O6       1.0000 0.07630  0.91030  0.13615  Biso   1.000  O
  O7       1.0000 0.51690  0.21950  0.01581  Biso   1.000  O
  O8       1.0000 0.60210  0.16980  0.01412  Biso   1.000  O
  N1       1.0000 0.42250  0.32470  0.24347  Biso   1.000  N
  N2       1.0000 0.35440  0.93830  0.08044  Biso   1.000  N
  C1       1.0000 0.36630  0.53510  0.29190  Biso   1.000  C
  C2       1.0000 0.38020  0.47670  0.27933  Biso   1.000  C
  C3       1.0000 0.42180  0.44050  0.28684  Biso   1.000  C
  H1       1.0000 0.44120  0.45100  0.30000  Biso   1.000  H
  C4       1.0000 0.43510  0.38890  0.27505  Biso   1.000  C
  H2       1.0000 0.46360  0.36420  0.28020  Biso   1.000  H
  C5       1.0000 0.40680  0.37350  0.25573  Biso   1.000  C
  C6       1.0000 0.36510  0.40970  0.24821  Biso   1.000  C
  H3       1.0000 0.34570  0.39920  0.23500  Biso   1.000  H
  C7       1.0000 0.35180  0.46130  0.26001  Biso   1.000  C
  H4       1.0000 0.32330  0.48600  0.25490  Biso   1.000  H
  C8       1.0000 0.49150  0.31290  0.24605  Biso   1.000  C
  H5       1.0000 0.54140  0.36410  0.24400  Biso   1.000  H
  H6       1.0000 0.48840  0.27320  0.23640  Biso   1.000  H
  H7       1.0000 0.49100  0.29340  0.25950  Biso   1.000  H
  C9       1.0000 0.17000  0.12960  0.19015  Biso   1.000  C
  C10      1.0000 0.23700  0.18250  0.20342  Biso   1.000  C
  C11      1.0000 0.31290  0.23050  0.19696  Biso   1.000  C
  H8       1.0000 0.32430  0.23010  0.18330  Biso   1.000  H
  C12      1.0000 0.37500  0.28040  0.20964  Biso   1.000  C
  H9       1.0000 0.42720  0.31660  0.20460  Biso   1.000  H
  C13      1.0000 0.35980  0.27650  0.22920  Biso   1.000  C
  C14      1.0000 0.28140  0.22810  0.23613  Biso   1.000  C
  H10      1.0000 0.26830  0.22940  0.24960  Biso   1.000  H
  C15      1.0000 0.22550  0.17990  0.22317  Biso   1.000  C
  H11      1.0000 0.17420  0.14120  0.22820  Biso   1.000  H
  C16      1.0000 0.13700  0.97280  0.12984  Biso   1.000  C
  C17      1.0000 0.19800  0.96540  0.11725  Biso   1.000  C
  C18      1.0000 0.18020  0.88934  0.11083  Biso   1.000  C
  H12      1.0000 0.13170  0.84310  0.11490  Biso   1.000  H
  C19      1.0000 0.23340  0.88100  0.09844  Biso   1.000  C
  H13      1.0000 0.22130  0.82910  0.09410  Biso   1.000  H
  C20      1.0000 0.30440  0.94870  0.09247  Biso   1.000  C
  C21      1.0000 0.32220  0.02470  0.09889  Biso   1.000  C
  H14      1.0000 0.37070  0.07100  0.09480  Biso   1.000  H
  C22      1.0000 0.26890  0.03305  0.11128  Biso   1.000  C
  H15      1.0000 0.28110  0.08500  0.11570  Biso   1.000  H
  C23      1.0000 0.35170  0.86160  0.08040  Biso   1.000  C
  H16      1.0000 0.31470  0.82700  0.09070  Biso   1.000  H
  H17      1.0000 0.40570  0.87010  0.08290  Biso   1.000  H
  H18      1.0000 0.33280  0.83580  0.06750  Biso   1.000  H
  C24      1.0000 0.54140  0.17060  0.02071  Biso   1.000  C
  C25      1.0000 0.49420  0.11230  0.03682  Biso   1.000  C
  C26      1.0000 0.52240  0.06500  0.04524  Biso   1.000  C
  H19      1.0000 0.57270  0.07130  0.04120  Biso   1.000  H
  C27      1.0000 0.47710  0.00840  0.05957  Biso   1.000  C
  H20      1.0000 0.49640  0.97600  0.06530  Biso   1.000  H
  C28      1.0000 0.40350  0.99910  0.06550  Biso   1.000  C
  C29      1.0000 0.37520  0.04640  0.05708  Biso   1.000  C
  H21      1.0000 0.32490  0.04010  0.06110  Biso   1.000  H
  C30      1.0000 0.42060  0.10310  0.04274  Biso   1.000  C
  H22      1.0000 0.40130  0.13540  0.03700  Biso   1.000  H
  Zn3      1.0000 0.02316  0.91852  0.66504  Biso   1.000  Zn
  Zn4      1.0000 0.76975  0.42010  0.48409  Biso   1.000  Zn
  O9       1.0000 0.00427  0.90823  0.61656  Biso   1.000  O
  O10      1.0000 0.04847  0.87023  0.64328  Biso   1.000  O
  O11      1.0000 0.77007  0.41383  0.53153  Biso   1.000  O
  O12      1.0000 0.84777  0.47693  0.50557  Biso   1.000  O
  O13      1.0000 0.81967  0.37753  0.46698  Biso   1.000  O
  O14      1.0000 0.74297  0.24363  0.46948  Biso   1.000  O
  O15      1.0000 0.18357  0.55283  0.34914  Biso   1.000  O
  O16      1.0000 0.26877  0.50313  0.34745  Biso   1.000  O
  N3       1.0000 0.08917  0.65803  0.57680  Biso   1.000  N
  N4       1.0000 0.02107  0.27163  0.41377  Biso   1.000  N
  C31      1.0000 0.03297  0.86843  0.62523  Biso   1.000  C
  C32      1.0000 0.04687  0.81003  0.61266  Biso   1.000  C
  C33      1.0000 0.08847  0.77383  0.62017  Biso   1.000  C
  H23      1.0000 0.10787  0.78433  0.63333  Biso   1.000  H
  C34      1.0000 0.10177  0.72223  0.60838  Biso   1.000  C
  H24      1.0000 0.13027  0.69753  0.61353  Biso   1.000  H
  C35      1.0000 0.07347  0.70683  0.58906  Biso   1.000  C
  C36      1.0000 0.03177  0.74303  0.58154  Biso   1.000  C
  H25      1.0000 0.01237  0.73253  0.56833  Biso   1.000  H
  C37      1.0000 0.01847  0.79463  0.59334  Biso   1.000  C
  H26      1.0000 0.98997  0.81933  0.58823  Biso   1.000  H
  C38      1.0000 0.15817  0.64623  0.57938  Biso   1.000  C
  H27      1.0000 0.20807  0.69743  0.57733  Biso   1.000  H
  H28      1.0000 0.15507  0.60653  0.56973  Biso   1.000  H
  H29      1.0000 0.15767  0.62673  0.59283  Biso   1.000  H
  C39      1.0000 0.83667  0.46293  0.52348  Biso   1.000  C
  C40      1.0000 0.90367  0.51583  0.53675  Biso   1.000  C
  C41      1.0000 0.97957  0.56383  0.53029  Biso   1.000  C
  H30      1.0000 0.99097  0.56343  0.51663  Biso   1.000  H
  C42      1.0000 0.04167  0.61373  0.54297  Biso   1.000  C
  H31      1.0000 0.09387  0.64993  0.53793  Biso   1.000  H
  C43      1.0000 0.02647  0.60983  0.56253  Biso   1.000  C
  C44      1.0000 0.94807  0.56143  0.56946  Biso   1.000  C
  H32      1.0000 0.93497  0.56273  0.58293  Biso   1.000  H
  C45      1.0000 0.89217  0.51323  0.55650  Biso   1.000  C
  H33      1.0000 0.84087  0.47453  0.56153  Biso   1.000  H
  C46      1.0000 0.80367  0.30613  0.46317  Biso   1.000  C
  C47      1.0000 0.86467  0.29873  0.45058  Biso   1.000  C
  C48      1.0000 0.84687  0.22267  0.44416  Biso   1.000  C
  H34      1.0000 0.79837  0.17643  0.44823  Biso   1.000  H
  C49      1.0000 0.90007  0.21433  0.43177  Biso   1.000  C
  H35      1.0000 0.88797  0.16243  0.42743  Biso   1.000  H
  C50      1.0000 0.97107  0.28203  0.42580  Biso   1.000  C
  C51      1.0000 0.98887  0.35803  0.43222  Biso   1.000  C
  H36      1.0000 0.03737  0.40433  0.42813  Biso   1.000  H
  C52      1.0000 0.93557  0.36638  0.44461  Biso   1.000  C
  H37      1.0000 0.94777  0.41833  0.44903  Biso   1.000  H
  C53      1.0000 0.01837  0.19493  0.41373  Biso   1.000  C
  H38      1.0000 0.98137  0.16033  0.42403  Biso   1.000  H
  H39      1.0000 0.07237  0.20343  0.41623  Biso   1.000  H
  H40      1.0000 0.99947  0.16913  0.40083  Biso   1.000  H
  C54      1.0000 0.20807  0.50393  0.35404  Biso   1.000  C
  C55      1.0000 0.16087  0.44563  0.37015  Biso   1.000  C
  C56      1.0000 0.18907  0.39833  0.37857  Biso   1.000  C
  H41      1.0000 0.23937  0.40463  0.37453  Biso   1.000  H
  C57      1.0000 0.14377  0.34173  0.39290  Biso   1.000  C
  H42      1.0000 0.16307  0.30933  0.39863  Biso   1.000  H
  C58      1.0000 0.07017  0.33243  0.39883  Biso   1.000  C
  C59      1.0000 0.04187  0.37973  0.39041  Biso   1.000  C
  H43      1.0000 0.99157  0.37343  0.39443  Biso   1.000  H
  C60      1.0000 0.08727  0.43643  0.37607  Biso   1.000  C
  H44      1.0000 0.06797  0.46873  0.37033  Biso   1.000  H
  Zn5      1.0000 0.68982  0.25186  0.99837  Biso   1.000  Zn
  Zn6      1.0000 0.43641  0.75344  0.81742  Biso   1.000  Zn
  O17      1.0000 0.67093  0.24157  0.94990  Biso   1.000  O
  O18      1.0000 0.71513  0.20357  0.97662  Biso   1.000  O
  O19      1.0000 0.43673  0.74717  0.86487  Biso   1.000  O
  O20      1.0000 0.51443  0.81027  0.83891  Biso   1.000  O
  O21      1.0000 0.48633  0.71087  0.80032  Biso   1.000  O
  O22      1.0000 0.40963  0.57697  0.80282  Biso   1.000  O
  O23      1.0000 0.85023  0.88617  0.68248  Biso   1.000  O
  O24      1.0000 0.93543  0.83647  0.68079  Biso   1.000  O
  N5       1.0000 0.75583  0.99137  0.91014  Biso   1.000  N
  N6       1.0000 0.68773  0.60497  0.74711  Biso   1.000  N
  C61      1.0000 0.69963  0.20177  0.95857  Biso   1.000  C
  C62      1.0000 0.71353  0.14337  0.94600  Biso   1.000  C
  C63      1.0000 0.75513  0.10717  0.95351  Biso   1.000  C
  H45      1.0000 0.77453  0.11767  0.96667  Biso   1.000  H
  C64      1.0000 0.76843  0.05557  0.94172  Biso   1.000  C
  H46      1.0000 0.79693  0.03087  0.94687  Biso   1.000  H
  C65      1.0000 0.74013  0.04017  0.92240  Biso   1.000  C
  C66      1.0000 0.69843  0.07637  0.91488  Biso   1.000  C
  H47      1.0000 0.67903  0.06587  0.90167  Biso   1.000  H
  C67      1.0000 0.68513  0.12797  0.92668  Biso   1.000  C
  H48      1.0000 0.65663  0.15267  0.92157  Biso   1.000  H
  C68      1.0000 0.82483  0.97957  0.91272  Biso   1.000  C
  H49      1.0000 0.87473  0.03077  0.91067  Biso   1.000  H
  H50      1.0000 0.82173  0.93987  0.90307  Biso   1.000  H
  H51      1.0000 0.82433  0.96007  0.92617  Biso   1.000  H
  C69      1.0000 0.50333  0.79627  0.85682  Biso   1.000  C
  C70      1.0000 0.57033  0.84917  0.87009  Biso   1.000  C
  C71      1.0000 0.64623  0.89717  0.86363  Biso   1.000  C
  H52      1.0000 0.65763  0.89677  0.84997  Biso   1.000  H
  C72      1.0000 0.70833  0.94707  0.87631  Biso   1.000  C
  H53      1.0000 0.76053  0.98327  0.87127  Biso   1.000  H
  C73      1.0000 0.69313  0.94317  0.89587  Biso   1.000  C
  C74      1.0000 0.61473  0.89477  0.90280  Biso   1.000  C
  H54      1.0000 0.60163  0.89607  0.91627  Biso   1.000  H
  C75      1.0000 0.55883  0.84657  0.88984  Biso   1.000  C
  H55      1.0000 0.50753  0.80787  0.89487  Biso   1.000  H
  C76      1.0000 0.47033  0.63947  0.79651  Biso   1.000  C
  C77      1.0000 0.53133  0.63207  0.78392  Biso   1.000  C
  C78      1.0000 0.51353  0.55601  0.77750  Biso   1.000  C
  H56      1.0000 0.46503  0.50977  0.78157  Biso   1.000  H
  C79      1.0000 0.56673  0.54767  0.76511  Biso   1.000  C
  H57      1.0000 0.55463  0.49577  0.76077  Biso   1.000  H
  C80      1.0000 0.63773  0.61537  0.75914  Biso   1.000  C
  C81      1.0000 0.65553  0.69137  0.76556  Biso   1.000  C
  H58      1.0000 0.70403  0.73767  0.76147  Biso   1.000  H
  C82      1.0000 0.60223  0.69972  0.77795  Biso   1.000  C
  H59      1.0000 0.61443  0.75167  0.78237  Biso   1.000  H
  C83      1.0000 0.68503  0.52827  0.74707  Biso   1.000  C
  H60      1.0000 0.64803  0.49367  0.75737  Biso   1.000  H
  H61      1.0000 0.73903  0.53677  0.74957  Biso   1.000  H
  H62      1.0000 0.66613  0.50247  0.73417  Biso   1.000  H
  C84      1.0000 0.87473  0.83727  0.68738  Biso   1.000  C
  C85      1.0000 0.82753  0.77897  0.70349  Biso   1.000  C
  C86      1.0000 0.85573  0.73167  0.71191  Biso   1.000  C
  H63      1.0000 0.90603  0.73797  0.70787  Biso   1.000  H
  C87      1.0000 0.81043  0.67507  0.72624  Biso   1.000  C
  H64      1.0000 0.82973  0.64267  0.73197  Biso   1.000  H
  C88      1.0000 0.73683  0.66577  0.73217  Biso   1.000  C
  C89      1.0000 0.70853  0.71307  0.72375  Biso   1.000  C
  H65      1.0000 0.65823  0.70677  0.72777  Biso   1.000  H
  C90      1.0000 0.75393  0.76977  0.70941  Biso   1.000  C
  H66      1.0000 0.73463  0.80207  0.70367  Biso   1.000  H
  Zn7      1.0000 0.41481  0.77130  0.33171  Biso   1.000  Zn
  Zn8      1.0000 0.91323  0.01631  0.15076  Biso   1.000  Zn
  O25      1.0000 0.42510  0.76270  0.28323  Biso   1.000  O
  O26      1.0000 0.46310  0.84490  0.30995  Biso   1.000  O
  O27      1.0000 0.91950  0.02290  0.19820  Biso   1.000  O
  O28      1.0000 0.85640  0.03750  0.17224  Biso   1.000  O
  O29      1.0000 0.95580  0.10880  0.13365  Biso   1.000  O
  O30      1.0000 0.08970  0.16600  0.13615  Biso   1.000  O
  O31      1.0000 0.78050  0.29740  0.01581  Biso   1.000  O
  O32      1.0000 0.83020  0.43230  0.01412  Biso   1.000  O
  N7       1.0000 0.67530  0.09780  0.24347  Biso   1.000  N
  N8       1.0000 0.06170  0.41610  0.08044  Biso   1.000  N
  C91      1.0000 0.46490  0.83120  0.29190  Biso   1.000  C
  C92      1.0000 0.52330  0.90350  0.27933  Biso   1.000  C
  C93      1.0000 0.55950  0.98130  0.28684  Biso   1.000  C
  H67      1.0000 0.54900  0.99020  0.30000  Biso   1.000  H
  C94      1.0000 0.61110  0.04620  0.27505  Biso   1.000  C
  H68      1.0000 0.63580  0.09940  0.28020  Biso   1.000  H
  C95      1.0000 0.62650  0.03330  0.25573  Biso   1.000  C
  C96      1.0000 0.59030  0.95540  0.24821  Biso   1.000  C
  H69      1.0000 0.60080  0.94650  0.23500  Biso   1.000  H
  C97      1.0000 0.53870  0.89050  0.26001  Biso   1.000  C
  H70      1.0000 0.51400  0.83730  0.25490  Biso   1.000  H
  C98      1.0000 0.68710  0.17860  0.24605  Biso   1.000  C
  H71      1.0000 0.63590  0.17730  0.24400  Biso   1.000  H
  H72      1.0000 0.72680  0.21520  0.23640  Biso   1.000  H
  H73      1.0000 0.70660  0.19760  0.25950  Biso   1.000  H
  C99      1.0000 0.87040  0.04040  0.19015  Biso   1.000  C
  C100     1.0000 0.81750  0.05450  0.20342  Biso   1.000  C
  C101     1.0000 0.76950  0.08240  0.19696  Biso   1.000  C
  H74      1.0000 0.76990  0.09420  0.18330  Biso   1.000  H
  C102     1.0000 0.71960  0.09460  0.20964  Biso   1.000  C
  H75      1.0000 0.68340  0.11060  0.20460  Biso   1.000  H
  C103     1.0000 0.72350  0.08330  0.22920  Biso   1.000  C
  C104     1.0000 0.77190  0.05330  0.23613  Biso   1.000  C
  H76      1.0000 0.77060  0.03890  0.24960  Biso   1.000  H
  C105     1.0000 0.82010  0.04560  0.22317  Biso   1.000  C
  H77      1.0000 0.85880  0.03300  0.22820  Biso   1.000  H
  C106     1.0000 0.02720  0.16420  0.12984  Biso   1.000  C
  C107     1.0000 0.03460  0.23260  0.11725  Biso   1.000  C
  C108     1.0000 0.11066  0.29086  0.11083  Biso   1.000  C
  H78      1.0000 0.15690  0.28860  0.11490  Biso   1.000  H
  C109     1.0000 0.11900  0.35240  0.09844  Biso   1.000  C
  H79      1.0000 0.17090  0.39220  0.09410  Biso   1.000  H
  C110     1.0000 0.05130  0.35570  0.09247  Biso   1.000  C
  C111     1.0000 0.97530  0.29750  0.09889  Biso   1.000  C
  H80      1.0000 0.92900  0.29970  0.09480  Biso   1.000  H
  C112     1.0000 0.96695  0.23585  0.11128  Biso   1.000  C
  H81      1.0000 0.91500  0.19610  0.11570  Biso   1.000  H
  C113     1.0000 0.13840  0.49010  0.08040  Biso   1.000  C
  H82      1.0000 0.17300  0.48770  0.09070  Biso   1.000  H
  H83      1.0000 0.12990  0.53560  0.08290  Biso   1.000  H
  H84      1.0000 0.16420  0.49700  0.06750  Biso   1.000  H
  C114     1.0000 0.82940  0.37080  0.02071  Biso   1.000  C
  C115     1.0000 0.88770  0.38190  0.03682  Biso   1.000  C
  C116     1.0000 0.93500  0.45740  0.04524  Biso   1.000  C
  H85      1.0000 0.92870  0.50140  0.04120  Biso   1.000  H
  C117     1.0000 0.99160  0.46870  0.05957  Biso   1.000  C
  H86      1.0000 0.02400  0.52040  0.06530  Biso   1.000  H
  C118     1.0000 0.00090  0.40440  0.06550  Biso   1.000  C
  C119     1.0000 0.95360  0.32880  0.05708  Biso   1.000  C
  H87      1.0000 0.95990  0.28480  0.06110  Biso   1.000  H
  C120     1.0000 0.89690  0.31750  0.04274  Biso   1.000  C
  H88      1.0000 0.86460  0.26590  0.03700  Biso   1.000  H
  Zn9      1.0000 0.08148  0.10463  0.66504  Biso   1.000  Zn
  Zn10     1.0000 0.57990  0.34964  0.48409  Biso   1.000  Zn
  O33      1.0000 0.09177  0.09603  0.61656  Biso   1.000  O
  O34      1.0000 0.12977  0.17823  0.64328  Biso   1.000  O
  O35      1.0000 0.58617  0.35623  0.53153  Biso   1.000  O
  O36      1.0000 0.52307  0.37083  0.50557  Biso   1.000  O
  O37      1.0000 0.62247  0.44213  0.46698  Biso   1.000  O
  O38      1.0000 0.75637  0.49933  0.46948  Biso   1.000  O
  O39      1.0000 0.44717  0.63073  0.34914  Biso   1.000  O
  O40      1.0000 0.49687  0.76563  0.34745  Biso   1.000  O
  N9       1.0000 0.34197  0.43113  0.57680  Biso   1.000  N
  N10      1.0000 0.72837  0.74943  0.41377  Biso   1.000  N
  C121     1.0000 0.13157  0.16453  0.62523  Biso   1.000  C
  C122     1.0000 0.18997  0.23683  0.61266  Biso   1.000  C
  C123     1.0000 0.22617  0.31463  0.62017  Biso   1.000  C
  H89      1.0000 0.21567  0.32353  0.63333  Biso   1.000  H
  C124     1.0000 0.27777  0.37953  0.60838  Biso   1.000  C
  H90      1.0000 0.30247  0.43273  0.61353  Biso   1.000  H
  C125     1.0000 0.29317  0.36663  0.58906  Biso   1.000  C
  C126     1.0000 0.25697  0.28873  0.58154  Biso   1.000  C
  H91      1.0000 0.26747  0.27983  0.56833  Biso   1.000  H
  C127     1.0000 0.20537  0.22383  0.59334  Biso   1.000  C
  H92      1.0000 0.18067  0.17063  0.58823  Biso   1.000  H
  C128     1.0000 0.35377  0.51193  0.57938  Biso   1.000  C
  H93      1.0000 0.30257  0.51063  0.57733  Biso   1.000  H
  H94      1.0000 0.39347  0.54853  0.56973  Biso   1.000  H
  H95      1.0000 0.37327  0.53093  0.59283  Biso   1.000  H
  C129     1.0000 0.53707  0.37373  0.52348  Biso   1.000  C
  C130     1.0000 0.48417  0.38783  0.53675  Biso   1.000  C
  C131     1.0000 0.43617  0.41573  0.53029  Biso   1.000  C
  H96      1.0000 0.43657  0.42753  0.51663  Biso   1.000  H
  C132     1.0000 0.38627  0.42793  0.54297  Biso   1.000  C
  H97      1.0000 0.35007  0.44393  0.53793  Biso   1.000  H
  C133     1.0000 0.39017  0.41663  0.56253  Biso   1.000  C
  C134     1.0000 0.43857  0.38663  0.56946  Biso   1.000  C
  H98      1.0000 0.43727  0.37223  0.58293  Biso   1.000  H
  C135     1.0000 0.48677  0.37893  0.55650  Biso   1.000  C
  H99      1.0000 0.52547  0.36633  0.56153  Biso   1.000  H
  C136     1.0000 0.69387  0.49753  0.46317  Biso   1.000  C
  C137     1.0000 0.70127  0.56593  0.45058  Biso   1.000  C
  C138     1.0000 0.77733  0.62419  0.44416  Biso   1.000  C
  H100     1.0000 0.82357  0.62193  0.44823  Biso   1.000  H
  C139     1.0000 0.78567  0.68573  0.43177  Biso   1.000  C
  H101     1.0000 0.83757  0.72553  0.42743  Biso   1.000  H
  C140     1.0000 0.71797  0.68903  0.42580  Biso   1.000  C
  C141     1.0000 0.64197  0.63083  0.43222  Biso   1.000  C
  H102     1.0000 0.59567  0.63303  0.42813  Biso   1.000  H
  C142     1.0000 0.63362  0.56918  0.44461  Biso   1.000  C
  H103     1.0000 0.58167  0.52943  0.44903  Biso   1.000  H
  C143     1.0000 0.80507  0.82343  0.41373  Biso   1.000  C
  H104     1.0000 0.83967  0.82103  0.42403  Biso   1.000  H
  H105     1.0000 0.79657  0.86893  0.41623  Biso   1.000  H
  H106     1.0000 0.83087  0.83033  0.40083  Biso   1.000  H
  C144     1.0000 0.49607  0.70413  0.35404  Biso   1.000  C
  C145     1.0000 0.55437  0.71523  0.37015  Biso   1.000  C
  C146     1.0000 0.60167  0.79073  0.37857  Biso   1.000  C
  H107     1.0000 0.59537  0.83473  0.37453  Biso   1.000  H
  C147     1.0000 0.65827  0.80203  0.39290  Biso   1.000  C
  H108     1.0000 0.69067  0.85373  0.39863  Biso   1.000  H
  C148     1.0000 0.66757  0.73773  0.39883  Biso   1.000  C
  C149     1.0000 0.62027  0.66213  0.39041  Biso   1.000  C
  H109     1.0000 0.62657  0.61813  0.39443  Biso   1.000  H
  C150     1.0000 0.56357  0.65083  0.37607  Biso   1.000  C
  H110     1.0000 0.53127  0.59923  0.37033  Biso   1.000  H
  Zn11     1.0000 0.74814  0.43797  0.99837  Biso   1.000  Zn
  Zn12     1.0000 0.24656  0.68298  0.81742  Biso   1.000  Zn
  O41      1.0000 0.75843  0.42937  0.94990  Biso   1.000  O
  O42      1.0000 0.79643  0.51157  0.97662  Biso   1.000  O
  O43      1.0000 0.25283  0.68957  0.86487  Biso   1.000  O
  O44      1.0000 0.18973  0.70417  0.83891  Biso   1.000  O
  O45      1.0000 0.28913  0.77547  0.80032  Biso   1.000  O
  O46      1.0000 0.42303  0.83267  0.80282  Biso   1.000  O
  O47      1.0000 0.11383  0.96407  0.68248  Biso   1.000  O
  O48      1.0000 0.16353  0.09897  0.68079  Biso   1.000  O
  N11      1.0000 0.00863  0.76447  0.91014  Biso   1.000  N
  N12      1.0000 0.39503  0.08277  0.74711  Biso   1.000  N
  C151     1.0000 0.79823  0.49787  0.95857  Biso   1.000  C
  C152     1.0000 0.85663  0.57017  0.94600  Biso   1.000  C
  C153     1.0000 0.89283  0.64797  0.95351  Biso   1.000  C
  H111     1.0000 0.88233  0.65687  0.96667  Biso   1.000  H
  C154     1.0000 0.94443  0.71287  0.94172  Biso   1.000  C
  H112     1.0000 0.96913  0.76607  0.94687  Biso   1.000  H
  C155     1.0000 0.95983  0.69997  0.92240  Biso   1.000  C
  C156     1.0000 0.92363  0.62207  0.91488  Biso   1.000  C
  H113     1.0000 0.93413  0.61317  0.90167  Biso   1.000  H
  C157     1.0000 0.87203  0.55717  0.92668  Biso   1.000  C
  H114     1.0000 0.84733  0.50397  0.92157  Biso   1.000  H
  C158     1.0000 0.02043  0.84527  0.91272  Biso   1.000  C
  H115     1.0000 0.96923  0.84397  0.91067  Biso   1.000  H
  H116     1.0000 0.06013  0.88187  0.90307  Biso   1.000  H
  H117     1.0000 0.03993  0.86427  0.92617  Biso   1.000  H
  C159     1.0000 0.20373  0.70707  0.85682  Biso   1.000  C
  C160     1.0000 0.15083  0.72117  0.87009  Biso   1.000  C
  C161     1.0000 0.10283  0.74907  0.86363  Biso   1.000  C
  H118     1.0000 0.10323  0.76087  0.84997  Biso   1.000  H
  C162     1.0000 0.05293  0.76127  0.87631  Biso   1.000  C
  H119     1.0000 0.01673  0.77727  0.87127  Biso   1.000  H
  C163     1.0000 0.05683  0.74997  0.89587  Biso   1.000  C
  C164     1.0000 0.10523  0.71997  0.90280  Biso   1.000  C
  H120     1.0000 0.10393  0.70557  0.91627  Biso   1.000  H
  C165     1.0000 0.15343  0.71227  0.88984  Biso   1.000  C
  H121     1.0000 0.19213  0.69967  0.89487  Biso   1.000  H
  C166     1.0000 0.36053  0.83087  0.79651  Biso   1.000  C
  C167     1.0000 0.36793  0.89927  0.78392  Biso   1.000  C
  C168     1.0000 0.44399  0.95753  0.77750  Biso   1.000  C
  H122     1.0000 0.49023  0.95527  0.78157  Biso   1.000  H
  C169     1.0000 0.45233  0.01907  0.76511  Biso   1.000  C
  H123     1.0000 0.50423  0.05887  0.76077  Biso   1.000  H
  C170     1.0000 0.38463  0.02237  0.75914  Biso   1.000  C
  C171     1.0000 0.30863  0.96417  0.76556  Biso   1.000  C
  H124     1.0000 0.26233  0.96637  0.76147  Biso   1.000  H
  C172     1.0000 0.30028  0.90252  0.77795  Biso   1.000  C
  H125     1.0000 0.24833  0.86277  0.78237  Biso   1.000  H
  C173     1.0000 0.47173  0.15677  0.74707  Biso   1.000  C
  H126     1.0000 0.50633  0.15437  0.75737  Biso   1.000  H
  H127     1.0000 0.46323  0.20227  0.74957  Biso   1.000  H
  H128     1.0000 0.49753  0.16367  0.73417  Biso   1.000  H
  C174     1.0000 0.16273  0.03747  0.68738  Biso   1.000  C
  C175     1.0000 0.22103  0.04857  0.70349  Biso   1.000  C
  C176     1.0000 0.26833  0.12407  0.71191  Biso   1.000  C
  H129     1.0000 0.26203  0.16807  0.70787  Biso   1.000  H
  C177     1.0000 0.32493  0.13537  0.72624  Biso   1.000  C
  H130     1.0000 0.35733  0.18707  0.73197  Biso   1.000  H
  C178     1.0000 0.33423  0.07107  0.73217  Biso   1.000  C
  C179     1.0000 0.28693  0.99547  0.72375  Biso   1.000  C
  H131     1.0000 0.29323  0.95147  0.72777  Biso   1.000  H
  C180     1.0000 0.23023  0.98417  0.70941  Biso   1.000  C
  H132     1.0000 0.19793  0.93257  0.70367  Biso   1.000  H
  Zn13     1.0000 0.22870  0.64351  0.33171  Biso   1.000  Zn
  Zn14     1.0000 0.98369  0.89692  0.15076  Biso   1.000  Zn
  O49      1.0000 0.23730  0.66240  0.28323  Biso   1.000  O
  O50      1.0000 0.15510  0.61820  0.30995  Biso   1.000  O
  O51      1.0000 0.97710  0.89660  0.19820  Biso   1.000  O
  O52      1.0000 0.96250  0.81890  0.17224  Biso   1.000  O
  O53      1.0000 0.89120  0.84700  0.13365  Biso   1.000  O
  O54      1.0000 0.83400  0.92370  0.13615  Biso   1.000  O
  O55      1.0000 0.70260  0.48310  0.01581  Biso   1.000  O
  O56      1.0000 0.56770  0.39790  0.01412  Biso   1.000  O
  N13      1.0000 0.90220  0.57750  0.24347  Biso   1.000  N
  N14      1.0000 0.58390  0.64560  0.08044  Biso   1.000  N
  C181     1.0000 0.16880  0.63370  0.29190  Biso   1.000  C
  C182     1.0000 0.09650  0.61980  0.27933  Biso   1.000  C
  C183     1.0000 0.01870  0.57820  0.28684  Biso   1.000  C
  H133     1.0000 0.00980  0.55880  0.30000  Biso   1.000  H
  C184     1.0000 0.95380  0.56490  0.27505  Biso   1.000  C
  H134     1.0000 0.90060  0.53640  0.28020  Biso   1.000  H
  C185     1.0000 0.96670  0.59320  0.25573  Biso   1.000  C
  C186     1.0000 0.04460  0.63490  0.24821  Biso   1.000  C
  H135     1.0000 0.05350  0.65430  0.23500  Biso   1.000  H
  C187     1.0000 0.10950  0.64820  0.26001  Biso   1.000  C
  H136     1.0000 0.16270  0.67670  0.25490  Biso   1.000  H
  C188     1.0000 0.82140  0.50850  0.24605  Biso   1.000  C
  H137     1.0000 0.82270  0.45860  0.24400  Biso   1.000  H
  H138     1.0000 0.78480  0.51160  0.23640  Biso   1.000  H
  H139     1.0000 0.80240  0.50900  0.25950  Biso   1.000  H
  C189     1.0000 0.95960  0.83000  0.19015  Biso   1.000  C
  C190     1.0000 0.94550  0.76300  0.20342  Biso   1.000  C
  C191     1.0000 0.91760  0.68710  0.19696  Biso   1.000  C
  H140     1.0000 0.90580  0.67570  0.18330  Biso   1.000  H
  C192     1.0000 0.90540  0.62500  0.20964  Biso   1.000  C
  H141     1.0000 0.88940  0.57280  0.20460  Biso   1.000  H
  C193     1.0000 0.91670  0.64020  0.22920  Biso   1.000  C
  C194     1.0000 0.94670  0.71860  0.23613  Biso   1.000  C
  H142     1.0000 0.96110  0.73170  0.24960  Biso   1.000  H
  C195     1.0000 0.95440  0.77450  0.22317  Biso   1.000  C
  H143     1.0000 0.96700  0.82580  0.22820  Biso   1.000  H
  C196     1.0000 0.83580  0.86300  0.12984  Biso   1.000  C
  C197     1.0000 0.76740  0.80200  0.11725  Biso   1.000  C
  C198     1.0000 0.70914  0.81980  0.11083  Biso   1.000  C
  H144     1.0000 0.71140  0.86830  0.11490  Biso   1.000  H
  C199     1.0000 0.64760  0.76660  0.09844  Biso   1.000  C
  H145     1.0000 0.60780  0.77870  0.09410  Biso   1.000  H
  C200     1.0000 0.64430  0.69560  0.09247  Biso   1.000  C
  C201     1.0000 0.70250  0.67780  0.09889  Biso   1.000  C
  H146     1.0000 0.70030  0.62930  0.09480  Biso   1.000  H
  C202     1.0000 0.76415  0.73110  0.11128  Biso   1.000  C
  H147     1.0000 0.80390  0.71890  0.11570  Biso   1.000  H
  C203     1.0000 0.50990  0.64830  0.08040  Biso   1.000  C
  H148     1.0000 0.51230  0.68530  0.09070  Biso   1.000  H
  H149     1.0000 0.46440  0.59430  0.08290  Biso   1.000  H
  H150     1.0000 0.50300  0.66720  0.06750  Biso   1.000  H
  C204     1.0000 0.62920  0.45860  0.02071  Biso   1.000  C
  C205     1.0000 0.61810  0.50580  0.03682  Biso   1.000  C
  C206     1.0000 0.54260  0.47760  0.04524  Biso   1.000  C
  H151     1.0000 0.49860  0.42730  0.04120  Biso   1.000  H
  C207     1.0000 0.53130  0.52290  0.05957  Biso   1.000  C
  H152     1.0000 0.47960  0.50360  0.06530  Biso   1.000  H
  C208     1.0000 0.59560  0.59650  0.06550  Biso   1.000  C
  C209     1.0000 0.67120  0.62480  0.05708  Biso   1.000  C
  H153     1.0000 0.71520  0.67510  0.06110  Biso   1.000  H
  C210     1.0000 0.68250  0.57940  0.04274  Biso   1.000  C
  H154     1.0000 0.73410  0.59870  0.03700  Biso   1.000  H
  Zn15     1.0000 0.89537  0.97684  0.66504  Biso   1.000  Zn
  Zn16     1.0000 0.65036  0.23025  0.48409  Biso   1.000  Zn
  O57      1.0000 0.90397  0.99573  0.61656  Biso   1.000  O
  O58      1.0000 0.82177  0.95153  0.64328  Biso   1.000  O
  O59      1.0000 0.64377  0.22993  0.53153  Biso   1.000  O
  O60      1.0000 0.62917  0.15223  0.50557  Biso   1.000  O
  O61      1.0000 0.55787  0.18033  0.46698  Biso   1.000  O
  O62      1.0000 0.50067  0.25703  0.46948  Biso   1.000  O
  O63      1.0000 0.36927  0.81643  0.34914  Biso   1.000  O
  O64      1.0000 0.23437  0.73123  0.34745  Biso   1.000  O
  N15      1.0000 0.56887  0.91083  0.57680  Biso   1.000  N
  N16      1.0000 0.25057  0.97893  0.41377  Biso   1.000  N
  C211     1.0000 0.83547  0.96703  0.62523  Biso   1.000  C
  C212     1.0000 0.76317  0.95313  0.61266  Biso   1.000  C
  C213     1.0000 0.68537  0.91153  0.62017  Biso   1.000  C
  H155     1.0000 0.67647  0.89213  0.63333  Biso   1.000  H
  C214     1.0000 0.62047  0.89823  0.60838  Biso   1.000  C
  H156     1.0000 0.56727  0.86973  0.61353  Biso   1.000  H
  C215     1.0000 0.63337  0.92653  0.58906  Biso   1.000  C
  C216     1.0000 0.71127  0.96823  0.58154  Biso   1.000  C
  H157     1.0000 0.72017  0.98763  0.56833  Biso   1.000  H
  C217     1.0000 0.77617  0.98153  0.59334  Biso   1.000  C
  H158     1.0000 0.82937  0.01003  0.58823  Biso   1.000  H
  C218     1.0000 0.48807  0.84183  0.57938  Biso   1.000  C
  H159     1.0000 0.48937  0.79193  0.57733  Biso   1.000  H
  H160     1.0000 0.45147  0.84493  0.56973  Biso   1.000  H
  H161     1.0000 0.46907  0.84233  0.59283  Biso   1.000  H
  C219     1.0000 0.62627  0.16333  0.52348  Biso   1.000  C
  C220     1.0000 0.61217  0.09633  0.53675  Biso   1.000  C
  C221     1.0000 0.58427  0.02043  0.53029  Biso   1.000  C
  H162     1.0000 0.57247  0.00903  0.51663  Biso   1.000  H
  C222     1.0000 0.57207  0.95833  0.54297  Biso   1.000  C
  H163     1.0000 0.55607  0.90613  0.53793  Biso   1.000  H
  C223     1.0000 0.58337  0.97353  0.56253  Biso   1.000  C
  C224     1.0000 0.61337  0.05193  0.56946  Biso   1.000  C
  H164     1.0000 0.62777  0.06503  0.58293  Biso   1.000  H
  C225     1.0000 0.62107  0.10783  0.55650  Biso   1.000  C
  H165     1.0000 0.63367  0.15913  0.56153  Biso   1.000  H
  C226     1.0000 0.50247  0.19633  0.46317  Biso   1.000  C
  C227     1.0000 0.43407  0.13533  0.45058  Biso   1.000  C
  C228     1.0000 0.37581  0.15313  0.44416  Biso   1.000  C
  H166     1.0000 0.37807  0.20163  0.44823  Biso   1.000  H
  C229     1.0000 0.31427  0.09993  0.43177  Biso   1.000  C
  H167     1.0000 0.27447  0.11203  0.42743  Biso   1.000  H
  C230     1.0000 0.31097  0.02893  0.42580  Biso   1.000  C
  C231     1.0000 0.36917  0.01113  0.43222  Biso   1.000  C
  H168     1.0000 0.36697  0.96263  0.42813  Biso   1.000  H
  C232     1.0000 0.43082  0.06443  0.44461  Biso   1.000  C
  H169     1.0000 0.47057  0.05223  0.44903  Biso   1.000  H
  C233     1.0000 0.17657  0.98163  0.41373  Biso   1.000  C
  H170     1.0000 0.17897  0.01863  0.42403  Biso   1.000  H
  H171     1.0000 0.13107  0.92763  0.41623  Biso   1.000  H
  H172     1.0000 0.16967  0.00053  0.40083  Biso   1.000  H
  C234     1.0000 0.29587  0.79193  0.35404  Biso   1.000  C
  C235     1.0000 0.28477  0.83913  0.37015  Biso   1.000  C
  C236     1.0000 0.20927  0.81093  0.37857  Biso   1.000  C
  H173     1.0000 0.16527  0.76063  0.37453  Biso   1.000  H
  C237     1.0000 0.19797  0.85623  0.39290  Biso   1.000  C
  H174     1.0000 0.14627  0.83693  0.39863  Biso   1.000  H
  C238     1.0000 0.26227  0.92983  0.39883  Biso   1.000  C
  C239     1.0000 0.33787  0.95813  0.39041  Biso   1.000  C
  H175     1.0000 0.38187  0.00843  0.39443  Biso   1.000  H
  C240     1.0000 0.34917  0.91273  0.37607  Biso   1.000  C
  H176     1.0000 0.40077  0.93203  0.37033  Biso   1.000  H
  Zn17     1.0000 0.56203  0.31018  0.99837  Biso   1.000  Zn
  Zn18     1.0000 0.31702  0.56359  0.81742  Biso   1.000  Zn
  O65      1.0000 0.57063  0.32907  0.94990  Biso   1.000  O
  O66      1.0000 0.48843  0.28487  0.97662  Biso   1.000  O
  O67      1.0000 0.31043  0.56327  0.86487  Biso   1.000  O
  O68      1.0000 0.29583  0.48557  0.83891  Biso   1.000  O
  O69      1.0000 0.22453  0.51367  0.80032  Biso   1.000  O
  O70      1.0000 0.16733  0.59037  0.80282  Biso   1.000  O
  O71      1.0000 0.03593  0.14977  0.68248  Biso   1.000  O
  O72      1.0000 0.90103  0.06457  0.68079  Biso   1.000  O
  N17      1.0000 0.23553  0.24417  0.91014  Biso   1.000  N
  N18      1.0000 0.91723  0.31227  0.74711  Biso   1.000  N
  C241     1.0000 0.50213  0.30037  0.95857  Biso   1.000  C
  C242     1.0000 0.42983  0.28647  0.94600  Biso   1.000  C
  C243     1.0000 0.35203  0.24487  0.95351  Biso   1.000  C
  H177     1.0000 0.34313  0.22547  0.96667  Biso   1.000  H
  C244     1.0000 0.28713  0.23157  0.94172  Biso   1.000  C
  H178     1.0000 0.23393  0.20307  0.94687  Biso   1.000  H
  C245     1.0000 0.30003  0.25987  0.92240  Biso   1.000  C
  C246     1.0000 0.37793  0.30157  0.91488  Biso   1.000  C
  H179     1.0000 0.38683  0.32097  0.90167  Biso   1.000  H
  C247     1.0000 0.44283  0.31487  0.92668  Biso   1.000  C
  H180     1.0000 0.49603  0.34337  0.92157  Biso   1.000  H
  C248     1.0000 0.15473  0.17517  0.91272  Biso   1.000  C
  H181     1.0000 0.15603  0.12527  0.91067  Biso   1.000  H
  H182     1.0000 0.11813  0.17827  0.90307  Biso   1.000  H
  H183     1.0000 0.13573  0.17567  0.92617  Biso   1.000  H
  C249     1.0000 0.29293  0.49667  0.85682  Biso   1.000  C
  C250     1.0000 0.27883  0.42967  0.87009  Biso   1.000  C
  C251     1.0000 0.25093  0.35377  0.86363  Biso   1.000  C
  H184     1.0000 0.23913  0.34237  0.84997  Biso   1.000  H
  C252     1.0000 0.23873  0.29167  0.87631  Biso   1.000  C
  H185     1.0000 0.22273  0.23947  0.87127  Biso   1.000  H
  C253     1.0000 0.25003  0.30687  0.89587  Biso   1.000  C
  C254     1.0000 0.28003  0.38527  0.90280  Biso   1.000  C
  H186     1.0000 0.29443  0.39837  0.91627  Biso   1.000  H
  C255     1.0000 0.28773  0.44117  0.88984  Biso   1.000  C
  H187     1.0000 0.30033  0.49247  0.89487  Biso   1.000  H
  C256     1.0000 0.16913  0.52967  0.79651  Biso   1.000  C
  C257     1.0000 0.10073  0.46867  0.78392  Biso   1.000  C
  C258     1.0000 0.04247  0.48647  0.77750  Biso   1.000  C
  H188     1.0000 0.04473  0.53497  0.78157  Biso   1.000  H
  C259     1.0000 0.98093  0.43327  0.76511  Biso   1.000  C
  H189     1.0000 0.94113  0.44537  0.76077  Biso   1.000  H
  C260     1.0000 0.97763  0.36227  0.75914  Biso   1.000  C
  C261     1.0000 0.03583  0.34447  0.76556  Biso   1.000  C
  H190     1.0000 0.03363  0.29597  0.76147  Biso   1.000  H
  C262     1.0000 0.09748  0.39777  0.77795  Biso   1.000  C
  H191     1.0000 0.13723  0.38557  0.78237  Biso   1.000  H
  C263     1.0000 0.84323  0.31497  0.74707  Biso   1.000  C
  H192     1.0000 0.84563  0.35197  0.75737  Biso   1.000  H
  H193     1.0000 0.79773  0.26097  0.74957  Biso   1.000  H
  H194     1.0000 0.83633  0.33387  0.73417  Biso   1.000  H
  C264     1.0000 0.96253  0.12527  0.68738  Biso   1.000  C
  C265     1.0000 0.95143  0.17247  0.70349  Biso   1.000  C
  C266     1.0000 0.87593  0.14427  0.71191  Biso   1.000  C
  H195     1.0000 0.83193  0.09397  0.70787  Biso   1.000  H
  C267     1.0000 0.86463  0.18957  0.72624  Biso   1.000  C
  H196     1.0000 0.81293  0.17027  0.73197  Biso   1.000  H
  C268     1.0000 0.92893  0.26317  0.73217  Biso   1.000  C
  C269     1.0000 0.00453  0.29147  0.72375  Biso   1.000  C
  H197     1.0000 0.04853  0.34177  0.72777  Biso   1.000  H
  C270     1.0000 0.01583  0.24607  0.70941  Biso   1.000  C
  H198     1.0000 0.06743  0.26537  0.70367  Biso   1.000  H
  Zn19     1.0000 0.33333  0.66667  0.29348  Biso   1.000  Zn
  O73      1.0000 0.33333  0.66667  0.32189  Biso   1.000  O
  Zn20     1.0000 0.00000  0.00000  0.62681  Biso   1.000  Zn
  O74      1.0000 0.00000  0.00000  0.65522  Biso   1.000  O
  Zn21     1.0000 0.66667  0.33333  0.96014  Biso   1.000  Zn
  O75      1.0000 0.66667  0.33333  0.98856  Biso   1.000  O
  Zn22     1.0000 0.00000  0.00000  0.18845  Biso   1.000  Zn
  O76      1.0000 0.00000  0.00000  0.15984  Biso   1.000  O
  Zn23     1.0000 0.66667  0.33333  0.52179  Biso   1.000  Zn
  O77      1.0000 0.66667  0.33333  0.49317  Biso   1.000  O
  Zn24     1.0000 0.33333  0.66667  0.85512  Biso   1.000  Zn
  O78      1.0000 0.33333  0.66667  0.82651  Biso   1.000  O
  Zn25     1.0000 0.58519  0.35649  0.66829  Biso   1.000  Zn
  Zn26     1.0000 0.08677  0.10308  0.84924  Biso   1.000  Zn
  O79      1.0000 0.57490  0.33760  0.71677  Biso   1.000  O
  O80      1.0000 0.53690  0.38180  0.69005  Biso   1.000  O
  O81      1.0000 0.08050  0.10340  0.80180  Biso   1.000  O
  O82      1.0000 0.14360  0.18110  0.82776  Biso   1.000  O
  O83      1.0000 0.04420  0.15300  0.86635  Biso   1.000  O
  O84      1.0000 0.91030  0.07630  0.86385  Biso   1.000  O
  O85      1.0000 0.21950  0.51690  0.98419  Biso   1.000  O
  O86      1.0000 0.16980  0.60210  0.98588  Biso   1.000  O
  N19      1.0000 0.32470  0.42250  0.75653  Biso   1.000  N
  N20      1.0000 0.93830  0.35440  0.91956  Biso   1.000  N
  C271     1.0000 0.53510  0.36630  0.70810  Biso   1.000  C
  C272     1.0000 0.47670  0.38020  0.72067  Biso   1.000  C
  C273     1.0000 0.44050  0.42180  0.71316  Biso   1.000  C
  H199     1.0000 0.45100  0.44120  0.70000  Biso   1.000  H
  C274     1.0000 0.38890  0.43510  0.72495  Biso   1.000  C
  H200     1.0000 0.36420  0.46360  0.71980  Biso   1.000  H
  C275     1.0000 0.37350  0.40680  0.74427  Biso   1.000  C
  C276     1.0000 0.40970  0.36510  0.75179  Biso   1.000  C
  H201     1.0000 0.39920  0.34570  0.76500  Biso   1.000  H
  C277     1.0000 0.46130  0.35180  0.73999  Biso   1.000  C
  H202     1.0000 0.48600  0.32330  0.74510  Biso   1.000  H
  C278     1.0000 0.31290  0.49150  0.75395  Biso   1.000  C
  H203     1.0000 0.36410  0.54140  0.75600  Biso   1.000  H
  H204     1.0000 0.27320  0.48840  0.76360  Biso   1.000  H
  H205     1.0000 0.29340  0.49100  0.74050  Biso   1.000  H
  C279     1.0000 0.12960  0.17000  0.80985  Biso   1.000  C
  C280     1.0000 0.18250  0.23700  0.79658  Biso   1.000  C
  C281     1.0000 0.23050  0.31290  0.80304  Biso   1.000  C
  H206     1.0000 0.23010  0.32430  0.81670  Biso   1.000  H
  C282     1.0000 0.28040  0.37500  0.79036  Biso   1.000  C
  H207     1.0000 0.31660  0.42720  0.79540  Biso   1.000  H
  C283     1.0000 0.27650  0.35980  0.77080  Biso   1.000  C
  C284     1.0000 0.22810  0.28140  0.76387  Biso   1.000  C
  H208     1.0000 0.22940  0.26830  0.75040  Biso   1.000  H
  C285     1.0000 0.17990  0.22550  0.77683  Biso   1.000  C
  H209     1.0000 0.14120  0.17420  0.77180  Biso   1.000  H
  C286     1.0000 0.97280  0.13700  0.87016  Biso   1.000  C
  C287     1.0000 0.96540  0.19800  0.88275  Biso   1.000  C
  C288     1.0000 0.88934  0.18020  0.88917  Biso   1.000  C
  H210     1.0000 0.84310  0.13170  0.88510  Biso   1.000  H
  C289     1.0000 0.88100  0.23340  0.90156  Biso   1.000  C
  H211     1.0000 0.82910  0.22130  0.90590  Biso   1.000  H
  C290     1.0000 0.94870  0.30440  0.90753  Biso   1.000  C
  C291     1.0000 0.02470  0.32220  0.90111  Biso   1.000  C
  H212     1.0000 0.07100  0.37070  0.90520  Biso   1.000  H
  C292     1.0000 0.03305  0.26890  0.88872  Biso   1.000  C
  H213     1.0000 0.08500  0.28110  0.88430  Biso   1.000  H
  C293     1.0000 0.86160  0.35170  0.91960  Biso   1.000  C
  H214     1.0000 0.82700  0.31470  0.90930  Biso   1.000  H
  H215     1.0000 0.87010  0.40570  0.91710  Biso   1.000  H
  H216     1.0000 0.83580  0.33280  0.93250  Biso   1.000  H
  C294     1.0000 0.17060  0.54140  0.97929  Biso   1.000  C
  C295     1.0000 0.11230  0.49420  0.96318  Biso   1.000  C
  C296     1.0000 0.06500  0.52240  0.95476  Biso   1.000  C
  H217     1.0000 0.07130  0.57270  0.95880  Biso   1.000  H
  C297     1.0000 0.00840  0.47710  0.94043  Biso   1.000  C
  H218     1.0000 0.97600  0.49640  0.93470  Biso   1.000  H
  C298     1.0000 0.99910  0.40350  0.93450  Biso   1.000  C
  C299     1.0000 0.04640  0.37520  0.94292  Biso   1.000  C
  H219     1.0000 0.04010  0.32490  0.93890  Biso   1.000  H
  C300     1.0000 0.10310  0.42060  0.95726  Biso   1.000  C
  H220     1.0000 0.13540  0.40130  0.96300  Biso   1.000  H
  Zn27     1.0000 0.25186  0.68982  0.00163  Biso   1.000  Zn
  Zn28     1.0000 0.75344  0.43641  0.18258  Biso   1.000  Zn
  O87      1.0000 0.24157  0.67093  0.05010  Biso   1.000  O
  O88      1.0000 0.20357  0.71513  0.02338  Biso   1.000  O
  O89      1.0000 0.74717  0.43673  0.13513  Biso   1.000  O
  O90      1.0000 0.81027  0.51443  0.16109  Biso   1.000  O
  O91      1.0000 0.71087  0.48633  0.19968  Biso   1.000  O
  O92      1.0000 0.57697  0.40963  0.19718  Biso   1.000  O
  O93      1.0000 0.88617  0.85023  0.31752  Biso   1.000  O
  O94      1.0000 0.83647  0.93543  0.31921  Biso   1.000  O
  N21      1.0000 0.99137  0.75583  0.08986  Biso   1.000  N
  N22      1.0000 0.60497  0.68773  0.25289  Biso   1.000  N
  C301     1.0000 0.20177  0.69963  0.04143  Biso   1.000  C
  C302     1.0000 0.14337  0.71353  0.05400  Biso   1.000  C
  C303     1.0000 0.10717  0.75513  0.04649  Biso   1.000  C
  H221     1.0000 0.11767  0.77453  0.03333  Biso   1.000  H
  C304     1.0000 0.05557  0.76843  0.05828  Biso   1.000  C
  H222     1.0000 0.03087  0.79693  0.05313  Biso   1.000  H
  C305     1.0000 0.04017  0.74013  0.07760  Biso   1.000  C
  C306     1.0000 0.07637  0.69843  0.08512  Biso   1.000  C
  H223     1.0000 0.06587  0.67903  0.09833  Biso   1.000  H
  C307     1.0000 0.12797  0.68513  0.07332  Biso   1.000  C
  H224     1.0000 0.15267  0.65663  0.07843  Biso   1.000  H
  C308     1.0000 0.97957  0.82483  0.08728  Biso   1.000  C
  H225     1.0000 0.03077  0.87473  0.08933  Biso   1.000  H
  H226     1.0000 0.93987  0.82173  0.09693  Biso   1.000  H
  H227     1.0000 0.96007  0.82433  0.07383  Biso   1.000  H
  C309     1.0000 0.79627  0.50333  0.14318  Biso   1.000  C
  C310     1.0000 0.84917  0.57033  0.12991  Biso   1.000  C
  C311     1.0000 0.89717  0.64623  0.13637  Biso   1.000  C
  H228     1.0000 0.89677  0.65763  0.15003  Biso   1.000  H
  C312     1.0000 0.94707  0.70833  0.12369  Biso   1.000  C
  H229     1.0000 0.98327  0.76053  0.12873  Biso   1.000  H
  C313     1.0000 0.94317  0.69313  0.10413  Biso   1.000  C
  C314     1.0000 0.89477  0.61473  0.09720  Biso   1.000  C
  H230     1.0000 0.89607  0.60163  0.08373  Biso   1.000  H
  C315     1.0000 0.84657  0.55883  0.11016  Biso   1.000  C
  H231     1.0000 0.80787  0.50753  0.10513  Biso   1.000  H
  C316     1.0000 0.63947  0.47033  0.20349  Biso   1.000  C
  C317     1.0000 0.63207  0.53133  0.21608  Biso   1.000  C
  C318     1.0000 0.55601  0.51353  0.22250  Biso   1.000  C
  H232     1.0000 0.50977  0.46503  0.21843  Biso   1.000  H
  C319     1.0000 0.54767  0.56673  0.23489  Biso   1.000  C
  H233     1.0000 0.49577  0.55463  0.23923  Biso   1.000  H
  C320     1.0000 0.61537  0.63773  0.24086  Biso   1.000  C
  C321     1.0000 0.69137  0.65553  0.23444  Biso   1.000  C
  H234     1.0000 0.73767  0.70403  0.23853  Biso   1.000  H
  C322     1.0000 0.69972  0.60223  0.22205  Biso   1.000  C
  H235     1.0000 0.75167  0.61443  0.21763  Biso   1.000  H
  C323     1.0000 0.52827  0.68503  0.25293  Biso   1.000  C
  H236     1.0000 0.49367  0.64803  0.24263  Biso   1.000  H
  H237     1.0000 0.53677  0.73903  0.25043  Biso   1.000  H
  H238     1.0000 0.50247  0.66613  0.26583  Biso   1.000  H
  C324     1.0000 0.83727  0.87473  0.31262  Biso   1.000  C
  C325     1.0000 0.77897  0.82753  0.29651  Biso   1.000  C
  C326     1.0000 0.73167  0.85573  0.28809  Biso   1.000  C
  H239     1.0000 0.73797  0.90603  0.29213  Biso   1.000  H
  C327     1.0000 0.67507  0.81043  0.27376  Biso   1.000  C
  H240     1.0000 0.64267  0.82973  0.26803  Biso   1.000  H
  C328     1.0000 0.66577  0.73683  0.26783  Biso   1.000  C
  C329     1.0000 0.71307  0.70853  0.27625  Biso   1.000  C
  H241     1.0000 0.70677  0.65823  0.27223  Biso   1.000  H
  C330     1.0000 0.76977  0.75393  0.29059  Biso   1.000  C
  H242     1.0000 0.80207  0.73463  0.29633  Biso   1.000  H
  Zn29     1.0000 0.91852  0.02316  0.33496  Biso   1.000  Zn
  Zn30     1.0000 0.42010  0.76975  0.51591  Biso   1.000  Zn
  O95      1.0000 0.90823  0.00427  0.38344  Biso   1.000  O
  O96      1.0000 0.87023  0.04847  0.35672  Biso   1.000  O
  O97      1.0000 0.41383  0.77007  0.46847  Biso   1.000  O
  O98      1.0000 0.47693  0.84777  0.49443  Biso   1.000  O
  O99      1.0000 0.37753  0.81967  0.53302  Biso   1.000  O
  O100     1.0000 0.24363  0.74297  0.53052  Biso   1.000  O
  O101     1.0000 0.55283  0.18357  0.65086  Biso   1.000  O
  O102     1.0000 0.50313  0.26877  0.65255  Biso   1.000  O
  N23      1.0000 0.65803  0.08917  0.42320  Biso   1.000  N
  N24      1.0000 0.27163  0.02107  0.58623  Biso   1.000  N
  C331     1.0000 0.86843  0.03297  0.37477  Biso   1.000  C
  C332     1.0000 0.81003  0.04687  0.38734  Biso   1.000  C
  C333     1.0000 0.77383  0.08847  0.37983  Biso   1.000  C
  H243     1.0000 0.78433  0.10787  0.36667  Biso   1.000  H
  C334     1.0000 0.72223  0.10177  0.39162  Biso   1.000  C
  H244     1.0000 0.69753  0.13027  0.38647  Biso   1.000  H
  C335     1.0000 0.70683  0.07347  0.41094  Biso   1.000  C
  C336     1.0000 0.74303  0.03177  0.41846  Biso   1.000  C
  H245     1.0000 0.73253  0.01237  0.43167  Biso   1.000  H
  C337     1.0000 0.79463  0.01847  0.40666  Biso   1.000  C
  H246     1.0000 0.81933  0.98997  0.41177  Biso   1.000  H
  C338     1.0000 0.64623  0.15817  0.42062  Biso   1.000  C
  H247     1.0000 0.69743  0.20807  0.42267  Biso   1.000  H
  H248     1.0000 0.60653  0.15507  0.43027  Biso   1.000  H
  H249     1.0000 0.62673  0.15767  0.40717  Biso   1.000  H
  C339     1.0000 0.46293  0.83667  0.47652  Biso   1.000  C
  C340     1.0000 0.51583  0.90367  0.46325  Biso   1.000  C
  C341     1.0000 0.56383  0.97957  0.46971  Biso   1.000  C
  H250     1.0000 0.56343  0.99097  0.48337  Biso   1.000  H
  C342     1.0000 0.61373  0.04167  0.45703  Biso   1.000  C
  H251     1.0000 0.64993  0.09387  0.46207  Biso   1.000  H
  C343     1.0000 0.60983  0.02647  0.43747  Biso   1.000  C
  C344     1.0000 0.56143  0.94807  0.43054  Biso   1.000  C
  H252     1.0000 0.56273  0.93497  0.41707  Biso   1.000  H
  C345     1.0000 0.51323  0.89217  0.44350  Biso   1.000  C
  H253     1.0000 0.47453  0.84087  0.43847  Biso   1.000  H
  C346     1.0000 0.30613  0.80367  0.53683  Biso   1.000  C
  C347     1.0000 0.29873  0.86467  0.54942  Biso   1.000  C
  C348     1.0000 0.22267  0.84687  0.55584  Biso   1.000  C
  H254     1.0000 0.17643  0.79837  0.55177  Biso   1.000  H
  C349     1.0000 0.21433  0.90007  0.56823  Biso   1.000  C
  H255     1.0000 0.16243  0.88797  0.57257  Biso   1.000  H
  C350     1.0000 0.28203  0.97107  0.57420  Biso   1.000  C
  C351     1.0000 0.35803  0.98887  0.56778  Biso   1.000  C
  H256     1.0000 0.40433  0.03737  0.57187  Biso   1.000  H
  C352     1.0000 0.36638  0.93557  0.55539  Biso   1.000  C
  H257     1.0000 0.41833  0.94777  0.55097  Biso   1.000  H
  C353     1.0000 0.19493  0.01837  0.58627  Biso   1.000  C
  H258     1.0000 0.16033  0.98137  0.57597  Biso   1.000  H
  H259     1.0000 0.20343  0.07237  0.58377  Biso   1.000  H
  H260     1.0000 0.16913  0.99947  0.59917  Biso   1.000  H
  C354     1.0000 0.50393  0.20807  0.64596  Biso   1.000  C
  C355     1.0000 0.44563  0.16087  0.62985  Biso   1.000  C
  C356     1.0000 0.39833  0.18907  0.62143  Biso   1.000  C
  H261     1.0000 0.40463  0.23937  0.62547  Biso   1.000  H
  C357     1.0000 0.34173  0.14377  0.60710  Biso   1.000  C
  H262     1.0000 0.30933  0.16307  0.60137  Biso   1.000  H
  C358     1.0000 0.33243  0.07017  0.60117  Biso   1.000  C
  C359     1.0000 0.37973  0.04187  0.60959  Biso   1.000  C
  H263     1.0000 0.37343  0.99157  0.60557  Biso   1.000  H
  C360     1.0000 0.43643  0.08727  0.62393  Biso   1.000  C
  H264     1.0000 0.46873  0.06797  0.62967  Biso   1.000  H
  Zn31     1.0000 0.77130  0.41481  0.66829  Biso   1.000  Zn
  Zn32     1.0000 0.01631  0.91323  0.84924  Biso   1.000  Zn
  O103     1.0000 0.76270  0.42510  0.71677  Biso   1.000  O
  O104     1.0000 0.84490  0.46310  0.69005  Biso   1.000  O
  O105     1.0000 0.02290  0.91950  0.80180  Biso   1.000  O
  O106     1.0000 0.03750  0.85640  0.82776  Biso   1.000  O
  O107     1.0000 0.10880  0.95580  0.86635  Biso   1.000  O
  O108     1.0000 0.16600  0.08970  0.86385  Biso   1.000  O
  O109     1.0000 0.29740  0.78050  0.98419  Biso   1.000  O
  O110     1.0000 0.43230  0.83020  0.98588  Biso   1.000  O
  N25      1.0000 0.09780  0.67530  0.75653  Biso   1.000  N
  N26      1.0000 0.41610  0.06170  0.91956  Biso   1.000  N
  C361     1.0000 0.83120  0.46490  0.70810  Biso   1.000  C
  C362     1.0000 0.90350  0.52330  0.72067  Biso   1.000  C
  C363     1.0000 0.98130  0.55950  0.71316  Biso   1.000  C
  H265     1.0000 0.99020  0.54900  0.70000  Biso   1.000  H
  C364     1.0000 0.04620  0.61110  0.72495  Biso   1.000  C
  H266     1.0000 0.09940  0.63580  0.71980  Biso   1.000  H
  C365     1.0000 0.03330  0.62650  0.74427  Biso   1.000  C
  C366     1.0000 0.95540  0.59030  0.75179  Biso   1.000  C
  H267     1.0000 0.94650  0.60080  0.76500  Biso   1.000  H
  C367     1.0000 0.89050  0.53870  0.73999  Biso   1.000  C
  H268     1.0000 0.83730  0.51400  0.74510  Biso   1.000  H
  C368     1.0000 0.17860  0.68710  0.75395  Biso   1.000  C
  H269     1.0000 0.17730  0.63590  0.75600  Biso   1.000  H
  H270     1.0000 0.21520  0.72680  0.76360  Biso   1.000  H
  H271     1.0000 0.19760  0.70660  0.74050  Biso   1.000  H
  C369     1.0000 0.04040  0.87040  0.80985  Biso   1.000  C
  C370     1.0000 0.05450  0.81750  0.79658  Biso   1.000  C
  C371     1.0000 0.08240  0.76950  0.80304  Biso   1.000  C
  H272     1.0000 0.09420  0.76990  0.81670  Biso   1.000  H
  C372     1.0000 0.09460  0.71960  0.79036  Biso   1.000  C
  H273     1.0000 0.11060  0.68340  0.79540  Biso   1.000  H
  C373     1.0000 0.08330  0.72350  0.77080  Biso   1.000  C
  C374     1.0000 0.05330  0.77190  0.76387  Biso   1.000  C
  H274     1.0000 0.03890  0.77060  0.75040  Biso   1.000  H
  C375     1.0000 0.04560  0.82010  0.77683  Biso   1.000  C
  H275     1.0000 0.03300  0.85880  0.77180  Biso   1.000  H
  C376     1.0000 0.16420  0.02720  0.87016  Biso   1.000  C
  C377     1.0000 0.23260  0.03460  0.88275  Biso   1.000  C
  C378     1.0000 0.29086  0.11066  0.88917  Biso   1.000  C
  H276     1.0000 0.28860  0.15690  0.88510  Biso   1.000  H
  C379     1.0000 0.35240  0.11900  0.90156  Biso   1.000  C
  H277     1.0000 0.39220  0.17090  0.90590  Biso   1.000  H
  C380     1.0000 0.35570  0.05130  0.90753  Biso   1.000  C
  C381     1.0000 0.29750  0.97530  0.90111  Biso   1.000  C
  H278     1.0000 0.29970  0.92900  0.90520  Biso   1.000  H
  C382     1.0000 0.23585  0.96695  0.88872  Biso   1.000  C
  H279     1.0000 0.19610  0.91500  0.88430  Biso   1.000  H
  C383     1.0000 0.49010  0.13840  0.91960  Biso   1.000  C
  H280     1.0000 0.48770  0.17300  0.90930  Biso   1.000  H
  H281     1.0000 0.53560  0.12990  0.91710  Biso   1.000  H
  H282     1.0000 0.49700  0.16420  0.93250  Biso   1.000  H
  C384     1.0000 0.37080  0.82940  0.97929  Biso   1.000  C
  C385     1.0000 0.38190  0.88770  0.96318  Biso   1.000  C
  C386     1.0000 0.45740  0.93500  0.95476  Biso   1.000  C
  H283     1.0000 0.50140  0.92870  0.95880  Biso   1.000  H
  C387     1.0000 0.46870  0.99160  0.94043  Biso   1.000  C
  H284     1.0000 0.52040  0.02400  0.93470  Biso   1.000  H
  C388     1.0000 0.40440  0.00090  0.93450  Biso   1.000  C
  C389     1.0000 0.32880  0.95360  0.94292  Biso   1.000  C
  H285     1.0000 0.28480  0.95990  0.93890  Biso   1.000  H
  C390     1.0000 0.31750  0.89690  0.95726  Biso   1.000  C
  H286     1.0000 0.26590  0.86460  0.96300  Biso   1.000  H
  Zn33     1.0000 0.43797  0.74814  0.00163  Biso   1.000  Zn
  Zn34     1.0000 0.68298  0.24656  0.18258  Biso   1.000  Zn
  O111     1.0000 0.42937  0.75843  0.05010  Biso   1.000  O
  O112     1.0000 0.51157  0.79643  0.02338  Biso   1.000  O
  O113     1.0000 0.68957  0.25283  0.13513  Biso   1.000  O
  O114     1.0000 0.70417  0.18973  0.16109  Biso   1.000  O
  O115     1.0000 0.77547  0.28913  0.19968  Biso   1.000  O
  O116     1.0000 0.83267  0.42303  0.19718  Biso   1.000  O
  O117     1.0000 0.96407  0.11383  0.31752  Biso   1.000  O
  O118     1.0000 0.09897  0.16353  0.31921  Biso   1.000  O
  N27      1.0000 0.76447  0.00863  0.08986  Biso   1.000  N
  N28      1.0000 0.08277  0.39503  0.25289  Biso   1.000  N
  C391     1.0000 0.49787  0.79823  0.04143  Biso   1.000  C
  C392     1.0000 0.57017  0.85663  0.05400  Biso   1.000  C
  C393     1.0000 0.64797  0.89283  0.04649  Biso   1.000  C
  H287     1.0000 0.65687  0.88233  0.03333  Biso   1.000  H
  C394     1.0000 0.71287  0.94443  0.05828  Biso   1.000  C
  H288     1.0000 0.76607  0.96913  0.05313  Biso   1.000  H
  C395     1.0000 0.69997  0.95983  0.07760  Biso   1.000  C
  C396     1.0000 0.62207  0.92363  0.08512  Biso   1.000  C
  H289     1.0000 0.61317  0.93413  0.09833  Biso   1.000  H
  C397     1.0000 0.55717  0.87203  0.07332  Biso   1.000  C
  H290     1.0000 0.50397  0.84733  0.07843  Biso   1.000  H
  C398     1.0000 0.84527  0.02043  0.08728  Biso   1.000  C
  H291     1.0000 0.84397  0.96923  0.08933  Biso   1.000  H
  H292     1.0000 0.88187  0.06013  0.09693  Biso   1.000  H
  H293     1.0000 0.86427  0.03993  0.07383  Biso   1.000  H
  C399     1.0000 0.70707  0.20373  0.14318  Biso   1.000  C
  C400     1.0000 0.72117  0.15083  0.12991  Biso   1.000  C
  C401     1.0000 0.74907  0.10283  0.13637  Biso   1.000  C
  H294     1.0000 0.76087  0.10323  0.15003  Biso   1.000  H
  C402     1.0000 0.76127  0.05293  0.12369  Biso   1.000  C
  H295     1.0000 0.77727  0.01673  0.12873  Biso   1.000  H
  C403     1.0000 0.74997  0.05683  0.10413  Biso   1.000  C
  C404     1.0000 0.71997  0.10523  0.09720  Biso   1.000  C
  H296     1.0000 0.70557  0.10393  0.08373  Biso   1.000  H
  C405     1.0000 0.71227  0.15343  0.11016  Biso   1.000  C
  H297     1.0000 0.69967  0.19213  0.10513  Biso   1.000  H
  C406     1.0000 0.83087  0.36053  0.20349  Biso   1.000  C
  C407     1.0000 0.89927  0.36793  0.21608  Biso   1.000  C
  C408     1.0000 0.95753  0.44399  0.22250  Biso   1.000  C
  H298     1.0000 0.95527  0.49023  0.21843  Biso   1.000  H
  C409     1.0000 0.01907  0.45233  0.23489  Biso   1.000  C
  H299     1.0000 0.05887  0.50423  0.23923  Biso   1.000  H
  C410     1.0000 0.02237  0.38463  0.24086  Biso   1.000  C
  C411     1.0000 0.96417  0.30863  0.23444  Biso   1.000  C
  H300     1.0000 0.96637  0.26233  0.23853  Biso   1.000  H
  C412     1.0000 0.90252  0.30028  0.22205  Biso   1.000  C
  H301     1.0000 0.86277  0.24833  0.21763  Biso   1.000  H
  C413     1.0000 0.15677  0.47173  0.25293  Biso   1.000  C
  H302     1.0000 0.15437  0.50633  0.24263  Biso   1.000  H
  H303     1.0000 0.20227  0.46323  0.25043  Biso   1.000  H
  H304     1.0000 0.16367  0.49753  0.26583  Biso   1.000  H
  C414     1.0000 0.03747  0.16273  0.31262  Biso   1.000  C
  C415     1.0000 0.04857  0.22103  0.29651  Biso   1.000  C
  C416     1.0000 0.12407  0.26833  0.28809  Biso   1.000  C
  H305     1.0000 0.16807  0.26203  0.29213  Biso   1.000  H
  C417     1.0000 0.13537  0.32493  0.27376  Biso   1.000  C
  H306     1.0000 0.18707  0.35733  0.26803  Biso   1.000  H
  C418     1.0000 0.07107  0.33423  0.26783  Biso   1.000  C
  C419     1.0000 0.99547  0.28693  0.27625  Biso   1.000  C
  H307     1.0000 0.95147  0.29323  0.27223  Biso   1.000  H
  C420     1.0000 0.98417  0.23023  0.29059  Biso   1.000  C
  H308     1.0000 0.93257  0.19793  0.29633  Biso   1.000  H
  Zn35     1.0000 0.10463  0.08148  0.33496  Biso   1.000  Zn
  Zn36     1.0000 0.34964  0.57990  0.51591  Biso   1.000  Zn
  O119     1.0000 0.09603  0.09177  0.38344  Biso   1.000  O
  O120     1.0000 0.17823  0.12977  0.35672  Biso   1.000  O
  O121     1.0000 0.35623  0.58617  0.46847  Biso   1.000  O
  O122     1.0000 0.37083  0.52307  0.49443  Biso   1.000  O
  O123     1.0000 0.44213  0.62247  0.53302  Biso   1.000  O
  O124     1.0000 0.49933  0.75637  0.53052  Biso   1.000  O
  O125     1.0000 0.63073  0.44717  0.65086  Biso   1.000  O
  O126     1.0000 0.76563  0.49687  0.65255  Biso   1.000  O
  N29      1.0000 0.43113  0.34197  0.42320  Biso   1.000  N
  N30      1.0000 0.74943  0.72837  0.58623  Biso   1.000  N
  C421     1.0000 0.16453  0.13157  0.37477  Biso   1.000  C
  C422     1.0000 0.23683  0.18997  0.38734  Biso   1.000  C
  C423     1.0000 0.31463  0.22617  0.37983  Biso   1.000  C
  H309     1.0000 0.32353  0.21567  0.36667  Biso   1.000  H
  C424     1.0000 0.37953  0.27777  0.39162  Biso   1.000  C
  H310     1.0000 0.43273  0.30247  0.38647  Biso   1.000  H
  C425     1.0000 0.36663  0.29317  0.41094  Biso   1.000  C
  C426     1.0000 0.28873  0.25697  0.41846  Biso   1.000  C
  H311     1.0000 0.27983  0.26747  0.43167  Biso   1.000  H
  C427     1.0000 0.22383  0.20537  0.40666  Biso   1.000  C
  H312     1.0000 0.17063  0.18067  0.41177  Biso   1.000  H
  C428     1.0000 0.51193  0.35377  0.42062  Biso   1.000  C
  H313     1.0000 0.51063  0.30257  0.42267  Biso   1.000  H
  H314     1.0000 0.54853  0.39347  0.43027  Biso   1.000  H
  H315     1.0000 0.53093  0.37327  0.40717  Biso   1.000  H
  C429     1.0000 0.37373  0.53707  0.47652  Biso   1.000  C
  C430     1.0000 0.38783  0.48417  0.46325  Biso   1.000  C
  C431     1.0000 0.41573  0.43617  0.46971  Biso   1.000  C
  H316     1.0000 0.42753  0.43657  0.48337  Biso   1.000  H
  C432     1.0000 0.42793  0.38627  0.45703  Biso   1.000  C
  H317     1.0000 0.44393  0.35007  0.46207  Biso   1.000  H
  C433     1.0000 0.41663  0.39017  0.43747  Biso   1.000  C
  C434     1.0000 0.38663  0.43857  0.43054  Biso   1.000  C
  H318     1.0000 0.37223  0.43727  0.41707  Biso   1.000  H
  C435     1.0000 0.37893  0.48677  0.44350  Biso   1.000  C
  H319     1.0000 0.36633  0.52547  0.43847  Biso   1.000  H
  C436     1.0000 0.49753  0.69387  0.53683  Biso   1.000  C
  C437     1.0000 0.56593  0.70127  0.54942  Biso   1.000  C
  C438     1.0000 0.62419  0.77733  0.55584  Biso   1.000  C
  H320     1.0000 0.62193  0.82357  0.55177  Biso   1.000  H
  C439     1.0000 0.68573  0.78567  0.56823  Biso   1.000  C
  H321     1.0000 0.72553  0.83757  0.57257  Biso   1.000  H
  C440     1.0000 0.68903  0.71797  0.57420  Biso   1.000  C
  C441     1.0000 0.63083  0.64197  0.56778  Biso   1.000  C
  H322     1.0000 0.63303  0.59567  0.57187  Biso   1.000  H
  C442     1.0000 0.56918  0.63362  0.55539  Biso   1.000  C
  H323     1.0000 0.52943  0.58167  0.55097  Biso   1.000  H
  C443     1.0000 0.82343  0.80507  0.58627  Biso   1.000  C
  H324     1.0000 0.82103  0.83967  0.57597  Biso   1.000  H
  H325     1.0000 0.86893  0.79657  0.58377  Biso   1.000  H
  H326     1.0000 0.83033  0.83087  0.59917  Biso   1.000  H
  C444     1.0000 0.70413  0.49607  0.64596  Biso   1.000  C
  C445     1.0000 0.71523  0.55437  0.62985  Biso   1.000  C
  C446     1.0000 0.79073  0.60167  0.62143  Biso   1.000  C
  H327     1.0000 0.83473  0.59537  0.62547  Biso   1.000  H
  C447     1.0000 0.80203  0.65827  0.60710  Biso   1.000  C
  H328     1.0000 0.85373  0.69067  0.60137  Biso   1.000  H
  C448     1.0000 0.73773  0.66757  0.60117  Biso   1.000  C
  C449     1.0000 0.66213  0.62027  0.60959  Biso   1.000  C
  H329     1.0000 0.61813  0.62657  0.60557  Biso   1.000  H
  C450     1.0000 0.65083  0.56357  0.62393  Biso   1.000  C
  H330     1.0000 0.59923  0.53127  0.62967  Biso   1.000  H
  Zn37     1.0000 0.64351  0.22870  0.66829  Biso   1.000  Zn
  Zn38     1.0000 0.89692  0.98369  0.84924  Biso   1.000  Zn
  O127     1.0000 0.66240  0.23730  0.71677  Biso   1.000  O
  O128     1.0000 0.61820  0.15510  0.69005  Biso   1.000  O
  O129     1.0000 0.89660  0.97710  0.80180  Biso   1.000  O
  O130     1.0000 0.81890  0.96250  0.82776  Biso   1.000  O
  O131     1.0000 0.84700  0.89120  0.86635  Biso   1.000  O
  O132     1.0000 0.92370  0.83400  0.86385  Biso   1.000  O
  O133     1.0000 0.48310  0.70260  0.98419  Biso   1.000  O
  O134     1.0000 0.39790  0.56770  0.98588  Biso   1.000  O
  N31      1.0000 0.57750  0.90220  0.75653  Biso   1.000  N
  N32      1.0000 0.64560  0.58390  0.91956  Biso   1.000  N
  C451     1.0000 0.63370  0.16880  0.70810  Biso   1.000  C
  C452     1.0000 0.61980  0.09650  0.72067  Biso   1.000  C
  C453     1.0000 0.57820  0.01870  0.71316  Biso   1.000  C
  H331     1.0000 0.55880  0.00980  0.70000  Biso   1.000  H
  C454     1.0000 0.56490  0.95380  0.72495  Biso   1.000  C
  H332     1.0000 0.53640  0.90060  0.71980  Biso   1.000  H
  C455     1.0000 0.59320  0.96670  0.74427  Biso   1.000  C
  C456     1.0000 0.63490  0.04460  0.75179  Biso   1.000  C
  H333     1.0000 0.65430  0.05350  0.76500  Biso   1.000  H
  C457     1.0000 0.64820  0.10950  0.73999  Biso   1.000  C
  H334     1.0000 0.67670  0.16270  0.74510  Biso   1.000  H
  C458     1.0000 0.50850  0.82140  0.75395  Biso   1.000  C
  H335     1.0000 0.45860  0.82270  0.75600  Biso   1.000  H
  H336     1.0000 0.51160  0.78480  0.76360  Biso   1.000  H
  H337     1.0000 0.50900  0.80240  0.74050  Biso   1.000  H
  C459     1.0000 0.83000  0.95960  0.80985  Biso   1.000  C
  C460     1.0000 0.76300  0.94550  0.79658  Biso   1.000  C
  C461     1.0000 0.68710  0.91760  0.80304  Biso   1.000  C
  H338     1.0000 0.67570  0.90580  0.81670  Biso   1.000  H
  C462     1.0000 0.62500  0.90540  0.79036  Biso   1.000  C
  H339     1.0000 0.57280  0.88940  0.79540  Biso   1.000  H
  C463     1.0000 0.64020  0.91670  0.77080  Biso   1.000  C
  C464     1.0000 0.71860  0.94670  0.76387  Biso   1.000  C
  H340     1.0000 0.73170  0.96110  0.75040  Biso   1.000  H
  C465     1.0000 0.77450  0.95440  0.77683  Biso   1.000  C
  H341     1.0000 0.82580  0.96700  0.77180  Biso   1.000  H
  C466     1.0000 0.86300  0.83580  0.87016  Biso   1.000  C
  C467     1.0000 0.80200  0.76740  0.88275  Biso   1.000  C
  C468     1.0000 0.81980  0.70914  0.88917  Biso   1.000  C
  H342     1.0000 0.86830  0.71140  0.88510  Biso   1.000  H
  C469     1.0000 0.76660  0.64760  0.90156  Biso   1.000  C
  H343     1.0000 0.77870  0.60780  0.90590  Biso   1.000  H
  C470     1.0000 0.69560  0.64430  0.90753  Biso   1.000  C
  C471     1.0000 0.67780  0.70250  0.90111  Biso   1.000  C
  H344     1.0000 0.62930  0.70030  0.90520  Biso   1.000  H
  C472     1.0000 0.73110  0.76415  0.88872  Biso   1.000  C
  H345     1.0000 0.71890  0.80390  0.88430  Biso   1.000  H
  C473     1.0000 0.64830  0.50990  0.91960  Biso   1.000  C
  H346     1.0000 0.68530  0.51230  0.90930  Biso   1.000  H
  H347     1.0000 0.59430  0.46440  0.91710  Biso   1.000  H
  H348     1.0000 0.66720  0.50300  0.93250  Biso   1.000  H
  C474     1.0000 0.45860  0.62920  0.97929  Biso   1.000  C
  C475     1.0000 0.50580  0.61810  0.96318  Biso   1.000  C
  C476     1.0000 0.47760  0.54260  0.95476  Biso   1.000  C
  H349     1.0000 0.42730  0.49860  0.95880  Biso   1.000  H
  C477     1.0000 0.52290  0.53130  0.94043  Biso   1.000  C
  H350     1.0000 0.50360  0.47960  0.93470  Biso   1.000  H
  C478     1.0000 0.59650  0.59560  0.93450  Biso   1.000  C
  C479     1.0000 0.62480  0.67120  0.94292  Biso   1.000  C
  H351     1.0000 0.67510  0.71520  0.93890  Biso   1.000  H
  C480     1.0000 0.57940  0.68250  0.95726  Biso   1.000  C
  H352     1.0000 0.59870  0.73410  0.96300  Biso   1.000  H
  Zn39     1.0000 0.31018  0.56203  0.00163  Biso   1.000  Zn
  Zn40     1.0000 0.56359  0.31702  0.18258  Biso   1.000  Zn
  O135     1.0000 0.32907  0.57063  0.05010  Biso   1.000  O
  O136     1.0000 0.28487  0.48843  0.02338  Biso   1.000  O
  O137     1.0000 0.56327  0.31043  0.13513  Biso   1.000  O
  O138     1.0000 0.48557  0.29583  0.16109  Biso   1.000  O
  O139     1.0000 0.51367  0.22453  0.19968  Biso   1.000  O
  O140     1.0000 0.59037  0.16733  0.19718  Biso   1.000  O
  O141     1.0000 0.14977  0.03593  0.31752  Biso   1.000  O
  O142     1.0000 0.06457  0.90103  0.31921  Biso   1.000  O
  N33      1.0000 0.24417  0.23553  0.08986  Biso   1.000  N
  N34      1.0000 0.31227  0.91723  0.25289  Biso   1.000  N
  C481     1.0000 0.30037  0.50213  0.04143  Biso   1.000  C
  C482     1.0000 0.28647  0.42983  0.05400  Biso   1.000  C
  C483     1.0000 0.24487  0.35203  0.04649  Biso   1.000  C
  H353     1.0000 0.22547  0.34313  0.03333  Biso   1.000  H
  C484     1.0000 0.23157  0.28713  0.05828  Biso   1.000  C
  H354     1.0000 0.20307  0.23393  0.05313  Biso   1.000  H
  C485     1.0000 0.25987  0.30003  0.07760  Biso   1.000  C
  C486     1.0000 0.30157  0.37793  0.08512  Biso   1.000  C
  H355     1.0000 0.32097  0.38683  0.09833  Biso   1.000  H
  C487     1.0000 0.31487  0.44283  0.07332  Biso   1.000  C
  H356     1.0000 0.34337  0.49603  0.07843  Biso   1.000  H
  C488     1.0000 0.17517  0.15473  0.08728  Biso   1.000  C
  H357     1.0000 0.12527  0.15603  0.08933  Biso   1.000  H
  H358     1.0000 0.17827  0.11813  0.09693  Biso   1.000  H
  H359     1.0000 0.17567  0.13573  0.07383  Biso   1.000  H
  C489     1.0000 0.49667  0.29293  0.14318  Biso   1.000  C
  C490     1.0000 0.42967  0.27883  0.12991  Biso   1.000  C
  C491     1.0000 0.35377  0.25093  0.13637  Biso   1.000  C
  H360     1.0000 0.34237  0.23913  0.15003  Biso   1.000  H
  C492     1.0000 0.29167  0.23873  0.12369  Biso   1.000  C
  H361     1.0000 0.23947  0.22273  0.12873  Biso   1.000  H
  C493     1.0000 0.30687  0.25003  0.10413  Biso   1.000  C
  C494     1.0000 0.38527  0.28003  0.09720  Biso   1.000  C
  H362     1.0000 0.39837  0.29443  0.08373  Biso   1.000  H
  C495     1.0000 0.44117  0.28773  0.11016  Biso   1.000  C
  H363     1.0000 0.49247  0.30033  0.10513  Biso   1.000  H
  C496     1.0000 0.52967  0.16913  0.20349  Biso   1.000  C
  C497     1.0000 0.46867  0.10073  0.21608  Biso   1.000  C
  C498     1.0000 0.48647  0.04247  0.22250  Biso   1.000  C
  H364     1.0000 0.53497  0.04473  0.21843  Biso   1.000  H
  C499     1.0000 0.43327  0.98093  0.23489  Biso   1.000  C
  H365     1.0000 0.44537  0.94113  0.23923  Biso   1.000  H
  C500     1.0000 0.36227  0.97763  0.24086  Biso   1.000  C
  C501     1.0000 0.34447  0.03583  0.23444  Biso   1.000  C
  H366     1.0000 0.29597  0.03363  0.23853  Biso   1.000  H
  C502     1.0000 0.39777  0.09748  0.22205  Biso   1.000  C
  H367     1.0000 0.38557  0.13723  0.21763  Biso   1.000  H
  C503     1.0000 0.31497  0.84323  0.25293  Biso   1.000  C
  H368     1.0000 0.35197  0.84563  0.24263  Biso   1.000  H
  H369     1.0000 0.26097  0.79773  0.25043  Biso   1.000  H
  H370     1.0000 0.33387  0.83633  0.26583  Biso   1.000  H
  C504     1.0000 0.12527  0.96253  0.31262  Biso   1.000  C
  C505     1.0000 0.17247  0.95143  0.29651  Biso   1.000  C
  C506     1.0000 0.14427  0.87593  0.28809  Biso   1.000  C
  H371     1.0000 0.09397  0.83193  0.29213  Biso   1.000  H
  C507     1.0000 0.18957  0.86463  0.27376  Biso   1.000  C
  H372     1.0000 0.17027  0.81293  0.26803  Biso   1.000  H
  C508     1.0000 0.26317  0.92893  0.26783  Biso   1.000  C
  C509     1.0000 0.29147  0.00453  0.27625  Biso   1.000  C
  H373     1.0000 0.34177  0.04853  0.27223  Biso   1.000  H
  C510     1.0000 0.24607  0.01583  0.29059  Biso   1.000  C
  H374     1.0000 0.26537  0.06743  0.29633  Biso   1.000  H
  Zn41     1.0000 0.97684  0.89537  0.33496  Biso   1.000  Zn
  Zn42     1.0000 0.23025  0.65036  0.51591  Biso   1.000  Zn
  O143     1.0000 0.99573  0.90397  0.38344  Biso   1.000  O
  O144     1.0000 0.95153  0.82177  0.35672  Biso   1.000  O
  O145     1.0000 0.22993  0.64377  0.46847  Biso   1.000  O
  O146     1.0000 0.15223  0.62917  0.49443  Biso   1.000  O
  O147     1.0000 0.18033  0.55787  0.53302  Biso   1.000  O
  O148     1.0000 0.25703  0.50067  0.53052  Biso   1.000  O
  O149     1.0000 0.81643  0.36927  0.65086  Biso   1.000  O
  O150     1.0000 0.73123  0.23437  0.65255  Biso   1.000  O
  N35      1.0000 0.91083  0.56887  0.42320  Biso   1.000  N
  N36      1.0000 0.97893  0.25057  0.58623  Biso   1.000  N
  C511     1.0000 0.96703  0.83547  0.37477  Biso   1.000  C
  C512     1.0000 0.95313  0.76317  0.38734  Biso   1.000  C
  C513     1.0000 0.91153  0.68537  0.37983  Biso   1.000  C
  H375     1.0000 0.89213  0.67647  0.36667  Biso   1.000  H
  C514     1.0000 0.89823  0.62047  0.39162  Biso   1.000  C
  H376     1.0000 0.86973  0.56727  0.38647  Biso   1.000  H
  C515     1.0000 0.92653  0.63337  0.41094  Biso   1.000  C
  C516     1.0000 0.96823  0.71127  0.41846  Biso   1.000  C
  H377     1.0000 0.98763  0.72017  0.43167  Biso   1.000  H
  C517     1.0000 0.98153  0.77617  0.40666  Biso   1.000  C
  H378     1.0000 0.01003  0.82937  0.41177  Biso   1.000  H
  C518     1.0000 0.84183  0.48807  0.42062  Biso   1.000  C
  H379     1.0000 0.79193  0.48937  0.42267  Biso   1.000  H
  H380     1.0000 0.84493  0.45147  0.43027  Biso   1.000  H
  H381     1.0000 0.84233  0.46907  0.40717  Biso   1.000  H
  C519     1.0000 0.16333  0.62627  0.47652  Biso   1.000  C
  C520     1.0000 0.09633  0.61217  0.46325  Biso   1.000  C
  C521     1.0000 0.02043  0.58427  0.46971  Biso   1.000  C
  H382     1.0000 0.00903  0.57247  0.48337  Biso   1.000  H
  C522     1.0000 0.95833  0.57207  0.45703  Biso   1.000  C
  H383     1.0000 0.90613  0.55607  0.46207  Biso   1.000  H
  C523     1.0000 0.97353  0.58337  0.43747  Biso   1.000  C
  C524     1.0000 0.05193  0.61337  0.43054  Biso   1.000  C
  H384     1.0000 0.06503  0.62777  0.41707  Biso   1.000  H
  C525     1.0000 0.10783  0.62107  0.44350  Biso   1.000  C
  H385     1.0000 0.15913  0.63367  0.43847  Biso   1.000  H
  C526     1.0000 0.19633  0.50247  0.53683  Biso   1.000  C
  C527     1.0000 0.13533  0.43407  0.54942  Biso   1.000  C
  C528     1.0000 0.15313  0.37581  0.55584  Biso   1.000  C
  H386     1.0000 0.20163  0.37807  0.55177  Biso   1.000  H
  C529     1.0000 0.09993  0.31427  0.56823  Biso   1.000  C
  H387     1.0000 0.11203  0.27447  0.57257  Biso   1.000  H
  C530     1.0000 0.02893  0.31097  0.57420  Biso   1.000  C
  C531     1.0000 0.01113  0.36917  0.56778  Biso   1.000  C
  H388     1.0000 0.96263  0.36697  0.57187  Biso   1.000  H
  C532     1.0000 0.06443  0.43082  0.55539  Biso   1.000  C
  H389     1.0000 0.05223  0.47057  0.55097  Biso   1.000  H
  C533     1.0000 0.98163  0.17657  0.58627  Biso   1.000  C
  H390     1.0000 0.01863  0.17897  0.57597  Biso   1.000  H
  H391     1.0000 0.92763  0.13107  0.58377  Biso   1.000  H
  H392     1.0000 0.00053  0.16967  0.59917  Biso   1.000  H
  C534     1.0000 0.79193  0.29587  0.64596  Biso   1.000  C
  C535     1.0000 0.83913  0.28477  0.62985  Biso   1.000  C
  C536     1.0000 0.81093  0.20927  0.62143  Biso   1.000  C
  H393     1.0000 0.76063  0.16527  0.62547  Biso   1.000  H
  C537     1.0000 0.85623  0.19797  0.60710  Biso   1.000  C
  H394     1.0000 0.83693  0.14627  0.60137  Biso   1.000  H
  C538     1.0000 0.92983  0.26227  0.60117  Biso   1.000  C
  C539     1.0000 0.95813  0.33787  0.60959  Biso   1.000  C
  H395     1.0000 0.00843  0.38187  0.60557  Biso   1.000  H
  C540     1.0000 0.91273  0.34917  0.62393  Biso   1.000  C
  H396     1.0000 0.93203  0.40077  0.62967  Biso   1.000  H
  Zn43     1.0000 0.66667  0.33333  0.70652  Biso   1.000  Zn
  O151     1.0000 0.66667  0.33333  0.67811  Biso   1.000  O
  Zn44     1.0000 0.33333  0.66667  0.03986  Biso   1.000  Zn
  O152     1.0000 0.33333  0.66667  0.01144  Biso   1.000  O
  Zn45     1.0000 0.00000  0.00000  0.37319  Biso   1.000  Zn
  O153     1.0000 0.00000  0.00000  0.34478  Biso   1.000  O
  Zn46     1.0000 0.00000  0.00000  0.81155  Biso   1.000  Zn
  O154     1.0000 0.00000  0.00000  0.84016  Biso   1.000  O
  Zn47     1.0000 0.66667  0.33333  0.14488  Biso   1.000  Zn
  O155     1.0000 0.66667  0.33333  0.17349  Biso   1.000  O
  Zn48     1.0000 0.33333  0.66667  0.47821  Biso   1.000  Zn
  O156     1.0000 0.33333  0.66667  0.50683  Biso   1.000  O
