data_image0
_cell_length_a       29.3948
_cell_length_b       21.2938
_cell_length_c       28.618
_cell_angle_alpha    90
_cell_angle_beta     110.722
_cell_angle_gamma    90

_symmetry_space_group_name_H-M    "P 1"
_symmetry_int_tables_number       1

loop_
  _symmetry_equiv_pos_as_xyz
  'x, y, z'

loop_
  _atom_site_label
  _atom_site_occupancy
  _atom_site_fract_x
  _atom_site_fract_y
  _atom_site_fract_z
  _atom_site_thermal_displace_type
  _atom_site_B_iso_or_equiv
  _atom_site_type_symbol
  W1       1.0000 0.40681  0.31118  0.23972  Biso   1.000  W
  O1       1.0000 0.41440  0.25120  0.29030  Biso   1.000  O
  O2       1.0000 0.35630  0.27020  0.19460  Biso   1.000  O
  O3       1.0000 0.42630  0.35740  0.19230  Biso   1.000  O
  O4       1.0000 0.47480  0.33960  0.29100  Biso   1.000  O
  O5       1.0000 0.45930  0.24850  0.21740  Biso   1.000  O
  W2       1.0000 0.45045  0.19145  0.33949  Biso   1.000  W
  W3       1.0000 0.30673  0.20308  0.15929  Biso   1.000  W
  W4       1.0000 0.46812  0.31901  0.16201  Biso   1.000  W
  O6       1.0000 0.50240  0.25180  0.35920  Biso   1.000  O
  O7       1.0000 0.49190  0.12490  0.37430  Biso   1.000  O
  O8       1.0000 0.48100  0.16480  0.28280  Biso   1.000  O
  O9       1.0000 0.40200  0.12960  0.30620  Biso   1.000  O
  O10      1.0000 0.31240  0.23560  0.09930  Biso   1.000  O
  O11      1.0000 0.27730  0.13050  0.13050  Biso   1.000  O
  O12      1.0000 0.32950  0.16510  0.22290  Biso   1.000  O
  O13      1.0000 0.37500  0.15970  0.14910  Biso   1.000  O
  O14      1.0000 0.40550  0.27340  0.11820  Biso   1.000  O
  W5       1.0000 0.54679  0.08320  0.41727  Biso   1.000  W
  W6       1.0000 0.35004  0.08813  0.26033  Biso   1.000  W
  W7       1.0000 0.36733  0.21316  0.08089  Biso   1.000  W
  W8       1.0000 0.27720  0.03199  0.13231  Biso   1.000  W
  P1       1.0000 0.39160  0.09090  0.16287  Biso   1.000  P
  O15      1.0000 0.58260  0.16220  0.42270  Biso   1.000  O
  O16      1.0000 0.51800  0.00550  0.39950  Biso   1.000  O
  O17      1.0000 0.56310  0.07650  0.34980  Biso   1.000  O
  O18      1.0000 0.60870  0.04630  0.44900  Biso   1.000  O
  O19      1.0000 0.53320  0.09870  0.47150  Biso   1.000  O
  O20      1.0000 0.39980  0.07990  0.21740  Biso   1.000  O
  O21      1.0000 0.30560  0.04600  0.20020  Biso   1.000  O
  O22      1.0000 0.37820  0.00880  0.28380  Biso   1.000  O
  O23      1.0000 0.34850  0.24960  0.02220  Biso   1.000  O
  O24      1.0000 0.32610  0.13380  0.04910  Biso   1.000  O
  O25      1.0000 0.21510  0.03220  0.12360  Biso   1.000  O
  O26      1.0000 0.26780  0.04010  0.06190  Biso   1.000  O
  O27      1.0000 0.28730  0.94940  0.13550  Biso   1.000  O
  O28      1.0000 0.34910  0.04850  0.12840  Biso   1.000  O
  W9       1.0000 0.50980  0.91522  0.38786  Biso   1.000  W
  W10      1.0000 0.67676  0.04902  0.45798  Biso   1.000  W
  Cu1      1.0000 0.48153  0.14688  0.48804  Biso   1.000  Cu
  Cu2      1.0000 0.27802  0.08501  0.36189  Biso   1.000  Cu
  W11      1.0000 0.38647  0.92109  0.28817  Biso   1.000  W
  Cu3      1.0000 0.34742  0.31636  0.97338  Biso   1.000  Cu
  Cu4      1.0000 0.14840  0.06004  0.10103  Biso   1.000  Cu
  W12      1.0000 0.31445  0.86181  0.16503  Biso   1.000  W
  O29      1.0000 0.57770  0.90560  0.42200  Biso   1.000  O
  O30      1.0000 0.53130  0.93900  0.32510  Biso   1.000  O
  O31      1.0000 0.49270  0.90150  0.43950  Biso   1.000  O
  O32      1.0000 0.50810  0.83200  0.36620  Biso   1.000  O
  O33      1.0000 0.44750  0.93310  0.34150  Biso   1.000  O
  O34      1.0000 0.66850  0.95610  0.44330  Biso   1.000  O
  O35      1.0000 0.27710  0.99650  0.35570  Biso   1.000  O
  N1       1.0000 0.34880  0.07740  0.40730  Biso   1.000  N
  O36      1.0000 0.43090  0.93950  0.24210  Biso   1.000  O
  O37      1.0000 0.33570  0.90810  0.22560  Biso   1.000  O
  O38      1.0000 0.40620  0.83530  0.28300  Biso   1.000  O
  O39      1.0000 0.16750  0.14420  0.09050  Biso   1.000  O
  N2       1.0000 0.07850  0.07670  0.06660  Biso   1.000  N
  N3       1.0000 0.12270  0.97190  0.10530  Biso   1.000  N
  O40      1.0000 0.31090  0.84510  0.09830  Biso   1.000  O
  O41      1.0000 0.35470  0.79760  0.19410  Biso   1.000  O
  O42      1.0000 0.38110  0.90630  0.15440  Biso   1.000  O
  W13      1.0000 0.64101  0.87889  0.42587  Biso   1.000  W
  P2       1.0000 0.56700  0.90683  0.30451  Biso   1.000  P
  W14      1.0000 0.54448  0.76602  0.34940  Biso   1.000  W
  Cu5      1.0000 0.32973  0.94330  0.38938  Biso   1.000  Cu
  H1       1.0000 0.24860  0.97790  0.33450  Biso   1.000  H
  N4       1.0000 0.37120  0.01990  0.40950  Biso   1.000  N
  W15      1.0000 0.41861  0.76596  0.24844  Biso   1.000  W
  H2       1.0000 0.18520  0.16730  0.11860  Biso   1.000  H
  O43      1.0000 0.59970  0.80090  0.39060  Biso   1.000  O
  O44      1.0000 0.55230  0.83750  0.29210  Biso   1.000  O
  N5       1.0000 0.57140  0.91240  0.54970  Biso   1.000  N
  N6       1.0000 0.57570  0.80260  0.51340  Biso   1.000  N
  N7       1.0000 0.47430  0.77880  0.48870  Biso   1.000  N
  O45      1.0000 0.57200  0.72300  0.30700  Biso   1.000  O
  O46      1.0000 0.47950  0.75340  0.29170  Biso   1.000  O
  N8       1.0000 0.08840  0.21410  0.02540  Biso   1.000  N
  C1       1.0000 0.58210  0.97210  0.56490  Biso   1.000  C
  C2       1.0000 0.61760  0.88480  0.56760  Biso   1.000  C
  N9       1.0000 0.58450  0.74430  0.50120  Biso   1.000  N
  C3       1.0000 0.61870  0.82040  0.54970  Biso   1.000  C
  N10      1.0000 0.48470  0.72390  0.47060  Biso   1.000  N
  C4       1.0000 0.43030  0.77220  0.49040  Biso   1.000  C
  Cu6      1.0000 0.54385  0.67689  0.46778  Biso   1.000  Cu
  H3       1.0000 0.55920  0.00410  0.55810  Biso   1.000  H
  C5       1.0000 0.62970  0.73010  0.52890  Biso   1.000  C
  N11      1.0000 0.65300  0.77700  0.56020  Biso   1.000  N
  C6       1.0000 0.44630  0.68740  0.46250  Biso   1.000  C
  H4       1.0000 0.41400  0.80330  0.50110  Biso   1.000  H
  N12      1.0000 0.60950  0.63290  0.49120  Biso   1.000  N
  N13      1.0000 0.49740  0.60660  0.45100  Biso   1.000  N
  C7       1.0000 0.64690  0.66810  0.52010  Biso   1.000  C
  C8       1.0000 0.45290  0.62300  0.44810  Biso   1.000  C
  C9       1.0000 0.61880  0.57400  0.48060  Biso   1.000  C
  N14      1.0000 0.49450  0.54510  0.43770  Biso   1.000  N
  C10      1.0000 0.69450  0.64840  0.53740  Biso   1.000  C
  C11      1.0000 0.66610  0.55030  0.49950  Biso   1.000  C
  H5       1.0000 0.59360  0.54890  0.46050  Biso   1.000  H
  H6       1.0000 0.51790  0.52190  0.43620  Biso   1.000  H
  C12      1.0000 0.44980  0.52800  0.42750  Biso   1.000  C
  H7       1.0000 0.71970  0.67500  0.55560  Biso   1.000  H
  C13      1.0000 0.70330  0.58810  0.52670  Biso   1.000  C
  H8       1.0000 0.67210  0.50870  0.49350  Biso   1.000  H
  C14      1.0000 0.42620  0.46850  0.41080  Biso   1.000  C
  H9       1.0000 0.73500  0.57280  0.53800  Biso   1.000  H
  C15      1.0000 0.44800  0.41290  0.40730  Biso   1.000  C
  C16      1.0000 0.35110  0.42160  0.37540  Biso   1.000  C
  H10      1.0000 0.48170  0.41160  0.41650  Biso   1.000  H
  C17      1.0000 0.42280  0.36100  0.39130  Biso   1.000  C
  C18      1.0000 0.37330  0.36540  0.37460  Biso   1.000  C
  H11      1.0000 0.31740  0.42440  0.36230  Biso   1.000  H
  H12      1.0000 0.43820  0.32280  0.39150  Biso   1.000  H
  H13      1.0000 0.35450  0.32980  0.36250  Biso   1.000  H
  Na1      1.0000 0.52480  0.04040  0.20970  Biso   1.000  Na
  O47      1.0000 0.51440  0.03970  0.22860  Biso   1.000  O
  W16      1.0000 0.90681  0.81118  0.23972  Biso   1.000  W
  O48      1.0000 0.91440  0.75120  0.29030  Biso   1.000  O
  O49      1.0000 0.85630  0.77020  0.19460  Biso   1.000  O
  O50      1.0000 0.92630  0.85740  0.19230  Biso   1.000  O
  O51      1.0000 0.97480  0.83960  0.29100  Biso   1.000  O
  O52      1.0000 0.95930  0.74850  0.21740  Biso   1.000  O
  W17      1.0000 0.95045  0.69145  0.33949  Biso   1.000  W
  W18      1.0000 0.80673  0.70308  0.15929  Biso   1.000  W
  W19      1.0000 0.96812  0.81901  0.16201  Biso   1.000  W
  O53      1.0000 0.00240  0.75180  0.35920  Biso   1.000  O
  O54      1.0000 0.99190  0.62490  0.37430  Biso   1.000  O
  O55      1.0000 0.98100  0.66480  0.28280  Biso   1.000  O
  O56      1.0000 0.90200  0.62960  0.30620  Biso   1.000  O
  O57      1.0000 0.81240  0.73560  0.09930  Biso   1.000  O
  O58      1.0000 0.77730  0.63050  0.13050  Biso   1.000  O
  O59      1.0000 0.82950  0.66510  0.22290  Biso   1.000  O
  O60      1.0000 0.87500  0.65970  0.14910  Biso   1.000  O
  O61      1.0000 0.90550  0.77340  0.11820  Biso   1.000  O
  W20      1.0000 0.04679  0.58320  0.41727  Biso   1.000  W
  W21      1.0000 0.85004  0.58813  0.26033  Biso   1.000  W
  W22      1.0000 0.86733  0.71316  0.08089  Biso   1.000  W
  W23      1.0000 0.77720  0.53199  0.13231  Biso   1.000  W
  P3       1.0000 0.89160  0.59090  0.16287  Biso   1.000  P
  O62      1.0000 0.08260  0.66220  0.42270  Biso   1.000  O
  O63      1.0000 0.01800  0.50550  0.39950  Biso   1.000  O
  O64      1.0000 0.06310  0.57650  0.34980  Biso   1.000  O
  O65      1.0000 0.10870  0.54630  0.44900  Biso   1.000  O
  O66      1.0000 0.03320  0.59870  0.47150  Biso   1.000  O
  O67      1.0000 0.89980  0.57990  0.21740  Biso   1.000  O
  O68      1.0000 0.80560  0.54600  0.20020  Biso   1.000  O
  O69      1.0000 0.87820  0.50880  0.28380  Biso   1.000  O
  O70      1.0000 0.84850  0.74960  0.02220  Biso   1.000  O
  O71      1.0000 0.82610  0.63380  0.04910  Biso   1.000  O
  O72      1.0000 0.71510  0.53220  0.12360  Biso   1.000  O
  O73      1.0000 0.76780  0.54010  0.06190  Biso   1.000  O
  O74      1.0000 0.78730  0.44940  0.13550  Biso   1.000  O
  O75      1.0000 0.84910  0.54850  0.12840  Biso   1.000  O
  W24      1.0000 0.00980  0.41522  0.38786  Biso   1.000  W
  W25      1.0000 0.17676  0.54902  0.45798  Biso   1.000  W
  Cu7      1.0000 0.98153  0.64688  0.48804  Biso   1.000  Cu
  Cu8      1.0000 0.77802  0.58501  0.36189  Biso   1.000  Cu
  W26      1.0000 0.88647  0.42109  0.28817  Biso   1.000  W
  Cu9      1.0000 0.84742  0.81636  0.97338  Biso   1.000  Cu
  Cu10     1.0000 0.64840  0.56004  0.10103  Biso   1.000  Cu
  W27      1.0000 0.81445  0.36181  0.16503  Biso   1.000  W
  O76      1.0000 0.07770  0.40560  0.42200  Biso   1.000  O
  O77      1.0000 0.03130  0.43900  0.32510  Biso   1.000  O
  O78      1.0000 0.99270  0.40150  0.43950  Biso   1.000  O
  O79      1.0000 0.00810  0.33200  0.36620  Biso   1.000  O
  O80      1.0000 0.94750  0.43310  0.34150  Biso   1.000  O
  O81      1.0000 0.16850  0.45610  0.44330  Biso   1.000  O
  O82      1.0000 0.77710  0.49650  0.35570  Biso   1.000  O
  N15      1.0000 0.84880  0.57740  0.40730  Biso   1.000  N
  O83      1.0000 0.93090  0.43950  0.24210  Biso   1.000  O
  O84      1.0000 0.83570  0.40810  0.22560  Biso   1.000  O
  O85      1.0000 0.90620  0.33530  0.28300  Biso   1.000  O
  O86      1.0000 0.66750  0.64420  0.09050  Biso   1.000  O
  N16      1.0000 0.57850  0.57670  0.06660  Biso   1.000  N
  N17      1.0000 0.62270  0.47190  0.10530  Biso   1.000  N
  O87      1.0000 0.81090  0.34510  0.09830  Biso   1.000  O
  O88      1.0000 0.85470  0.29760  0.19410  Biso   1.000  O
  O89      1.0000 0.88110  0.40630  0.15440  Biso   1.000  O
  W28      1.0000 0.14101  0.37889  0.42587  Biso   1.000  W
  P4       1.0000 0.06700  0.40683  0.30451  Biso   1.000  P
  W29      1.0000 0.04448  0.26602  0.34940  Biso   1.000  W
  Cu11     1.0000 0.82973  0.44330  0.38938  Biso   1.000  Cu
  H14      1.0000 0.74860  0.47790  0.33450  Biso   1.000  H
  N18      1.0000 0.87120  0.51990  0.40950  Biso   1.000  N
  W30      1.0000 0.91861  0.26596  0.24844  Biso   1.000  W
  H15      1.0000 0.68520  0.66730  0.11860  Biso   1.000  H
  O90      1.0000 0.09970  0.30090  0.39060  Biso   1.000  O
  O91      1.0000 0.05230  0.33750  0.29210  Biso   1.000  O
  N19      1.0000 0.07140  0.41240  0.54970  Biso   1.000  N
  N20      1.0000 0.07570  0.30260  0.51340  Biso   1.000  N
  N21      1.0000 0.97430  0.27880  0.48870  Biso   1.000  N
  O92      1.0000 0.07200  0.22300  0.30700  Biso   1.000  O
  O93      1.0000 0.97950  0.25340  0.29170  Biso   1.000  O
  N22      1.0000 0.58840  0.71410  0.02540  Biso   1.000  N
  C19      1.0000 0.08210  0.47210  0.56490  Biso   1.000  C
  C20      1.0000 0.11760  0.38480  0.56760  Biso   1.000  C
  N23      1.0000 0.08450  0.24430  0.50120  Biso   1.000  N
  C21      1.0000 0.11870  0.32040  0.54970  Biso   1.000  C
  N24      1.0000 0.98470  0.22390  0.47060  Biso   1.000  N
  C22      1.0000 0.93030  0.27220  0.49040  Biso   1.000  C
  Cu12     1.0000 0.04385  0.17689  0.46778  Biso   1.000  Cu
  H16      1.0000 0.05920  0.50410  0.55810  Biso   1.000  H
  C23      1.0000 0.12970  0.23010  0.52890  Biso   1.000  C
  N25      1.0000 0.15300  0.27700  0.56020  Biso   1.000  N
  C24      1.0000 0.94630  0.18740  0.46250  Biso   1.000  C
  H17      1.0000 0.91400  0.30330  0.50110  Biso   1.000  H
  N26      1.0000 0.10950  0.13290  0.49120  Biso   1.000  N
  N27      1.0000 0.99740  0.10660  0.45100  Biso   1.000  N
  C25      1.0000 0.14690  0.16810  0.52010  Biso   1.000  C
  C26      1.0000 0.95290  0.12300  0.44810  Biso   1.000  C
  C27      1.0000 0.11880  0.07400  0.48060  Biso   1.000  C
  N28      1.0000 0.99450  0.04510  0.43770  Biso   1.000  N
  C28      1.0000 0.19450  0.14840  0.53740  Biso   1.000  C
  C29      1.0000 0.16610  0.05030  0.49950  Biso   1.000  C
  H18      1.0000 0.09360  0.04890  0.46050  Biso   1.000  H
  H19      1.0000 0.01790  0.02190  0.43620  Biso   1.000  H
  C30      1.0000 0.94980  0.02800  0.42750  Biso   1.000  C
  H20      1.0000 0.21970  0.17500  0.55560  Biso   1.000  H
  C31      1.0000 0.20330  0.08810  0.52670  Biso   1.000  C
  H21      1.0000 0.17210  0.00870  0.49350  Biso   1.000  H
  C32      1.0000 0.92620  0.96850  0.41080  Biso   1.000  C
  H22      1.0000 0.23500  0.07280  0.53800  Biso   1.000  H
  C33      1.0000 0.94800  0.91290  0.40730  Biso   1.000  C
  C34      1.0000 0.85110  0.92160  0.37540  Biso   1.000  C
  H23      1.0000 0.98170  0.91160  0.41650  Biso   1.000  H
  C35      1.0000 0.92280  0.86100  0.39130  Biso   1.000  C
  C36      1.0000 0.87330  0.86540  0.37460  Biso   1.000  C
  H24      1.0000 0.81740  0.92440  0.36230  Biso   1.000  H
  H25      1.0000 0.93820  0.82280  0.39150  Biso   1.000  H
  H26      1.0000 0.85450  0.82980  0.36250  Biso   1.000  H
  Na2      1.0000 0.02480  0.54040  0.20970  Biso   1.000  Na
  O94      1.0000 0.01440  0.53970  0.22860  Biso   1.000  O
  W31      1.0000 0.59319  0.31118  0.26028  Biso   1.000  W
  O95      1.0000 0.58560  0.25120  0.20970  Biso   1.000  O
  O96      1.0000 0.64370  0.27020  0.30540  Biso   1.000  O
  O97      1.0000 0.57370  0.35740  0.30770  Biso   1.000  O
  O98      1.0000 0.52520  0.33960  0.20900  Biso   1.000  O
  O99      1.0000 0.54070  0.24850  0.28260  Biso   1.000  O
  W32      1.0000 0.54955  0.19145  0.16051  Biso   1.000  W
  W33      1.0000 0.69327  0.20308  0.34071  Biso   1.000  W
  W34      1.0000 0.53188  0.31901  0.33799  Biso   1.000  W
  O100     1.0000 0.49760  0.25180  0.14080  Biso   1.000  O
  O101     1.0000 0.50810  0.12490  0.12570  Biso   1.000  O
  O102     1.0000 0.51900  0.16480  0.21720  Biso   1.000  O
  O103     1.0000 0.59800  0.12960  0.19380  Biso   1.000  O
  O104     1.0000 0.68760  0.23560  0.40070  Biso   1.000  O
  O105     1.0000 0.72270  0.13050  0.36950  Biso   1.000  O
  O106     1.0000 0.67050  0.16510  0.27710  Biso   1.000  O
  O107     1.0000 0.62500  0.15970  0.35090  Biso   1.000  O
  O108     1.0000 0.59450  0.27340  0.38180  Biso   1.000  O
  W35      1.0000 0.45321  0.08320  0.08273  Biso   1.000  W
  W36      1.0000 0.64996  0.08813  0.23967  Biso   1.000  W
  W37      1.0000 0.63267  0.21316  0.41911  Biso   1.000  W
  W38      1.0000 0.72280  0.03199  0.36769  Biso   1.000  W
  P5       1.0000 0.60840  0.09090  0.33713  Biso   1.000  P
  O109     1.0000 0.41740  0.16220  0.07730  Biso   1.000  O
  O110     1.0000 0.48200  0.00550  0.10050  Biso   1.000  O
  O111     1.0000 0.43690  0.07650  0.15020  Biso   1.000  O
  O112     1.0000 0.39130  0.04630  0.05100  Biso   1.000  O
  O113     1.0000 0.46680  0.09870  0.02850  Biso   1.000  O
  O114     1.0000 0.60020  0.07990  0.28260  Biso   1.000  O
  O115     1.0000 0.69440  0.04600  0.29980  Biso   1.000  O
  O116     1.0000 0.62180  0.00880  0.21620  Biso   1.000  O
  O117     1.0000 0.65150  0.24960  0.47780  Biso   1.000  O
  O118     1.0000 0.67390  0.13380  0.45090  Biso   1.000  O
  O119     1.0000 0.78490  0.03220  0.37640  Biso   1.000  O
  O120     1.0000 0.73220  0.04010  0.43810  Biso   1.000  O
  O121     1.0000 0.71270  0.94940  0.36450  Biso   1.000  O
  O122     1.0000 0.65090  0.04850  0.37160  Biso   1.000  O
  W39      1.0000 0.49020  0.91522  0.11214  Biso   1.000  W
  W40      1.0000 0.32324  0.04902  0.04202  Biso   1.000  W
  Cu13     1.0000 0.51847  0.14688  0.01196  Biso   1.000  Cu
  Cu14     1.0000 0.72198  0.08501  0.13811  Biso   1.000  Cu
  W41      1.0000 0.61353  0.92109  0.21183  Biso   1.000  W
  Cu15     1.0000 0.65258  0.31636  0.52662  Biso   1.000  Cu
  Cu16     1.0000 0.85160  0.06004  0.39897  Biso   1.000  Cu
  W42      1.0000 0.68555  0.86181  0.33497  Biso   1.000  W
  O123     1.0000 0.42230  0.90560  0.07800  Biso   1.000  O
  O124     1.0000 0.46870  0.93900  0.17490  Biso   1.000  O
  O125     1.0000 0.50730  0.90150  0.06050  Biso   1.000  O
  O126     1.0000 0.49190  0.83200  0.13380  Biso   1.000  O
  O127     1.0000 0.55250  0.93310  0.15850  Biso   1.000  O
  O128     1.0000 0.33150  0.95610  0.05670  Biso   1.000  O
  O129     1.0000 0.72290  0.99650  0.14430  Biso   1.000  O
  N29      1.0000 0.65120  0.07740  0.09270  Biso   1.000  N
  O130     1.0000 0.56910  0.93950  0.25790  Biso   1.000  O
  O131     1.0000 0.66430  0.90810  0.27440  Biso   1.000  O
  O132     1.0000 0.59380  0.83530  0.21700  Biso   1.000  O
  O133     1.0000 0.83250  0.14420  0.40950  Biso   1.000  O
  N30      1.0000 0.92150  0.07670  0.43340  Biso   1.000  N
  N31      1.0000 0.87730  0.97190  0.39470  Biso   1.000  N
  O134     1.0000 0.68910  0.84510  0.40170  Biso   1.000  O
  O135     1.0000 0.64530  0.79760  0.30590  Biso   1.000  O
  O136     1.0000 0.61890  0.90630  0.34560  Biso   1.000  O
  W43      1.0000 0.35899  0.87889  0.07413  Biso   1.000  W
  P6       1.0000 0.43300  0.90683  0.19549  Biso   1.000  P
  W44      1.0000 0.45552  0.76602  0.15060  Biso   1.000  W
  Cu17     1.0000 0.67027  0.94330  0.11062  Biso   1.000  Cu
  H27      1.0000 0.75140  0.97790  0.16550  Biso   1.000  H
  N32      1.0000 0.62880  0.01990  0.09050  Biso   1.000  N
  W45      1.0000 0.58139  0.76596  0.25156  Biso   1.000  W
  H28      1.0000 0.81480  0.16730  0.38140  Biso   1.000  H
  O137     1.0000 0.40030  0.80090  0.10940  Biso   1.000  O
  O138     1.0000 0.44770  0.83750  0.20790  Biso   1.000  O
  N33      1.0000 0.42860  0.91240  0.95030  Biso   1.000  N
  N34      1.0000 0.42430  0.80260  0.98660  Biso   1.000  N
  N35      1.0000 0.52570  0.77880  0.01130  Biso   1.000  N
  O139     1.0000 0.42800  0.72300  0.19300  Biso   1.000  O
  O140     1.0000 0.52050  0.75340  0.20830  Biso   1.000  O
  N36      1.0000 0.91160  0.21410  0.47460  Biso   1.000  N
  C37      1.0000 0.41790  0.97210  0.93510  Biso   1.000  C
  C38      1.0000 0.38240  0.88480  0.93240  Biso   1.000  C
  N37      1.0000 0.41550  0.74430  0.99880  Biso   1.000  N
  C39      1.0000 0.38130  0.82040  0.95030  Biso   1.000  C
  N38      1.0000 0.51530  0.72390  0.02940  Biso   1.000  N
  C40      1.0000 0.56970  0.77220  0.00960  Biso   1.000  C
  Cu18     1.0000 0.45615  0.67689  0.03222  Biso   1.000  Cu
  H29      1.0000 0.44080  0.00410  0.94190  Biso   1.000  H
  C41      1.0000 0.37030  0.73010  0.97110  Biso   1.000  C
  N39      1.0000 0.34700  0.77700  0.93980  Biso   1.000  N
  C42      1.0000 0.55370  0.68740  0.03750  Biso   1.000  C
  H30      1.0000 0.58600  0.80330  0.99890  Biso   1.000  H
  N40      1.0000 0.39050  0.63290  0.00880  Biso   1.000  N
  N41      1.0000 0.50260  0.60660  0.04900  Biso   1.000  N
  C43      1.0000 0.35310  0.66810  0.97990  Biso   1.000  C
  C44      1.0000 0.54710  0.62300  0.05190  Biso   1.000  C
  C45      1.0000 0.38120  0.57400  0.01940  Biso   1.000  C
  N42      1.0000 0.50550  0.54510  0.06230  Biso   1.000  N
  C46      1.0000 0.30550  0.64840  0.96260  Biso   1.000  C
  C47      1.0000 0.33390  0.55030  0.00050  Biso   1.000  C
  H31      1.0000 0.40640  0.54890  0.03950  Biso   1.000  H
  H32      1.0000 0.48210  0.52190  0.06380  Biso   1.000  H
  C48      1.0000 0.55020  0.52800  0.07250  Biso   1.000  C
  H33      1.0000 0.28030  0.67500  0.94440  Biso   1.000  H
  C49      1.0000 0.29670  0.58810  0.97330  Biso   1.000  C
  H34      1.0000 0.32790  0.50870  0.00650  Biso   1.000  H
  C50      1.0000 0.57380  0.46850  0.08920  Biso   1.000  C
  H35      1.0000 0.26500  0.57280  0.96200  Biso   1.000  H
  C51      1.0000 0.55200  0.41290  0.09270  Biso   1.000  C
  C52      1.0000 0.64890  0.42160  0.12460  Biso   1.000  C
  H36      1.0000 0.51830  0.41160  0.08350  Biso   1.000  H
  C53      1.0000 0.57720  0.36100  0.10870  Biso   1.000  C
  C54      1.0000 0.62670  0.36540  0.12540  Biso   1.000  C
  H37      1.0000 0.68260  0.42440  0.13770  Biso   1.000  H
  H38      1.0000 0.56180  0.32280  0.10850  Biso   1.000  H
  H39      1.0000 0.64550  0.32980  0.13750  Biso   1.000  H
  Na3      1.0000 0.47520  0.04040  0.29030  Biso   1.000  Na
  O141     1.0000 0.48560  0.03970  0.27140  Biso   1.000  O
  W46      1.0000 0.09319  0.81118  0.26028  Biso   1.000  W
  O142     1.0000 0.08560  0.75120  0.20970  Biso   1.000  O
  O143     1.0000 0.14370  0.77020  0.30540  Biso   1.000  O
  O144     1.0000 0.07370  0.85740  0.30770  Biso   1.000  O
  O145     1.0000 0.02520  0.83960  0.20900  Biso   1.000  O
  O146     1.0000 0.04070  0.74850  0.28260  Biso   1.000  O
  W47      1.0000 0.04955  0.69145  0.16051  Biso   1.000  W
  W48      1.0000 0.19327  0.70308  0.34071  Biso   1.000  W
  W49      1.0000 0.03188  0.81901  0.33799  Biso   1.000  W
  O147     1.0000 0.99760  0.75180  0.14080  Biso   1.000  O
  O148     1.0000 0.00810  0.62490  0.12570  Biso   1.000  O
  O149     1.0000 0.01900  0.66480  0.21720  Biso   1.000  O
  O150     1.0000 0.09800  0.62960  0.19380  Biso   1.000  O
  O151     1.0000 0.18760  0.73560  0.40070  Biso   1.000  O
  O152     1.0000 0.22270  0.63050  0.36950  Biso   1.000  O
  O153     1.0000 0.17050  0.66510  0.27710  Biso   1.000  O
  O154     1.0000 0.12500  0.65970  0.35090  Biso   1.000  O
  O155     1.0000 0.09450  0.77340  0.38180  Biso   1.000  O
  W50      1.0000 0.95321  0.58320  0.08273  Biso   1.000  W
  W51      1.0000 0.14996  0.58813  0.23967  Biso   1.000  W
  W52      1.0000 0.13267  0.71316  0.41911  Biso   1.000  W
  W53      1.0000 0.22280  0.53199  0.36769  Biso   1.000  W
  P7       1.0000 0.10840  0.59090  0.33713  Biso   1.000  P
  O156     1.0000 0.91740  0.66220  0.07730  Biso   1.000  O
  O157     1.0000 0.98200  0.50550  0.10050  Biso   1.000  O
  O158     1.0000 0.93690  0.57650  0.15020  Biso   1.000  O
  O159     1.0000 0.89130  0.54630  0.05100  Biso   1.000  O
  O160     1.0000 0.96680  0.59870  0.02850  Biso   1.000  O
  O161     1.0000 0.10020  0.57990  0.28260  Biso   1.000  O
  O162     1.0000 0.19440  0.54600  0.29980  Biso   1.000  O
  O163     1.0000 0.12180  0.50880  0.21620  Biso   1.000  O
  O164     1.0000 0.15150  0.74960  0.47780  Biso   1.000  O
  O165     1.0000 0.17390  0.63380  0.45090  Biso   1.000  O
  O166     1.0000 0.28490  0.53220  0.37640  Biso   1.000  O
  O167     1.0000 0.23220  0.54010  0.43810  Biso   1.000  O
  O168     1.0000 0.21270  0.44940  0.36450  Biso   1.000  O
  O169     1.0000 0.15090  0.54850  0.37160  Biso   1.000  O
  W54      1.0000 0.99020  0.41522  0.11214  Biso   1.000  W
  W55      1.0000 0.82324  0.54902  0.04202  Biso   1.000  W
  Cu19     1.0000 0.01847  0.64688  0.01196  Biso   1.000  Cu
  Cu20     1.0000 0.22198  0.58501  0.13811  Biso   1.000  Cu
  W56      1.0000 0.11353  0.42109  0.21183  Biso   1.000  W
  Cu21     1.0000 0.15258  0.81636  0.52662  Biso   1.000  Cu
  Cu22     1.0000 0.35160  0.56004  0.39897  Biso   1.000  Cu
  W57      1.0000 0.18555  0.36181  0.33497  Biso   1.000  W
  O170     1.0000 0.92230  0.40560  0.07800  Biso   1.000  O
  O171     1.0000 0.96870  0.43900  0.17490  Biso   1.000  O
  O172     1.0000 0.00730  0.40150  0.06050  Biso   1.000  O
  O173     1.0000 0.99190  0.33200  0.13380  Biso   1.000  O
  O174     1.0000 0.05250  0.43310  0.15850  Biso   1.000  O
  O175     1.0000 0.83150  0.45610  0.05670  Biso   1.000  O
  O176     1.0000 0.22290  0.49650  0.14430  Biso   1.000  O
  N43      1.0000 0.15120  0.57740  0.09270  Biso   1.000  N
  O177     1.0000 0.06910  0.43950  0.25790  Biso   1.000  O
  O178     1.0000 0.16430  0.40810  0.27440  Biso   1.000  O
  O179     1.0000 0.09380  0.33530  0.21700  Biso   1.000  O
  O180     1.0000 0.33250  0.64420  0.40950  Biso   1.000  O
  N44      1.0000 0.42150  0.57670  0.43340  Biso   1.000  N
  N45      1.0000 0.37730  0.47190  0.39470  Biso   1.000  N
  O181     1.0000 0.18910  0.34510  0.40170  Biso   1.000  O
  O182     1.0000 0.14530  0.29760  0.30590  Biso   1.000  O
  O183     1.0000 0.11890  0.40630  0.34560  Biso   1.000  O
  W58      1.0000 0.85899  0.37889  0.07413  Biso   1.000  W
  P8       1.0000 0.93300  0.40683  0.19549  Biso   1.000  P
  W59      1.0000 0.95552  0.26602  0.15060  Biso   1.000  W
  Cu23     1.0000 0.17027  0.44330  0.11062  Biso   1.000  Cu
  H40      1.0000 0.25140  0.47790  0.16550  Biso   1.000  H
  N46      1.0000 0.12880  0.51990  0.09050  Biso   1.000  N
  W60      1.0000 0.08139  0.26596  0.25156  Biso   1.000  W
  H41      1.0000 0.31480  0.66730  0.38140  Biso   1.000  H
  O184     1.0000 0.90030  0.30090  0.10940  Biso   1.000  O
  O185     1.0000 0.94770  0.33750  0.20790  Biso   1.000  O
  N47      1.0000 0.92860  0.41240  0.95030  Biso   1.000  N
  N48      1.0000 0.92430  0.30260  0.98660  Biso   1.000  N
  N49      1.0000 0.02570  0.27880  0.01130  Biso   1.000  N
  O186     1.0000 0.92800  0.22300  0.19300  Biso   1.000  O
  O187     1.0000 0.02050  0.25340  0.20830  Biso   1.000  O
  N50      1.0000 0.41160  0.71410  0.47460  Biso   1.000  N
  C55      1.0000 0.91790  0.47210  0.93510  Biso   1.000  C
  C56      1.0000 0.88240  0.38480  0.93240  Biso   1.000  C
  N51      1.0000 0.91550  0.24430  0.99880  Biso   1.000  N
  C57      1.0000 0.88130  0.32040  0.95030  Biso   1.000  C
  N52      1.0000 0.01530  0.22390  0.02940  Biso   1.000  N
  C58      1.0000 0.06970  0.27220  0.00960  Biso   1.000  C
  Cu24     1.0000 0.95615  0.17689  0.03222  Biso   1.000  Cu
  H42      1.0000 0.94080  0.50410  0.94190  Biso   1.000  H
  C59      1.0000 0.87030  0.23010  0.97110  Biso   1.000  C
  N53      1.0000 0.84700  0.27700  0.93980  Biso   1.000  N
  C60      1.0000 0.05370  0.18740  0.03750  Biso   1.000  C
  H43      1.0000 0.08600  0.30330  0.99890  Biso   1.000  H
  N54      1.0000 0.89050  0.13290  0.00880  Biso   1.000  N
  N55      1.0000 0.00260  0.10660  0.04900  Biso   1.000  N
  C61      1.0000 0.85310  0.16810  0.97990  Biso   1.000  C
  C62      1.0000 0.04710  0.12300  0.05190  Biso   1.000  C
  C63      1.0000 0.88120  0.07400  0.01940  Biso   1.000  C
  N56      1.0000 0.00550  0.04510  0.06230  Biso   1.000  N
  C64      1.0000 0.80550  0.14840  0.96260  Biso   1.000  C
  C65      1.0000 0.83390  0.05030  0.00050  Biso   1.000  C
  H44      1.0000 0.90640  0.04890  0.03950  Biso   1.000  H
  H45      1.0000 0.98210  0.02190  0.06380  Biso   1.000  H
  C66      1.0000 0.05020  0.02800  0.07250  Biso   1.000  C
  H46      1.0000 0.78030  0.17500  0.94440  Biso   1.000  H
  C67      1.0000 0.79670  0.08810  0.97330  Biso   1.000  C
  H47      1.0000 0.82790  0.00870  0.00650  Biso   1.000  H
  C68      1.0000 0.07380  0.96850  0.08920  Biso   1.000  C
  H48      1.0000 0.76500  0.07280  0.96200  Biso   1.000  H
  C69      1.0000 0.05200  0.91290  0.09270  Biso   1.000  C
  C70      1.0000 0.14890  0.92160  0.12460  Biso   1.000  C
  H49      1.0000 0.01830  0.91160  0.08350  Biso   1.000  H
  C71      1.0000 0.07720  0.86100  0.10870  Biso   1.000  C
  C72      1.0000 0.12670  0.86540  0.12540  Biso   1.000  C
  H50      1.0000 0.18260  0.92440  0.13770  Biso   1.000  H
  H51      1.0000 0.06180  0.82280  0.10850  Biso   1.000  H
  H52      1.0000 0.14550  0.82980  0.13750  Biso   1.000  H
  Na4      1.0000 0.97520  0.54040  0.29030  Biso   1.000  Na
  O188     1.0000 0.98560  0.53970  0.27140  Biso   1.000  O
  W61      1.0000 0.59319  0.68882  0.76028  Biso   1.000  W
  O189     1.0000 0.58560  0.74880  0.70970  Biso   1.000  O
  O190     1.0000 0.64370  0.72980  0.80540  Biso   1.000  O
  O191     1.0000 0.57370  0.64260  0.80770  Biso   1.000  O
  O192     1.0000 0.52520  0.66040  0.70900  Biso   1.000  O
  O193     1.0000 0.54070  0.75150  0.78260  Biso   1.000  O
  W62      1.0000 0.54955  0.80855  0.66051  Biso   1.000  W
  W63      1.0000 0.69327  0.79692  0.84071  Biso   1.000  W
  W64      1.0000 0.53188  0.68099  0.83799  Biso   1.000  W
  O194     1.0000 0.49760  0.74820  0.64080  Biso   1.000  O
  O195     1.0000 0.50810  0.87510  0.62570  Biso   1.000  O
  O196     1.0000 0.51900  0.83520  0.71720  Biso   1.000  O
  O197     1.0000 0.59800  0.87040  0.69380  Biso   1.000  O
  O198     1.0000 0.68760  0.76440  0.90070  Biso   1.000  O
  O199     1.0000 0.72270  0.86950  0.86950  Biso   1.000  O
  O200     1.0000 0.67050  0.83490  0.77710  Biso   1.000  O
  O201     1.0000 0.62500  0.84030  0.85090  Biso   1.000  O
  O202     1.0000 0.59450  0.72660  0.88180  Biso   1.000  O
  W65      1.0000 0.45321  0.91680  0.58273  Biso   1.000  W
  W66      1.0000 0.64996  0.91187  0.73967  Biso   1.000  W
  W67      1.0000 0.63267  0.78684  0.91911  Biso   1.000  W
  W68      1.0000 0.72280  0.96801  0.86769  Biso   1.000  W
  P9       1.0000 0.60840  0.90910  0.83713  Biso   1.000  P
  O203     1.0000 0.41740  0.83780  0.57730  Biso   1.000  O
  O204     1.0000 0.48200  0.99450  0.60050  Biso   1.000  O
  O205     1.0000 0.43690  0.92350  0.65020  Biso   1.000  O
  O206     1.0000 0.39130  0.95370  0.55100  Biso   1.000  O
  O207     1.0000 0.46680  0.90130  0.52850  Biso   1.000  O
  O208     1.0000 0.60020  0.92010  0.78260  Biso   1.000  O
  O209     1.0000 0.69440  0.95400  0.79980  Biso   1.000  O
  O210     1.0000 0.62180  0.99120  0.71620  Biso   1.000  O
  O211     1.0000 0.65150  0.75040  0.97780  Biso   1.000  O
  O212     1.0000 0.67390  0.86620  0.95090  Biso   1.000  O
  O213     1.0000 0.78490  0.96780  0.87640  Biso   1.000  O
  O214     1.0000 0.73220  0.95990  0.93810  Biso   1.000  O
  O215     1.0000 0.71270  0.05060  0.86450  Biso   1.000  O
  O216     1.0000 0.65090  0.95150  0.87160  Biso   1.000  O
  W69      1.0000 0.49020  0.08478  0.61214  Biso   1.000  W
  W70      1.0000 0.32324  0.95098  0.54202  Biso   1.000  W
  Cu25     1.0000 0.51847  0.85312  0.51196  Biso   1.000  Cu
  Cu26     1.0000 0.72198  0.91499  0.63811  Biso   1.000  Cu
  W71      1.0000 0.61353  0.07891  0.71183  Biso   1.000  W
  Cu27     1.0000 0.65258  0.68364  0.02662  Biso   1.000  Cu
  Cu28     1.0000 0.85160  0.93996  0.89897  Biso   1.000  Cu
  W72      1.0000 0.68555  0.13819  0.83497  Biso   1.000  W
  O217     1.0000 0.42230  0.09440  0.57800  Biso   1.000  O
  O218     1.0000 0.46870  0.06100  0.67490  Biso   1.000  O
  O219     1.0000 0.50730  0.09850  0.56050  Biso   1.000  O
  O220     1.0000 0.49190  0.16800  0.63380  Biso   1.000  O
  O221     1.0000 0.55250  0.06690  0.65850  Biso   1.000  O
  O222     1.0000 0.33150  0.04390  0.55670  Biso   1.000  O
  O223     1.0000 0.72290  0.00350  0.64430  Biso   1.000  O
  N57      1.0000 0.65120  0.92260  0.59270  Biso   1.000  N
  O224     1.0000 0.56910  0.06050  0.75790  Biso   1.000  O
  O225     1.0000 0.66430  0.09190  0.77440  Biso   1.000  O
  O226     1.0000 0.59380  0.16470  0.71700  Biso   1.000  O
  O227     1.0000 0.83250  0.85580  0.90950  Biso   1.000  O
  N58      1.0000 0.92150  0.92330  0.93340  Biso   1.000  N
  N59      1.0000 0.87730  0.02810  0.89470  Biso   1.000  N
  O228     1.0000 0.68910  0.15490  0.90170  Biso   1.000  O
  O229     1.0000 0.64530  0.20240  0.80590  Biso   1.000  O
  O230     1.0000 0.61890  0.09370  0.84560  Biso   1.000  O
  W73      1.0000 0.35899  0.12111  0.57413  Biso   1.000  W
  P10      1.0000 0.43300  0.09317  0.69549  Biso   1.000  P
  W74      1.0000 0.45552  0.23398  0.65060  Biso   1.000  W
  Cu29     1.0000 0.67027  0.05670  0.61062  Biso   1.000  Cu
  H53      1.0000 0.75140  0.02210  0.66550  Biso   1.000  H
  N60      1.0000 0.62880  0.98010  0.59050  Biso   1.000  N
  W75      1.0000 0.58139  0.23404  0.75156  Biso   1.000  W
  H54      1.0000 0.81480  0.83270  0.88140  Biso   1.000  H
  O231     1.0000 0.40030  0.19910  0.60940  Biso   1.000  O
  O232     1.0000 0.44770  0.16250  0.70790  Biso   1.000  O
  N61      1.0000 0.42860  0.08760  0.45030  Biso   1.000  N
  N62      1.0000 0.42430  0.19740  0.48660  Biso   1.000  N
  N63      1.0000 0.52570  0.22120  0.51130  Biso   1.000  N
  O233     1.0000 0.42800  0.27700  0.69300  Biso   1.000  O
  O234     1.0000 0.52050  0.24660  0.70830  Biso   1.000  O
  N64      1.0000 0.91160  0.78590  0.97460  Biso   1.000  N
  C73      1.0000 0.41790  0.02790  0.43510  Biso   1.000  C
  C74      1.0000 0.38240  0.11520  0.43240  Biso   1.000  C
  N65      1.0000 0.41550  0.25570  0.49880  Biso   1.000  N
  C75      1.0000 0.38130  0.17960  0.45030  Biso   1.000  C
  N66      1.0000 0.51530  0.27610  0.52940  Biso   1.000  N
  C76      1.0000 0.56970  0.22780  0.50960  Biso   1.000  C
  Cu30     1.0000 0.45615  0.32311  0.53222  Biso   1.000  Cu
  H55      1.0000 0.44080  0.99590  0.44190  Biso   1.000  H
  C77      1.0000 0.37030  0.26990  0.47110  Biso   1.000  C
  N67      1.0000 0.34700  0.22300  0.43980  Biso   1.000  N
  C78      1.0000 0.55370  0.31260  0.53750  Biso   1.000  C
  H56      1.0000 0.58600  0.19670  0.49890  Biso   1.000  H
  N68      1.0000 0.39050  0.36710  0.50880  Biso   1.000  N
  N69      1.0000 0.50260  0.39340  0.54900  Biso   1.000  N
  C79      1.0000 0.35310  0.33190  0.47990  Biso   1.000  C
  C80      1.0000 0.54710  0.37700  0.55190  Biso   1.000  C
  C81      1.0000 0.38120  0.42600  0.51940  Biso   1.000  C
  N70      1.0000 0.50550  0.45490  0.56230  Biso   1.000  N
  C82      1.0000 0.30550  0.35160  0.46260  Biso   1.000  C
  C83      1.0000 0.33390  0.44970  0.50050  Biso   1.000  C
  H57      1.0000 0.40640  0.45110  0.53950  Biso   1.000  H
  H58      1.0000 0.48210  0.47810  0.56380  Biso   1.000  H
  C84      1.0000 0.55020  0.47200  0.57250  Biso   1.000  C
  H59      1.0000 0.28030  0.32500  0.44440  Biso   1.000  H
  C85      1.0000 0.29670  0.41190  0.47330  Biso   1.000  C
  H60      1.0000 0.32790  0.49130  0.50650  Biso   1.000  H
  C86      1.0000 0.57380  0.53150  0.58920  Biso   1.000  C
  H61      1.0000 0.26500  0.42720  0.46200  Biso   1.000  H
  C87      1.0000 0.55200  0.58710  0.59270  Biso   1.000  C
  C88      1.0000 0.64890  0.57840  0.62460  Biso   1.000  C
  H62      1.0000 0.51830  0.58840  0.58350  Biso   1.000  H
  C89      1.0000 0.57720  0.63900  0.60870  Biso   1.000  C
  C90      1.0000 0.62670  0.63460  0.62540  Biso   1.000  C
  H63      1.0000 0.68260  0.57560  0.63770  Biso   1.000  H
  H64      1.0000 0.56180  0.67720  0.60850  Biso   1.000  H
  H65      1.0000 0.64550  0.67020  0.63750  Biso   1.000  H
  Na5      1.0000 0.47520  0.95960  0.79030  Biso   1.000  Na
  O235     1.0000 0.48560  0.96030  0.77140  Biso   1.000  O
  W76      1.0000 0.09319  0.18882  0.76028  Biso   1.000  W
  O236     1.0000 0.08560  0.24880  0.70970  Biso   1.000  O
  O237     1.0000 0.14370  0.22980  0.80540  Biso   1.000  O
  O238     1.0000 0.07370  0.14260  0.80770  Biso   1.000  O
  O239     1.0000 0.02520  0.16040  0.70900  Biso   1.000  O
  O240     1.0000 0.04070  0.25150  0.78260  Biso   1.000  O
  W77      1.0000 0.04955  0.30855  0.66051  Biso   1.000  W
  W78      1.0000 0.19327  0.29692  0.84071  Biso   1.000  W
  W79      1.0000 0.03188  0.18099  0.83799  Biso   1.000  W
  O241     1.0000 0.99760  0.24820  0.64080  Biso   1.000  O
  O242     1.0000 0.00810  0.37510  0.62570  Biso   1.000  O
  O243     1.0000 0.01900  0.33520  0.71720  Biso   1.000  O
  O244     1.0000 0.09800  0.37040  0.69380  Biso   1.000  O
  O245     1.0000 0.18760  0.26440  0.90070  Biso   1.000  O
  O246     1.0000 0.22270  0.36950  0.86950  Biso   1.000  O
  O247     1.0000 0.17050  0.33490  0.77710  Biso   1.000  O
  O248     1.0000 0.12500  0.34030  0.85090  Biso   1.000  O
  O249     1.0000 0.09450  0.22660  0.88180  Biso   1.000  O
  W80      1.0000 0.95321  0.41680  0.58273  Biso   1.000  W
  W81      1.0000 0.14996  0.41187  0.73967  Biso   1.000  W
  W82      1.0000 0.13267  0.28684  0.91911  Biso   1.000  W
  W83      1.0000 0.22280  0.46801  0.86769  Biso   1.000  W
  P11      1.0000 0.10840  0.40910  0.83713  Biso   1.000  P
  O250     1.0000 0.91740  0.33780  0.57730  Biso   1.000  O
  O251     1.0000 0.98200  0.49450  0.60050  Biso   1.000  O
  O252     1.0000 0.93690  0.42350  0.65020  Biso   1.000  O
  O253     1.0000 0.89130  0.45370  0.55100  Biso   1.000  O
  O254     1.0000 0.96680  0.40130  0.52850  Biso   1.000  O
  O255     1.0000 0.10020  0.42010  0.78260  Biso   1.000  O
  O256     1.0000 0.19440  0.45400  0.79980  Biso   1.000  O
  O257     1.0000 0.12180  0.49120  0.71620  Biso   1.000  O
  O258     1.0000 0.15150  0.25040  0.97780  Biso   1.000  O
  O259     1.0000 0.17390  0.36620  0.95090  Biso   1.000  O
  O260     1.0000 0.28490  0.46780  0.87640  Biso   1.000  O
  O261     1.0000 0.23220  0.45990  0.93810  Biso   1.000  O
  O262     1.0000 0.21270  0.55060  0.86450  Biso   1.000  O
  O263     1.0000 0.15090  0.45150  0.87160  Biso   1.000  O
  W84      1.0000 0.99020  0.58478  0.61214  Biso   1.000  W
  W85      1.0000 0.82324  0.45098  0.54202  Biso   1.000  W
  Cu31     1.0000 0.01847  0.35312  0.51196  Biso   1.000  Cu
  Cu32     1.0000 0.22198  0.41499  0.63811  Biso   1.000  Cu
  W86      1.0000 0.11353  0.57891  0.71183  Biso   1.000  W
  Cu33     1.0000 0.15258  0.18364  0.02662  Biso   1.000  Cu
  Cu34     1.0000 0.35160  0.43996  0.89897  Biso   1.000  Cu
  W87      1.0000 0.18555  0.63819  0.83497  Biso   1.000  W
  O264     1.0000 0.92230  0.59440  0.57800  Biso   1.000  O
  O265     1.0000 0.96870  0.56100  0.67490  Biso   1.000  O
  O266     1.0000 0.00730  0.59850  0.56050  Biso   1.000  O
  O267     1.0000 0.99190  0.66800  0.63380  Biso   1.000  O
  O268     1.0000 0.05250  0.56690  0.65850  Biso   1.000  O
  O269     1.0000 0.83150  0.54390  0.55670  Biso   1.000  O
  O270     1.0000 0.22290  0.50350  0.64430  Biso   1.000  O
  N71      1.0000 0.15120  0.42260  0.59270  Biso   1.000  N
  O271     1.0000 0.06910  0.56050  0.75790  Biso   1.000  O
  O272     1.0000 0.16430  0.59190  0.77440  Biso   1.000  O
  O273     1.0000 0.09380  0.66470  0.71700  Biso   1.000  O
  O274     1.0000 0.33250  0.35580  0.90950  Biso   1.000  O
  N72      1.0000 0.42150  0.42330  0.93340  Biso   1.000  N
  N73      1.0000 0.37730  0.52810  0.89470  Biso   1.000  N
  O275     1.0000 0.18910  0.65490  0.90170  Biso   1.000  O
  O276     1.0000 0.14530  0.70240  0.80590  Biso   1.000  O
  O277     1.0000 0.11890  0.59370  0.84560  Biso   1.000  O
  W88      1.0000 0.85899  0.62111  0.57413  Biso   1.000  W
  P12      1.0000 0.93300  0.59317  0.69549  Biso   1.000  P
  W89      1.0000 0.95552  0.73398  0.65060  Biso   1.000  W
  Cu35     1.0000 0.17027  0.55670  0.61062  Biso   1.000  Cu
  H66      1.0000 0.25140  0.52210  0.66550  Biso   1.000  H
  N74      1.0000 0.12880  0.48010  0.59050  Biso   1.000  N
  W90      1.0000 0.08139  0.73404  0.75156  Biso   1.000  W
  H67      1.0000 0.31480  0.33270  0.88140  Biso   1.000  H
  O278     1.0000 0.90030  0.69910  0.60940  Biso   1.000  O
  O279     1.0000 0.94770  0.66250  0.70790  Biso   1.000  O
  N75      1.0000 0.92860  0.58760  0.45030  Biso   1.000  N
  N76      1.0000 0.92430  0.69740  0.48660  Biso   1.000  N
  N77      1.0000 0.02570  0.72120  0.51130  Biso   1.000  N
  O280     1.0000 0.92800  0.77700  0.69300  Biso   1.000  O
  O281     1.0000 0.02050  0.74660  0.70830  Biso   1.000  O
  N78      1.0000 0.41160  0.28590  0.97460  Biso   1.000  N
  C91      1.0000 0.91790  0.52790  0.43510  Biso   1.000  C
  C92      1.0000 0.88240  0.61520  0.43240  Biso   1.000  C
  N79      1.0000 0.91550  0.75570  0.49880  Biso   1.000  N
  C93      1.0000 0.88130  0.67960  0.45030  Biso   1.000  C
  N80      1.0000 0.01530  0.77610  0.52940  Biso   1.000  N
  C94      1.0000 0.06970  0.72780  0.50960  Biso   1.000  C
  Cu36     1.0000 0.95615  0.82311  0.53222  Biso   1.000  Cu
  H68      1.0000 0.94080  0.49590  0.44190  Biso   1.000  H
  C95      1.0000 0.87030  0.76990  0.47110  Biso   1.000  C
  N81      1.0000 0.84700  0.72300  0.43980  Biso   1.000  N
  C96      1.0000 0.05370  0.81260  0.53750  Biso   1.000  C
  H69      1.0000 0.08600  0.69670  0.49890  Biso   1.000  H
  N82      1.0000 0.89050  0.86710  0.50880  Biso   1.000  N
  N83      1.0000 0.00260  0.89340  0.54900  Biso   1.000  N
  C97      1.0000 0.85310  0.83190  0.47990  Biso   1.000  C
  C98      1.0000 0.04710  0.87700  0.55190  Biso   1.000  C
  C99      1.0000 0.88120  0.92600  0.51940  Biso   1.000  C
  N84      1.0000 0.00550  0.95490  0.56230  Biso   1.000  N
  C100     1.0000 0.80550  0.85160  0.46260  Biso   1.000  C
  C101     1.0000 0.83390  0.94970  0.50050  Biso   1.000  C
  H70      1.0000 0.90640  0.95110  0.53950  Biso   1.000  H
  H71      1.0000 0.98210  0.97810  0.56380  Biso   1.000  H
  C102     1.0000 0.05020  0.97200  0.57250  Biso   1.000  C
  H72      1.0000 0.78030  0.82500  0.44440  Biso   1.000  H
  C103     1.0000 0.79670  0.91190  0.47330  Biso   1.000  C
  H73      1.0000 0.82790  0.99130  0.50650  Biso   1.000  H
  C104     1.0000 0.07380  0.03150  0.58920  Biso   1.000  C
  H74      1.0000 0.76500  0.92720  0.46200  Biso   1.000  H
  C105     1.0000 0.05200  0.08710  0.59270  Biso   1.000  C
  C106     1.0000 0.14890  0.07840  0.62460  Biso   1.000  C
  H75      1.0000 0.01830  0.08840  0.58350  Biso   1.000  H
  C107     1.0000 0.07720  0.13900  0.60870  Biso   1.000  C
  C108     1.0000 0.12670  0.13460  0.62540  Biso   1.000  C
  H76      1.0000 0.18260  0.07560  0.63770  Biso   1.000  H
  H77      1.0000 0.06180  0.17720  0.60850  Biso   1.000  H
  H78      1.0000 0.14550  0.17020  0.63750  Biso   1.000  H
  Na6      1.0000 0.97520  0.45960  0.79030  Biso   1.000  Na
  O282     1.0000 0.98560  0.46030  0.77140  Biso   1.000  O
  W91      1.0000 0.40681  0.68882  0.73972  Biso   1.000  W
  O283     1.0000 0.41440  0.74880  0.79030  Biso   1.000  O
  O284     1.0000 0.35630  0.72980  0.69460  Biso   1.000  O
  O285     1.0000 0.42630  0.64260  0.69230  Biso   1.000  O
  O286     1.0000 0.47480  0.66040  0.79100  Biso   1.000  O
  O287     1.0000 0.45930  0.75150  0.71740  Biso   1.000  O
  W92      1.0000 0.45045  0.80855  0.83949  Biso   1.000  W
  W93      1.0000 0.30673  0.79692  0.65929  Biso   1.000  W
  W94      1.0000 0.46812  0.68099  0.66201  Biso   1.000  W
  O288     1.0000 0.50240  0.74820  0.85920  Biso   1.000  O
  O289     1.0000 0.49190  0.87510  0.87430  Biso   1.000  O
  O290     1.0000 0.48100  0.83520  0.78280  Biso   1.000  O
  O291     1.0000 0.40200  0.87040  0.80620  Biso   1.000  O
  O292     1.0000 0.31240  0.76440  0.59930  Biso   1.000  O
  O293     1.0000 0.27730  0.86950  0.63050  Biso   1.000  O
  O294     1.0000 0.32950  0.83490  0.72290  Biso   1.000  O
  O295     1.0000 0.37500  0.84030  0.64910  Biso   1.000  O
  O296     1.0000 0.40550  0.72660  0.61820  Biso   1.000  O
  W95      1.0000 0.54679  0.91680  0.91727  Biso   1.000  W
  W96      1.0000 0.35004  0.91187  0.76033  Biso   1.000  W
  W97      1.0000 0.36733  0.78684  0.58089  Biso   1.000  W
  W98      1.0000 0.27720  0.96801  0.63231  Biso   1.000  W
  P13      1.0000 0.39160  0.90910  0.66287  Biso   1.000  P
  O297     1.0000 0.58260  0.83780  0.92270  Biso   1.000  O
  O298     1.0000 0.51800  0.99450  0.89950  Biso   1.000  O
  O299     1.0000 0.56310  0.92350  0.84980  Biso   1.000  O
  O300     1.0000 0.60870  0.95370  0.94900  Biso   1.000  O
  O301     1.0000 0.53320  0.90130  0.97150  Biso   1.000  O
  O302     1.0000 0.39980  0.92010  0.71740  Biso   1.000  O
  O303     1.0000 0.30560  0.95400  0.70020  Biso   1.000  O
  O304     1.0000 0.37820  0.99120  0.78380  Biso   1.000  O
  O305     1.0000 0.34850  0.75040  0.52220  Biso   1.000  O
  O306     1.0000 0.32610  0.86620  0.54910  Biso   1.000  O
  O307     1.0000 0.21510  0.96780  0.62360  Biso   1.000  O
  O308     1.0000 0.26780  0.95990  0.56190  Biso   1.000  O
  O309     1.0000 0.28730  0.05060  0.63550  Biso   1.000  O
  O310     1.0000 0.34910  0.95150  0.62840  Biso   1.000  O
  W99      1.0000 0.50980  0.08478  0.88786  Biso   1.000  W
  W100     1.0000 0.67676  0.95098  0.95798  Biso   1.000  W
  Cu37     1.0000 0.48153  0.85312  0.98804  Biso   1.000  Cu
  Cu38     1.0000 0.27802  0.91499  0.86189  Biso   1.000  Cu
  W101     1.0000 0.38647  0.07891  0.78817  Biso   1.000  W
  Cu39     1.0000 0.34742  0.68364  0.47338  Biso   1.000  Cu
  Cu40     1.0000 0.14840  0.93996  0.60103  Biso   1.000  Cu
  W102     1.0000 0.31445  0.13819  0.66503  Biso   1.000  W
  O311     1.0000 0.57770  0.09440  0.92200  Biso   1.000  O
  O312     1.0000 0.53130  0.06100  0.82510  Biso   1.000  O
  O313     1.0000 0.49270  0.09850  0.93950  Biso   1.000  O
  O314     1.0000 0.50810  0.16800  0.86620  Biso   1.000  O
  O315     1.0000 0.44750  0.06690  0.84150  Biso   1.000  O
  O316     1.0000 0.66850  0.04390  0.94330  Biso   1.000  O
  O317     1.0000 0.27710  0.00350  0.85570  Biso   1.000  O
  N85      1.0000 0.34880  0.92260  0.90730  Biso   1.000  N
  O318     1.0000 0.43090  0.06050  0.74210  Biso   1.000  O
  O319     1.0000 0.33570  0.09190  0.72560  Biso   1.000  O
  O320     1.0000 0.40620  0.16470  0.78300  Biso   1.000  O
  O321     1.0000 0.16750  0.85580  0.59050  Biso   1.000  O
  N86      1.0000 0.07850  0.92330  0.56660  Biso   1.000  N
  N87      1.0000 0.12270  0.02810  0.60530  Biso   1.000  N
  O322     1.0000 0.31090  0.15490  0.59830  Biso   1.000  O
  O323     1.0000 0.35470  0.20240  0.69410  Biso   1.000  O
  O324     1.0000 0.38110  0.09370  0.65440  Biso   1.000  O
  W103     1.0000 0.64101  0.12111  0.92587  Biso   1.000  W
  P14      1.0000 0.56700  0.09317  0.80451  Biso   1.000  P
  W104     1.0000 0.54448  0.23398  0.84940  Biso   1.000  W
  Cu41     1.0000 0.32973  0.05670  0.88938  Biso   1.000  Cu
  H79      1.0000 0.24860  0.02210  0.83450  Biso   1.000  H
  N88      1.0000 0.37120  0.98010  0.90950  Biso   1.000  N
  W105     1.0000 0.41861  0.23404  0.74844  Biso   1.000  W
  H80      1.0000 0.18520  0.83270  0.61860  Biso   1.000  H
  O325     1.0000 0.59970  0.19910  0.89060  Biso   1.000  O
  O326     1.0000 0.55230  0.16250  0.79210  Biso   1.000  O
  N89      1.0000 0.57140  0.08760  0.04970  Biso   1.000  N
  N90      1.0000 0.57570  0.19740  0.01340  Biso   1.000  N
  N91      1.0000 0.47430  0.22120  0.98870  Biso   1.000  N
  O327     1.0000 0.57200  0.27700  0.80700  Biso   1.000  O
  O328     1.0000 0.47950  0.24660  0.79170  Biso   1.000  O
  N92      1.0000 0.08840  0.78590  0.52540  Biso   1.000  N
  C109     1.0000 0.58210  0.02790  0.06490  Biso   1.000  C
  C110     1.0000 0.61760  0.11520  0.06760  Biso   1.000  C
  N93      1.0000 0.58450  0.25570  0.00120  Biso   1.000  N
  C111     1.0000 0.61870  0.17960  0.04970  Biso   1.000  C
  N94      1.0000 0.48470  0.27610  0.97060  Biso   1.000  N
  C112     1.0000 0.43030  0.22780  0.99040  Biso   1.000  C
  Cu42     1.0000 0.54385  0.32311  0.96778  Biso   1.000  Cu
  H81      1.0000 0.55920  0.99590  0.05810  Biso   1.000  H
  C113     1.0000 0.62970  0.26990  0.02890  Biso   1.000  C
  N95      1.0000 0.65300  0.22300  0.06020  Biso   1.000  N
  C114     1.0000 0.44630  0.31260  0.96250  Biso   1.000  C
  H82      1.0000 0.41400  0.19670  0.00110  Biso   1.000  H
  N96      1.0000 0.60950  0.36710  0.99120  Biso   1.000  N
  N97      1.0000 0.49740  0.39340  0.95100  Biso   1.000  N
  C115     1.0000 0.64690  0.33190  0.02010  Biso   1.000  C
  C116     1.0000 0.45290  0.37700  0.94810  Biso   1.000  C
  C117     1.0000 0.61880  0.42600  0.98060  Biso   1.000  C
  N98      1.0000 0.49450  0.45490  0.93770  Biso   1.000  N
  C118     1.0000 0.69450  0.35160  0.03740  Biso   1.000  C
  C119     1.0000 0.66610  0.44970  0.99950  Biso   1.000  C
  H83      1.0000 0.59360  0.45110  0.96050  Biso   1.000  H
  H84      1.0000 0.51790  0.47810  0.93620  Biso   1.000  H
  C120     1.0000 0.44980  0.47200  0.92750  Biso   1.000  C
  H85      1.0000 0.71970  0.32500  0.05560  Biso   1.000  H
  C121     1.0000 0.70330  0.41190  0.02670  Biso   1.000  C
  H86      1.0000 0.67210  0.49130  0.99350  Biso   1.000  H
  C122     1.0000 0.42620  0.53150  0.91080  Biso   1.000  C
  H87      1.0000 0.73500  0.42720  0.03800  Biso   1.000  H
  C123     1.0000 0.44800  0.58710  0.90730  Biso   1.000  C
  C124     1.0000 0.35110  0.57840  0.87540  Biso   1.000  C
  H88      1.0000 0.48170  0.58840  0.91650  Biso   1.000  H
  C125     1.0000 0.42280  0.63900  0.89130  Biso   1.000  C
  C126     1.0000 0.37330  0.63460  0.87460  Biso   1.000  C
  H89      1.0000 0.31740  0.57560  0.86230  Biso   1.000  H
  H90      1.0000 0.43820  0.67720  0.89150  Biso   1.000  H
  H91      1.0000 0.35450  0.67020  0.86250  Biso   1.000  H
  Na7      1.0000 0.52480  0.95960  0.70970  Biso   1.000  Na
  O329     1.0000 0.51440  0.96030  0.72860  Biso   1.000  O
  W106     1.0000 0.90681  0.18882  0.73972  Biso   1.000  W
  O330     1.0000 0.91440  0.24880  0.79030  Biso   1.000  O
  O331     1.0000 0.85630  0.22980  0.69460  Biso   1.000  O
  O332     1.0000 0.92630  0.14260  0.69230  Biso   1.000  O
  O333     1.0000 0.97480  0.16040  0.79100  Biso   1.000  O
  O334     1.0000 0.95930  0.25150  0.71740  Biso   1.000  O
  W107     1.0000 0.95045  0.30855  0.83949  Biso   1.000  W
  W108     1.0000 0.80673  0.29692  0.65929  Biso   1.000  W
  W109     1.0000 0.96812  0.18099  0.66201  Biso   1.000  W
  O335     1.0000 0.00240  0.24820  0.85920  Biso   1.000  O
  O336     1.0000 0.99190  0.37510  0.87430  Biso   1.000  O
  O337     1.0000 0.98100  0.33520  0.78280  Biso   1.000  O
  O338     1.0000 0.90200  0.37040  0.80620  Biso   1.000  O
  O339     1.0000 0.81240  0.26440  0.59930  Biso   1.000  O
  O340     1.0000 0.77730  0.36950  0.63050  Biso   1.000  O
  O341     1.0000 0.82950  0.33490  0.72290  Biso   1.000  O
  O342     1.0000 0.87500  0.34030  0.64910  Biso   1.000  O
  O343     1.0000 0.90550  0.22660  0.61820  Biso   1.000  O
  W110     1.0000 0.04679  0.41680  0.91727  Biso   1.000  W
  W111     1.0000 0.85004  0.41187  0.76033  Biso   1.000  W
  W112     1.0000 0.86733  0.28684  0.58089  Biso   1.000  W
  W113     1.0000 0.77720  0.46801  0.63231  Biso   1.000  W
  P15      1.0000 0.89160  0.40910  0.66287  Biso   1.000  P
  O344     1.0000 0.08260  0.33780  0.92270  Biso   1.000  O
  O345     1.0000 0.01800  0.49450  0.89950  Biso   1.000  O
  O346     1.0000 0.06310  0.42350  0.84980  Biso   1.000  O
  O347     1.0000 0.10870  0.45370  0.94900  Biso   1.000  O
  O348     1.0000 0.03320  0.40130  0.97150  Biso   1.000  O
  O349     1.0000 0.89980  0.42010  0.71740  Biso   1.000  O
  O350     1.0000 0.80560  0.45400  0.70020  Biso   1.000  O
  O351     1.0000 0.87820  0.49120  0.78380  Biso   1.000  O
  O352     1.0000 0.84850  0.25040  0.52220  Biso   1.000  O
  O353     1.0000 0.82610  0.36620  0.54910  Biso   1.000  O
  O354     1.0000 0.71510  0.46780  0.62360  Biso   1.000  O
  O355     1.0000 0.76780  0.45990  0.56190  Biso   1.000  O
  O356     1.0000 0.78730  0.55060  0.63550  Biso   1.000  O
  O357     1.0000 0.84910  0.45150  0.62840  Biso   1.000  O
  W114     1.0000 0.00980  0.58478  0.88786  Biso   1.000  W
  W115     1.0000 0.17676  0.45098  0.95798  Biso   1.000  W
  Cu43     1.0000 0.98153  0.35312  0.98804  Biso   1.000  Cu
  Cu44     1.0000 0.77802  0.41499  0.86189  Biso   1.000  Cu
  W116     1.0000 0.88647  0.57891  0.78817  Biso   1.000  W
  Cu45     1.0000 0.84742  0.18364  0.47338  Biso   1.000  Cu
  Cu46     1.0000 0.64840  0.43996  0.60103  Biso   1.000  Cu
  W117     1.0000 0.81445  0.63819  0.66503  Biso   1.000  W
  O358     1.0000 0.07770  0.59440  0.92200  Biso   1.000  O
  O359     1.0000 0.03130  0.56100  0.82510  Biso   1.000  O
  O360     1.0000 0.99270  0.59850  0.93950  Biso   1.000  O
  O361     1.0000 0.00810  0.66800  0.86620  Biso   1.000  O
  O362     1.0000 0.94750  0.56690  0.84150  Biso   1.000  O
  O363     1.0000 0.16850  0.54390  0.94330  Biso   1.000  O
  O364     1.0000 0.77710  0.50350  0.85570  Biso   1.000  O
  N99      1.0000 0.84880  0.42260  0.90730  Biso   1.000  N
  O365     1.0000 0.93090  0.56050  0.74210  Biso   1.000  O
  O366     1.0000 0.83570  0.59190  0.72560  Biso   1.000  O
  O367     1.0000 0.90620  0.66470  0.78300  Biso   1.000  O
  O368     1.0000 0.66750  0.35580  0.59050  Biso   1.000  O
  N100     1.0000 0.57850  0.42330  0.56660  Biso   1.000  N
  N101     1.0000 0.62270  0.52810  0.60530  Biso   1.000  N
  O369     1.0000 0.81090  0.65490  0.59830  Biso   1.000  O
  O370     1.0000 0.85470  0.70240  0.69410  Biso   1.000  O
  O371     1.0000 0.88110  0.59370  0.65440  Biso   1.000  O
  W118     1.0000 0.14101  0.62111  0.92587  Biso   1.000  W
  P16      1.0000 0.06700  0.59317  0.80451  Biso   1.000  P
  W119     1.0000 0.04448  0.73398  0.84940  Biso   1.000  W
  Cu47     1.0000 0.82973  0.55670  0.88938  Biso   1.000  Cu
  H92      1.0000 0.74860  0.52210  0.83450  Biso   1.000  H
  N102     1.0000 0.87120  0.48010  0.90950  Biso   1.000  N
  W120     1.0000 0.91861  0.73404  0.74844  Biso   1.000  W
  H93      1.0000 0.68520  0.33270  0.61860  Biso   1.000  H
  O372     1.0000 0.09970  0.69910  0.89060  Biso   1.000  O
  O373     1.0000 0.05230  0.66250  0.79210  Biso   1.000  O
  N103     1.0000 0.07140  0.58760  0.04970  Biso   1.000  N
  N104     1.0000 0.07570  0.69740  0.01340  Biso   1.000  N
  N105     1.0000 0.97430  0.72120  0.98870  Biso   1.000  N
  O374     1.0000 0.07200  0.77700  0.80700  Biso   1.000  O
  O375     1.0000 0.97950  0.74660  0.79170  Biso   1.000  O
  N106     1.0000 0.58840  0.28590  0.52540  Biso   1.000  N
  C127     1.0000 0.08210  0.52790  0.06490  Biso   1.000  C
  C128     1.0000 0.11760  0.61520  0.06760  Biso   1.000  C
  N107     1.0000 0.08450  0.75570  0.00120  Biso   1.000  N
  C129     1.0000 0.11870  0.67960  0.04970  Biso   1.000  C
  N108     1.0000 0.98470  0.77610  0.97060  Biso   1.000  N
  C130     1.0000 0.93030  0.72780  0.99040  Biso   1.000  C
  Cu48     1.0000 0.04385  0.82311  0.96778  Biso   1.000  Cu
  H94      1.0000 0.05920  0.49590  0.05810  Biso   1.000  H
  C131     1.0000 0.12970  0.76990  0.02890  Biso   1.000  C
  N109     1.0000 0.15300  0.72300  0.06020  Biso   1.000  N
  C132     1.0000 0.94630  0.81260  0.96250  Biso   1.000  C
  H95      1.0000 0.91400  0.69670  0.00110  Biso   1.000  H
  N110     1.0000 0.10950  0.86710  0.99120  Biso   1.000  N
  N111     1.0000 0.99740  0.89340  0.95100  Biso   1.000  N
  C133     1.0000 0.14690  0.83190  0.02010  Biso   1.000  C
  C134     1.0000 0.95290  0.87700  0.94810  Biso   1.000  C
  C135     1.0000 0.11880  0.92600  0.98060  Biso   1.000  C
  N112     1.0000 0.99450  0.95490  0.93770  Biso   1.000  N
  C136     1.0000 0.19450  0.85160  0.03740  Biso   1.000  C
  C137     1.0000 0.16610  0.94970  0.99950  Biso   1.000  C
  H96      1.0000 0.09360  0.95110  0.96050  Biso   1.000  H
  H97      1.0000 0.01790  0.97810  0.93620  Biso   1.000  H
  C138     1.0000 0.94980  0.97200  0.92750  Biso   1.000  C
  H98      1.0000 0.21970  0.82500  0.05560  Biso   1.000  H
  C139     1.0000 0.20330  0.91190  0.02670  Biso   1.000  C
  H99      1.0000 0.17210  0.99130  0.99350  Biso   1.000  H
  C140     1.0000 0.92620  0.03150  0.91080  Biso   1.000  C
  H100     1.0000 0.23500  0.92720  0.03800  Biso   1.000  H
  C141     1.0000 0.94800  0.08710  0.90730  Biso   1.000  C
  C142     1.0000 0.85110  0.07840  0.87540  Biso   1.000  C
  H101     1.0000 0.98170  0.08840  0.91650  Biso   1.000  H
  C143     1.0000 0.92280  0.13900  0.89130  Biso   1.000  C
  C144     1.0000 0.87330  0.13460  0.87460  Biso   1.000  C
  H102     1.0000 0.81740  0.07560  0.86230  Biso   1.000  H
  H103     1.0000 0.93820  0.17720  0.89150  Biso   1.000  H
  H104     1.0000 0.85450  0.17020  0.86250  Biso   1.000  H
  Na8      1.0000 0.02480  0.45960  0.70970  Biso   1.000  Na
  O376     1.0000 0.01440  0.46030  0.72860  Biso   1.000  O
  P17      1.0000 0.50000  0.20530  0.25000  Biso   1.000  P
  P18      1.0000 0.00000  0.70530  0.25000  Biso   1.000  P
  P19      1.0000 0.50000  0.79470  0.75000  Biso   1.000  P
  P20      1.0000 0.00000  0.29470  0.75000  Biso   1.000  P
