data_image0
_cell_length_a       34.018
_cell_length_b       34.018
_cell_length_c       15.308
_cell_angle_alpha    90
_cell_angle_beta     90
_cell_angle_gamma    90

_symmetry_space_group_name_H-M    "P 1"
_symmetry_int_tables_number       1

loop_
  _symmetry_equiv_pos_as_xyz
  'x, y, z'

loop_
  _atom_site_label
  _atom_site_occupancy
  _atom_site_fract_x
  _atom_site_fract_y
  _atom_site_fract_z
  _atom_site_thermal_displace_type
  _atom_site_B_iso_or_equiv
  _atom_site_type_symbol
  Cu1      1.0000 0.23616  0.23849  0.67480  Biso   1.000  Cu
  Cu2      1.0000 0.99855  0.03431  0.96766  Biso   1.000  Cu
  I1       1.0000 0.06020  0.98976  0.93468  Biso   1.000  I
  O1       1.0000 0.19884  0.20954  0.74950  Biso   1.000  O
  O2       1.0000 0.22270  0.22863  0.87770  Biso   1.000  O
  C1       1.0000 0.19841  0.21088  0.83090  Biso   1.000  C
  C2       1.0000 0.16544  0.18980  0.87670  Biso   1.000  C
  C3       1.0000 0.13630  0.17189  0.82705  Biso   1.000  C
  H1       1.0000 0.13850  0.17120  0.76520  Biso   1.000  H
  C4       1.0000 0.10393  0.15503  0.86790  Biso   1.000  C
  H2       1.0000 0.08400  0.14280  0.83390  Biso   1.000  H
  C5       1.0000 0.10068  0.15609  0.95830  Biso   1.000  C
  C6       1.0000 0.12982  0.17401  0.00801  Biso   1.000  C
  H3       1.0000 0.12760  0.17470  0.06990  Biso   1.000  H
  C7       1.0000 0.16220  0.19086  0.96720  Biso   1.000  C
  H4       1.0000 0.18210  0.20310  0.00120  Biso   1.000  H
  C8       1.0000 0.06545  0.13946  0.00130  Biso   1.000  C
  C9       1.0000 0.05095  0.10354  0.97230  Biso   1.000  C
  H5       1.0000 0.06440  0.08950  0.92770  Biso   1.000  H
  N1       1.0000 0.01681  0.08815  0.00870  Biso   1.000  N
  C10      1.0000 0.99717  0.10867  0.07390  Biso   1.000  C
  H6       1.0000 0.97380  0.09810  0.09870  Biso   1.000  H
  N2       1.0000 0.01166  0.14458  0.10290  Biso   1.000  N
  C11      1.0000 0.04580  0.15997  0.06660  Biso   1.000  C
  H7       1.0000 0.05570  0.18450  0.08640  Biso   1.000  H
  O3       1.0000 0.27421  0.19558  0.68580  Biso   1.000  O
  O4       1.0000 0.29762  0.21597  0.81340  Biso   1.000  O
  C12      1.0000 0.29775  0.19374  0.74800  Biso   1.000  C
  C13      1.0000 0.32840  0.16230  0.74510  Biso   1.000  C
  C14      1.0000 0.33043  0.13685  0.67420  Biso   1.000  C
  H8       1.0000 0.31130  0.13830  0.62910  Biso   1.000  H
  C15      1.0000 0.36050  0.10927  0.66910  Biso   1.000  C
  H9       1.0000 0.36190  0.09190  0.62070  Biso   1.000  H
  C16      1.0000 0.38853  0.10714  0.73500  Biso   1.000  C
  C17      1.0000 0.38650  0.13259  0.80590  Biso   1.000  C
  H10      1.0000 0.40570  0.13110  0.85100  Biso   1.000  H
  C18      1.0000 0.35643  0.16016  0.81090  Biso   1.000  C
  H11      1.0000 0.35500  0.17760  0.85940  Biso   1.000  H
  C19      1.0000 0.42083  0.07844  0.73030  Biso   1.000  C
  C20      1.0000 0.43953  0.07062  0.65143  Biso   1.000  C
  H12      1.0000 0.42990  0.08190  0.59890  Biso   1.000  H
  N3       1.0000 0.47233  0.04627  0.64948  Biso   1.000  N
  C21      1.0000 0.48643  0.02974  0.72640  Biso   1.000  C
  H13      1.0000 0.50890  0.01310  0.72500  Biso   1.000  H
  N4       1.0000 0.46774  0.03756  0.80522  Biso   1.000  N
  C22      1.0000 0.43494  0.06191  0.80718  Biso   1.000  C
  H14      1.0000 0.42220  0.06730  0.86110  Biso   1.000  H
  Cu3      1.0000 0.73616  0.73849  0.17480  Biso   1.000  Cu
  Cu4      1.0000 0.49855  0.53431  0.46766  Biso   1.000  Cu
  I2       1.0000 0.56020  0.48976  0.43468  Biso   1.000  I
  O5       1.0000 0.69884  0.70954  0.24950  Biso   1.000  O
  O6       1.0000 0.72270  0.72863  0.37770  Biso   1.000  O
  C23      1.0000 0.69841  0.71088  0.33090  Biso   1.000  C
  C24      1.0000 0.66544  0.68980  0.37670  Biso   1.000  C
  C25      1.0000 0.63630  0.67189  0.32705  Biso   1.000  C
  H15      1.0000 0.63850  0.67120  0.26520  Biso   1.000  H
  C26      1.0000 0.60393  0.65503  0.36790  Biso   1.000  C
  H16      1.0000 0.58400  0.64280  0.33390  Biso   1.000  H
  C27      1.0000 0.60068  0.65609  0.45830  Biso   1.000  C
  C28      1.0000 0.62982  0.67401  0.50801  Biso   1.000  C
  H17      1.0000 0.62760  0.67470  0.56990  Biso   1.000  H
  C29      1.0000 0.66220  0.69086  0.46720  Biso   1.000  C
  H18      1.0000 0.68210  0.70310  0.50120  Biso   1.000  H
  C30      1.0000 0.56545  0.63946  0.50130  Biso   1.000  C
  C31      1.0000 0.55095  0.60354  0.47230  Biso   1.000  C
  H19      1.0000 0.56440  0.58950  0.42770  Biso   1.000  H
  N5       1.0000 0.51681  0.58815  0.50870  Biso   1.000  N
  C32      1.0000 0.49717  0.60867  0.57390  Biso   1.000  C
  H20      1.0000 0.47380  0.59810  0.59870  Biso   1.000  H
  N6       1.0000 0.51166  0.64458  0.60290  Biso   1.000  N
  C33      1.0000 0.54580  0.65997  0.56660  Biso   1.000  C
  H21      1.0000 0.55570  0.68450  0.58640  Biso   1.000  H
  O7       1.0000 0.77421  0.69558  0.18580  Biso   1.000  O
  O8       1.0000 0.79762  0.71597  0.31340  Biso   1.000  O
  C34      1.0000 0.79775  0.69374  0.24800  Biso   1.000  C
  C35      1.0000 0.82840  0.66230  0.24510  Biso   1.000  C
  C36      1.0000 0.83043  0.63685  0.17420  Biso   1.000  C
  H22      1.0000 0.81130  0.63830  0.12910  Biso   1.000  H
  C37      1.0000 0.86050  0.60927  0.16910  Biso   1.000  C
  H23      1.0000 0.86190  0.59190  0.12070  Biso   1.000  H
  C38      1.0000 0.88853  0.60714  0.23500  Biso   1.000  C
  C39      1.0000 0.88650  0.63259  0.30590  Biso   1.000  C
  H24      1.0000 0.90570  0.63110  0.35100  Biso   1.000  H
  C40      1.0000 0.85643  0.66016  0.31090  Biso   1.000  C
  H25      1.0000 0.85500  0.67760  0.35940  Biso   1.000  H
  C41      1.0000 0.92083  0.57844  0.23030  Biso   1.000  C
  C42      1.0000 0.93953  0.57062  0.15143  Biso   1.000  C
  H26      1.0000 0.92990  0.58190  0.09890  Biso   1.000  H
  N7       1.0000 0.97233  0.54627  0.14948  Biso   1.000  N
  C43      1.0000 0.98643  0.52974  0.22640  Biso   1.000  C
  H27      1.0000 0.00890  0.51310  0.22500  Biso   1.000  H
  N8       1.0000 0.96774  0.53756  0.30522  Biso   1.000  N
  C44      1.0000 0.93494  0.56191  0.30718  Biso   1.000  C
  H28      1.0000 0.92220  0.56730  0.36110  Biso   1.000  H
  Cu5      1.0000 0.26384  0.76151  0.17480  Biso   1.000  Cu
  Cu6      1.0000 0.50145  0.96569  0.46766  Biso   1.000  Cu
  I3       1.0000 0.43980  0.01024  0.43468  Biso   1.000  I
  O9       1.0000 0.30116  0.79046  0.24950  Biso   1.000  O
  O10      1.0000 0.27730  0.77137  0.37770  Biso   1.000  O
  C45      1.0000 0.30159  0.78912  0.33090  Biso   1.000  C
  C46      1.0000 0.33456  0.81020  0.37670  Biso   1.000  C
  C47      1.0000 0.36370  0.82811  0.32705  Biso   1.000  C
  H29      1.0000 0.36150  0.82880  0.26520  Biso   1.000  H
  C48      1.0000 0.39607  0.84497  0.36790  Biso   1.000  C
  H30      1.0000 0.41600  0.85720  0.33390  Biso   1.000  H
  C49      1.0000 0.39932  0.84391  0.45830  Biso   1.000  C
  C50      1.0000 0.37018  0.82599  0.50801  Biso   1.000  C
  H31      1.0000 0.37240  0.82530  0.56990  Biso   1.000  H
  C51      1.0000 0.33780  0.80914  0.46720  Biso   1.000  C
  H32      1.0000 0.31790  0.79690  0.50120  Biso   1.000  H
  C52      1.0000 0.43455  0.86054  0.50130  Biso   1.000  C
  C53      1.0000 0.44905  0.89646  0.47230  Biso   1.000  C
  H33      1.0000 0.43560  0.91050  0.42770  Biso   1.000  H
  N9       1.0000 0.48319  0.91185  0.50870  Biso   1.000  N
  C54      1.0000 0.50283  0.89133  0.57390  Biso   1.000  C
  H34      1.0000 0.52620  0.90190  0.59870  Biso   1.000  H
  N10      1.0000 0.48834  0.85542  0.60290  Biso   1.000  N
  C55      1.0000 0.45420  0.84003  0.56660  Biso   1.000  C
  H35      1.0000 0.44430  0.81550  0.58640  Biso   1.000  H
  O11      1.0000 0.22579  0.80442  0.18580  Biso   1.000  O
  O12      1.0000 0.20238  0.78403  0.31340  Biso   1.000  O
  C56      1.0000 0.20225  0.80626  0.24800  Biso   1.000  C
  C57      1.0000 0.17160  0.83770  0.24510  Biso   1.000  C
  C58      1.0000 0.16957  0.86315  0.17420  Biso   1.000  C
  H36      1.0000 0.18870  0.86170  0.12910  Biso   1.000  H
  C59      1.0000 0.13950  0.89073  0.16910  Biso   1.000  C
  H37      1.0000 0.13810  0.90810  0.12070  Biso   1.000  H
  C60      1.0000 0.11147  0.89286  0.23500  Biso   1.000  C
  C61      1.0000 0.11350  0.86741  0.30590  Biso   1.000  C
  H38      1.0000 0.09430  0.86890  0.35100  Biso   1.000  H
  C62      1.0000 0.14357  0.83984  0.31090  Biso   1.000  C
  H39      1.0000 0.14500  0.82240  0.35940  Biso   1.000  H
  C63      1.0000 0.07917  0.92156  0.23030  Biso   1.000  C
  C64      1.0000 0.06047  0.92938  0.15143  Biso   1.000  C
  H40      1.0000 0.07010  0.91810  0.09890  Biso   1.000  H
  N11      1.0000 0.02767  0.95373  0.14948  Biso   1.000  N
  C65      1.0000 0.01357  0.97026  0.22640  Biso   1.000  C
  H41      1.0000 0.99110  0.98690  0.22500  Biso   1.000  H
  N12      1.0000 0.03226  0.96244  0.30522  Biso   1.000  N
  C66      1.0000 0.06506  0.93809  0.30718  Biso   1.000  C
  H42      1.0000 0.07780  0.93270  0.36110  Biso   1.000  H
  Cu7      1.0000 0.76384  0.26151  0.67480  Biso   1.000  Cu
  Cu8      1.0000 0.00145  0.46569  0.96766  Biso   1.000  Cu
  I4       1.0000 0.93980  0.51024  0.93468  Biso   1.000  I
  O13      1.0000 0.80116  0.29046  0.74950  Biso   1.000  O
  O14      1.0000 0.77730  0.27137  0.87770  Biso   1.000  O
  C67      1.0000 0.80159  0.28912  0.83090  Biso   1.000  C
  C68      1.0000 0.83456  0.31020  0.87670  Biso   1.000  C
  C69      1.0000 0.86370  0.32811  0.82705  Biso   1.000  C
  H43      1.0000 0.86150  0.32880  0.76520  Biso   1.000  H
  C70      1.0000 0.89607  0.34497  0.86790  Biso   1.000  C
  H44      1.0000 0.91600  0.35720  0.83390  Biso   1.000  H
  C71      1.0000 0.89932  0.34391  0.95830  Biso   1.000  C
  C72      1.0000 0.87018  0.32599  0.00801  Biso   1.000  C
  H45      1.0000 0.87240  0.32530  0.06990  Biso   1.000  H
  C73      1.0000 0.83780  0.30914  0.96720  Biso   1.000  C
  H46      1.0000 0.81790  0.29690  0.00120  Biso   1.000  H
  C74      1.0000 0.93455  0.36054  0.00130  Biso   1.000  C
  C75      1.0000 0.94905  0.39646  0.97230  Biso   1.000  C
  H47      1.0000 0.93560  0.41050  0.92770  Biso   1.000  H
  N13      1.0000 0.98319  0.41185  0.00870  Biso   1.000  N
  C76      1.0000 0.00283  0.39133  0.07390  Biso   1.000  C
  H48      1.0000 0.02620  0.40190  0.09870  Biso   1.000  H
  N14      1.0000 0.98834  0.35542  0.10290  Biso   1.000  N
  C77      1.0000 0.95420  0.34003  0.06660  Biso   1.000  C
  H49      1.0000 0.94430  0.31550  0.08640  Biso   1.000  H
  O15      1.0000 0.72579  0.30442  0.68580  Biso   1.000  O
  O16      1.0000 0.70238  0.28403  0.81340  Biso   1.000  O
  C78      1.0000 0.70225  0.30626  0.74800  Biso   1.000  C
  C79      1.0000 0.67160  0.33770  0.74510  Biso   1.000  C
  C80      1.0000 0.66957  0.36315  0.67420  Biso   1.000  C
  H50      1.0000 0.68870  0.36170  0.62910  Biso   1.000  H
  C81      1.0000 0.63950  0.39073  0.66910  Biso   1.000  C
  H51      1.0000 0.63810  0.40810  0.62070  Biso   1.000  H
  C82      1.0000 0.61147  0.39286  0.73500  Biso   1.000  C
  C83      1.0000 0.61350  0.36741  0.80590  Biso   1.000  C
  H52      1.0000 0.59430  0.36890  0.85100  Biso   1.000  H
  C84      1.0000 0.64357  0.33984  0.81090  Biso   1.000  C
  H53      1.0000 0.64500  0.32240  0.85940  Biso   1.000  H
  C85      1.0000 0.57917  0.42156  0.73030  Biso   1.000  C
  C86      1.0000 0.56047  0.42938  0.65143  Biso   1.000  C
  H54      1.0000 0.57010  0.41810  0.59890  Biso   1.000  H
  N15      1.0000 0.52767  0.45373  0.64948  Biso   1.000  N
  C87      1.0000 0.51357  0.47026  0.72640  Biso   1.000  C
  H55      1.0000 0.49110  0.48690  0.72500  Biso   1.000  H
  N16      1.0000 0.53226  0.46244  0.80522  Biso   1.000  N
  C88      1.0000 0.56506  0.43809  0.80718  Biso   1.000  C
  H56      1.0000 0.57780  0.43270  0.86110  Biso   1.000  H
  Cu9      1.0000 0.51151  0.48616  0.92480  Biso   1.000  Cu
  Cu10     1.0000 0.71569  0.24855  0.21766  Biso   1.000  Cu
  I5       1.0000 0.76024  0.31020  0.18468  Biso   1.000  I
  O17      1.0000 0.54046  0.44884  0.99950  Biso   1.000  O
  O18      1.0000 0.52137  0.47270  0.12770  Biso   1.000  O
  C89      1.0000 0.53912  0.44841  0.08090  Biso   1.000  C
  C90      1.0000 0.56020  0.41544  0.12670  Biso   1.000  C
  C91      1.0000 0.57811  0.38630  0.07705  Biso   1.000  C
  H57      1.0000 0.57880  0.38850  0.01520  Biso   1.000  H
  C92      1.0000 0.59497  0.35393  0.11790  Biso   1.000  C
  H58      1.0000 0.60720  0.33400  0.08390  Biso   1.000  H
  C93      1.0000 0.59391  0.35068  0.20830  Biso   1.000  C
  C94      1.0000 0.57599  0.37982  0.25801  Biso   1.000  C
  H59      1.0000 0.57530  0.37760  0.31990  Biso   1.000  H
  C95      1.0000 0.55914  0.41220  0.21720  Biso   1.000  C
  H60      1.0000 0.54690  0.43210  0.25120  Biso   1.000  H
  C96      1.0000 0.61054  0.31545  0.25130  Biso   1.000  C
  C97      1.0000 0.64646  0.30095  0.22230  Biso   1.000  C
  H61      1.0000 0.66050  0.31440  0.17770  Biso   1.000  H
  N17      1.0000 0.66185  0.26681  0.25870  Biso   1.000  N
  C98      1.0000 0.64133  0.24717  0.32390  Biso   1.000  C
  H62      1.0000 0.65190  0.22380  0.34870  Biso   1.000  H
  N18      1.0000 0.60542  0.26166  0.35290  Biso   1.000  N
  C99      1.0000 0.59003  0.29580  0.31660  Biso   1.000  C
  H63      1.0000 0.56550  0.30570  0.33640  Biso   1.000  H
  O19      1.0000 0.55442  0.52421  0.93580  Biso   1.000  O
  O20      1.0000 0.53403  0.54762  0.06340  Biso   1.000  O
  C100     1.0000 0.55626  0.54775  0.99800  Biso   1.000  C
  C101     1.0000 0.58770  0.57840  0.99510  Biso   1.000  C
  C102     1.0000 0.61315  0.58043  0.92420  Biso   1.000  C
  H64      1.0000 0.61170  0.56130  0.87910  Biso   1.000  H
  C103     1.0000 0.64073  0.61050  0.91910  Biso   1.000  C
  H65      1.0000 0.65810  0.61190  0.87070  Biso   1.000  H
  C104     1.0000 0.64286  0.63853  0.98500  Biso   1.000  C
  C105     1.0000 0.61741  0.63650  0.05590  Biso   1.000  C
  H66      1.0000 0.61890  0.65570  0.10100  Biso   1.000  H
  C106     1.0000 0.58984  0.60643  0.06090  Biso   1.000  C
  H67      1.0000 0.57240  0.60500  0.10940  Biso   1.000  H
  C107     1.0000 0.67156  0.67083  0.98030  Biso   1.000  C
  C108     1.0000 0.67938  0.68953  0.90143  Biso   1.000  C
  H68      1.0000 0.66810  0.67990  0.84890  Biso   1.000  H
  N19      1.0000 0.70373  0.72233  0.89948  Biso   1.000  N
  C109     1.0000 0.72026  0.73643  0.97640  Biso   1.000  C
  H69      1.0000 0.73690  0.75890  0.97500  Biso   1.000  H
  N20      1.0000 0.71244  0.71774  0.05522  Biso   1.000  N
  C110     1.0000 0.68809  0.68494  0.05718  Biso   1.000  C
  H70      1.0000 0.68270  0.67220  0.11110  Biso   1.000  H
  Cu11     1.0000 0.01151  0.98616  0.42480  Biso   1.000  Cu
  Cu12     1.0000 0.21569  0.74855  0.71766  Biso   1.000  Cu
  I6       1.0000 0.26024  0.81020  0.68468  Biso   1.000  I
  O21      1.0000 0.04046  0.94884  0.49950  Biso   1.000  O
  O22      1.0000 0.02137  0.97270  0.62770  Biso   1.000  O
  C111     1.0000 0.03912  0.94841  0.58090  Biso   1.000  C
  C112     1.0000 0.06020  0.91544  0.62670  Biso   1.000  C
  C113     1.0000 0.07811  0.88630  0.57705  Biso   1.000  C
  H71      1.0000 0.07880  0.88850  0.51520  Biso   1.000  H
  C114     1.0000 0.09497  0.85393  0.61790  Biso   1.000  C
  H72      1.0000 0.10720  0.83400  0.58390  Biso   1.000  H
  C115     1.0000 0.09391  0.85068  0.70830  Biso   1.000  C
  C116     1.0000 0.07599  0.87982  0.75801  Biso   1.000  C
  H73      1.0000 0.07530  0.87760  0.81990  Biso   1.000  H
  C117     1.0000 0.05914  0.91220  0.71720  Biso   1.000  C
  H74      1.0000 0.04690  0.93210  0.75120  Biso   1.000  H
  C118     1.0000 0.11054  0.81545  0.75130  Biso   1.000  C
  C119     1.0000 0.14646  0.80095  0.72230  Biso   1.000  C
  H75      1.0000 0.16050  0.81440  0.67770  Biso   1.000  H
  N21      1.0000 0.16185  0.76681  0.75870  Biso   1.000  N
  C120     1.0000 0.14133  0.74717  0.82390  Biso   1.000  C
  H76      1.0000 0.15190  0.72380  0.84870  Biso   1.000  H
  N22      1.0000 0.10542  0.76166  0.85290  Biso   1.000  N
  C121     1.0000 0.09003  0.79580  0.81660  Biso   1.000  C
  H77      1.0000 0.06550  0.80570  0.83640  Biso   1.000  H
  O23      1.0000 0.05442  0.02421  0.43580  Biso   1.000  O
  O24      1.0000 0.03403  0.04762  0.56340  Biso   1.000  O
  C122     1.0000 0.05626  0.04775  0.49800  Biso   1.000  C
  C123     1.0000 0.08770  0.07840  0.49510  Biso   1.000  C
  C124     1.0000 0.11315  0.08043  0.42420  Biso   1.000  C
  H78      1.0000 0.11170  0.06130  0.37910  Biso   1.000  H
  C125     1.0000 0.14073  0.11050  0.41910  Biso   1.000  C
  H79      1.0000 0.15810  0.11190  0.37070  Biso   1.000  H
  C126     1.0000 0.14286  0.13853  0.48500  Biso   1.000  C
  C127     1.0000 0.11741  0.13650  0.55590  Biso   1.000  C
  H80      1.0000 0.11890  0.15570  0.60100  Biso   1.000  H
  C128     1.0000 0.08984  0.10643  0.56090  Biso   1.000  C
  H81      1.0000 0.07240  0.10500  0.60940  Biso   1.000  H
  C129     1.0000 0.17156  0.17083  0.48030  Biso   1.000  C
  C130     1.0000 0.17938  0.18953  0.40143  Biso   1.000  C
  H82      1.0000 0.16810  0.17990  0.34890  Biso   1.000  H
  N23      1.0000 0.20373  0.22233  0.39948  Biso   1.000  N
  C131     1.0000 0.22026  0.23643  0.47640  Biso   1.000  C
  H83      1.0000 0.23690  0.25890  0.47500  Biso   1.000  H
  N24      1.0000 0.21244  0.21774  0.55522  Biso   1.000  N
  C132     1.0000 0.18809  0.18494  0.55718  Biso   1.000  C
  H84      1.0000 0.18270  0.17220  0.61110  Biso   1.000  H
  Cu13     1.0000 0.98849  0.51384  0.42480  Biso   1.000  Cu
  Cu14     1.0000 0.78431  0.75145  0.71766  Biso   1.000  Cu
  I7       1.0000 0.73976  0.68980  0.68468  Biso   1.000  I
  O25      1.0000 0.95954  0.55116  0.49950  Biso   1.000  O
  O26      1.0000 0.97863  0.52730  0.62770  Biso   1.000  O
  C133     1.0000 0.96088  0.55159  0.58090  Biso   1.000  C
  C134     1.0000 0.93980  0.58456  0.62670  Biso   1.000  C
  C135     1.0000 0.92189  0.61370  0.57705  Biso   1.000  C
  H85      1.0000 0.92120  0.61150  0.51520  Biso   1.000  H
  C136     1.0000 0.90503  0.64607  0.61790  Biso   1.000  C
  H86      1.0000 0.89280  0.66600  0.58390  Biso   1.000  H
  C137     1.0000 0.90609  0.64932  0.70830  Biso   1.000  C
  C138     1.0000 0.92401  0.62018  0.75801  Biso   1.000  C
  H87      1.0000 0.92470  0.62240  0.81990  Biso   1.000  H
  C139     1.0000 0.94086  0.58780  0.71720  Biso   1.000  C
  H88      1.0000 0.95310  0.56790  0.75120  Biso   1.000  H
  C140     1.0000 0.88946  0.68455  0.75130  Biso   1.000  C
  C141     1.0000 0.85354  0.69905  0.72230  Biso   1.000  C
  H89      1.0000 0.83950  0.68560  0.67770  Biso   1.000  H
  N25      1.0000 0.83815  0.73319  0.75870  Biso   1.000  N
  C142     1.0000 0.85867  0.75283  0.82390  Biso   1.000  C
  H90      1.0000 0.84810  0.77620  0.84870  Biso   1.000  H
  N26      1.0000 0.89458  0.73834  0.85290  Biso   1.000  N
  C143     1.0000 0.90997  0.70420  0.81660  Biso   1.000  C
  H91      1.0000 0.93450  0.69430  0.83640  Biso   1.000  H
  O27      1.0000 0.94558  0.47579  0.43580  Biso   1.000  O
  O28      1.0000 0.96597  0.45238  0.56340  Biso   1.000  O
  C144     1.0000 0.94374  0.45225  0.49800  Biso   1.000  C
  C145     1.0000 0.91230  0.42160  0.49510  Biso   1.000  C
  C146     1.0000 0.88685  0.41957  0.42420  Biso   1.000  C
  H92      1.0000 0.88830  0.43870  0.37910  Biso   1.000  H
  C147     1.0000 0.85927  0.38950  0.41910  Biso   1.000  C
  H93      1.0000 0.84190  0.38810  0.37070  Biso   1.000  H
  C148     1.0000 0.85714  0.36147  0.48500  Biso   1.000  C
  C149     1.0000 0.88259  0.36350  0.55590  Biso   1.000  C
  H94      1.0000 0.88110  0.34430  0.60100  Biso   1.000  H
  C150     1.0000 0.91016  0.39357  0.56090  Biso   1.000  C
  H95      1.0000 0.92760  0.39500  0.60940  Biso   1.000  H
  C151     1.0000 0.82844  0.32917  0.48030  Biso   1.000  C
  C152     1.0000 0.82062  0.31047  0.40143  Biso   1.000  C
  H96      1.0000 0.83190  0.32010  0.34890  Biso   1.000  H
  N27      1.0000 0.79627  0.27767  0.39948  Biso   1.000  N
  C153     1.0000 0.77974  0.26357  0.47640  Biso   1.000  C
  H97      1.0000 0.76310  0.24110  0.47500  Biso   1.000  H
  N28      1.0000 0.78756  0.28226  0.55522  Biso   1.000  N
  C154     1.0000 0.81191  0.31506  0.55718  Biso   1.000  C
  H98      1.0000 0.81730  0.32780  0.61110  Biso   1.000  H
  Cu15     1.0000 0.48849  0.01384  0.92480  Biso   1.000  Cu
  Cu16     1.0000 0.28431  0.25145  0.21766  Biso   1.000  Cu
  I8       1.0000 0.23976  0.18980  0.18468  Biso   1.000  I
  O29      1.0000 0.45954  0.05116  0.99950  Biso   1.000  O
  O30      1.0000 0.47863  0.02730  0.12770  Biso   1.000  O
  C155     1.0000 0.46088  0.05159  0.08090  Biso   1.000  C
  C156     1.0000 0.43980  0.08456  0.12670  Biso   1.000  C
  C157     1.0000 0.42189  0.11370  0.07705  Biso   1.000  C
  H99      1.0000 0.42120  0.11150  0.01520  Biso   1.000  H
  C158     1.0000 0.40503  0.14607  0.11790  Biso   1.000  C
  H100     1.0000 0.39280  0.16600  0.08390  Biso   1.000  H
  C159     1.0000 0.40609  0.14932  0.20830  Biso   1.000  C
  C160     1.0000 0.42401  0.12018  0.25801  Biso   1.000  C
  H101     1.0000 0.42470  0.12240  0.31990  Biso   1.000  H
  C161     1.0000 0.44086  0.08780  0.21720  Biso   1.000  C
  H102     1.0000 0.45310  0.06790  0.25120  Biso   1.000  H
  C162     1.0000 0.38946  0.18455  0.25130  Biso   1.000  C
  C163     1.0000 0.35354  0.19905  0.22230  Biso   1.000  C
  H103     1.0000 0.33950  0.18560  0.17770  Biso   1.000  H
  N29      1.0000 0.33815  0.23319  0.25870  Biso   1.000  N
  C164     1.0000 0.35867  0.25283  0.32390  Biso   1.000  C
  H104     1.0000 0.34810  0.27620  0.34870  Biso   1.000  H
  N30      1.0000 0.39458  0.23834  0.35290  Biso   1.000  N
  C165     1.0000 0.40997  0.20420  0.31660  Biso   1.000  C
  H105     1.0000 0.43450  0.19430  0.33640  Biso   1.000  H
  O31      1.0000 0.44558  0.97579  0.93580  Biso   1.000  O
  O32      1.0000 0.46597  0.95238  0.06340  Biso   1.000  O
  C166     1.0000 0.44374  0.95225  0.99800  Biso   1.000  C
  C167     1.0000 0.41230  0.92160  0.99510  Biso   1.000  C
  C168     1.0000 0.38685  0.91957  0.92420  Biso   1.000  C
  H106     1.0000 0.38830  0.93870  0.87910  Biso   1.000  H
  C169     1.0000 0.35927  0.88950  0.91910  Biso   1.000  C
  H107     1.0000 0.34190  0.88810  0.87070  Biso   1.000  H
  C170     1.0000 0.35714  0.86147  0.98500  Biso   1.000  C
  C171     1.0000 0.38259  0.86350  0.05590  Biso   1.000  C
  H108     1.0000 0.38110  0.84430  0.10100  Biso   1.000  H
  C172     1.0000 0.41016  0.89357  0.06090  Biso   1.000  C
  H109     1.0000 0.42760  0.89500  0.10940  Biso   1.000  H
  C173     1.0000 0.32844  0.82917  0.98030  Biso   1.000  C
  C174     1.0000 0.32062  0.81047  0.90143  Biso   1.000  C
  H110     1.0000 0.33190  0.82010  0.84890  Biso   1.000  H
  N31      1.0000 0.29627  0.77767  0.89948  Biso   1.000  N
  C175     1.0000 0.27974  0.76357  0.97640  Biso   1.000  C
  H111     1.0000 0.26310  0.74110  0.97500  Biso   1.000  H
  N32      1.0000 0.28756  0.78226  0.05522  Biso   1.000  N
  C176     1.0000 0.31191  0.81506  0.05718  Biso   1.000  C
  H112     1.0000 0.31730  0.82780  0.11110  Biso   1.000  H
  Cu17     1.0000 0.76384  0.76151  0.32520  Biso   1.000  Cu
  Cu18     1.0000 0.00145  0.96569  0.03234  Biso   1.000  Cu
  I9       1.0000 0.93980  0.01024  0.06532  Biso   1.000  I
  O33      1.0000 0.80116  0.79046  0.25050  Biso   1.000  O
  O34      1.0000 0.77730  0.77137  0.12230  Biso   1.000  O
  C177     1.0000 0.80159  0.78912  0.16910  Biso   1.000  C
  C178     1.0000 0.83456  0.81020  0.12330  Biso   1.000  C
  C179     1.0000 0.86370  0.82811  0.17295  Biso   1.000  C
  H113     1.0000 0.86150  0.82880  0.23480  Biso   1.000  H
  C180     1.0000 0.89607  0.84497  0.13210  Biso   1.000  C
  H114     1.0000 0.91600  0.85720  0.16610  Biso   1.000  H
  C181     1.0000 0.89932  0.84391  0.04170  Biso   1.000  C
  C182     1.0000 0.87018  0.82599  0.99199  Biso   1.000  C
  H115     1.0000 0.87240  0.82530  0.93010  Biso   1.000  H
  C183     1.0000 0.83780  0.80914  0.03280  Biso   1.000  C
  H116     1.0000 0.81790  0.79690  0.99880  Biso   1.000  H
  C184     1.0000 0.93455  0.86054  0.99870  Biso   1.000  C
  C185     1.0000 0.94905  0.89646  0.02770  Biso   1.000  C
  H117     1.0000 0.93560  0.91050  0.07230  Biso   1.000  H
  N33      1.0000 0.98319  0.91185  0.99130  Biso   1.000  N
  C186     1.0000 0.00283  0.89133  0.92610  Biso   1.000  C
  H118     1.0000 0.02620  0.90190  0.90130  Biso   1.000  H
  N34      1.0000 0.98834  0.85542  0.89710  Biso   1.000  N
  C187     1.0000 0.95420  0.84003  0.93340  Biso   1.000  C
  H119     1.0000 0.94430  0.81550  0.91360  Biso   1.000  H
  O35      1.0000 0.72579  0.80442  0.31420  Biso   1.000  O
  O36      1.0000 0.70238  0.78403  0.18660  Biso   1.000  O
  C188     1.0000 0.70225  0.80626  0.25200  Biso   1.000  C
  C189     1.0000 0.67160  0.83770  0.25490  Biso   1.000  C
  C190     1.0000 0.66957  0.86315  0.32580  Biso   1.000  C
  H120     1.0000 0.68870  0.86170  0.37090  Biso   1.000  H
  C191     1.0000 0.63950  0.89073  0.33090  Biso   1.000  C
  H121     1.0000 0.63810  0.90810  0.37930  Biso   1.000  H
  C192     1.0000 0.61147  0.89286  0.26500  Biso   1.000  C
  C193     1.0000 0.61350  0.86741  0.19410  Biso   1.000  C
  H122     1.0000 0.59430  0.86890  0.14900  Biso   1.000  H
  C194     1.0000 0.64357  0.83984  0.18910  Biso   1.000  C
  H123     1.0000 0.64500  0.82240  0.14060  Biso   1.000  H
  C195     1.0000 0.57917  0.92156  0.26970  Biso   1.000  C
  C196     1.0000 0.56047  0.92938  0.34857  Biso   1.000  C
  H124     1.0000 0.57010  0.91810  0.40110  Biso   1.000  H
  N35      1.0000 0.52767  0.95373  0.35052  Biso   1.000  N
  C197     1.0000 0.51357  0.97026  0.27360  Biso   1.000  C
  H125     1.0000 0.49110  0.98690  0.27500  Biso   1.000  H
  N36      1.0000 0.53226  0.96244  0.19478  Biso   1.000  N
  C198     1.0000 0.56506  0.93809  0.19282  Biso   1.000  C
  H126     1.0000 0.57780  0.93270  0.13890  Biso   1.000  H
  Cu19     1.0000 0.26384  0.26151  0.82520  Biso   1.000  Cu
  Cu20     1.0000 0.50145  0.46569  0.53234  Biso   1.000  Cu
  I10      1.0000 0.43980  0.51024  0.56532  Biso   1.000  I
  O37      1.0000 0.30116  0.29046  0.75050  Biso   1.000  O
  O38      1.0000 0.27730  0.27137  0.62230  Biso   1.000  O
  C199     1.0000 0.30159  0.28912  0.66910  Biso   1.000  C
  C200     1.0000 0.33456  0.31020  0.62330  Biso   1.000  C
  C201     1.0000 0.36370  0.32811  0.67295  Biso   1.000  C
  H127     1.0000 0.36150  0.32880  0.73480  Biso   1.000  H
  C202     1.0000 0.39607  0.34497  0.63210  Biso   1.000  C
  H128     1.0000 0.41600  0.35720  0.66610  Biso   1.000  H
  C203     1.0000 0.39932  0.34391  0.54170  Biso   1.000  C
  C204     1.0000 0.37018  0.32599  0.49199  Biso   1.000  C
  H129     1.0000 0.37240  0.32530  0.43010  Biso   1.000  H
  C205     1.0000 0.33780  0.30914  0.53280  Biso   1.000  C
  H130     1.0000 0.31790  0.29690  0.49880  Biso   1.000  H
  C206     1.0000 0.43455  0.36054  0.49870  Biso   1.000  C
  C207     1.0000 0.44905  0.39646  0.52770  Biso   1.000  C
  H131     1.0000 0.43560  0.41050  0.57230  Biso   1.000  H
  N37      1.0000 0.48319  0.41185  0.49130  Biso   1.000  N
  C208     1.0000 0.50283  0.39133  0.42610  Biso   1.000  C
  H132     1.0000 0.52620  0.40190  0.40130  Biso   1.000  H
  N38      1.0000 0.48834  0.35542  0.39710  Biso   1.000  N
  C209     1.0000 0.45420  0.34003  0.43340  Biso   1.000  C
  H133     1.0000 0.44430  0.31550  0.41360  Biso   1.000  H
  O39      1.0000 0.22579  0.30442  0.81420  Biso   1.000  O
  O40      1.0000 0.20238  0.28403  0.68660  Biso   1.000  O
  C210     1.0000 0.20225  0.30626  0.75200  Biso   1.000  C
  C211     1.0000 0.17160  0.33770  0.75490  Biso   1.000  C
  C212     1.0000 0.16957  0.36315  0.82580  Biso   1.000  C
  H134     1.0000 0.18870  0.36170  0.87090  Biso   1.000  H
  C213     1.0000 0.13950  0.39073  0.83090  Biso   1.000  C
  H135     1.0000 0.13810  0.40810  0.87930  Biso   1.000  H
  C214     1.0000 0.11147  0.39286  0.76500  Biso   1.000  C
  C215     1.0000 0.11350  0.36741  0.69410  Biso   1.000  C
  H136     1.0000 0.09430  0.36890  0.64900  Biso   1.000  H
  C216     1.0000 0.14357  0.33984  0.68910  Biso   1.000  C
  H137     1.0000 0.14500  0.32240  0.64060  Biso   1.000  H
  C217     1.0000 0.07917  0.42156  0.76970  Biso   1.000  C
  C218     1.0000 0.06047  0.42938  0.84857  Biso   1.000  C
  H138     1.0000 0.07010  0.41810  0.90110  Biso   1.000  H
  N39      1.0000 0.02767  0.45373  0.85052  Biso   1.000  N
  C219     1.0000 0.01357  0.47026  0.77360  Biso   1.000  C
  H139     1.0000 0.99110  0.48690  0.77500  Biso   1.000  H
  N40      1.0000 0.03226  0.46244  0.69478  Biso   1.000  N
  C220     1.0000 0.06506  0.43809  0.69282  Biso   1.000  C
  H140     1.0000 0.07780  0.43270  0.63890  Biso   1.000  H
  Cu21     1.0000 0.73616  0.23849  0.82520  Biso   1.000  Cu
  Cu22     1.0000 0.49855  0.03431  0.53234  Biso   1.000  Cu
  I11      1.0000 0.56020  0.98976  0.56532  Biso   1.000  I
  O41      1.0000 0.69884  0.20954  0.75050  Biso   1.000  O
  O42      1.0000 0.72270  0.22863  0.62230  Biso   1.000  O
  C221     1.0000 0.69841  0.21088  0.66910  Biso   1.000  C
  C222     1.0000 0.66544  0.18980  0.62330  Biso   1.000  C
  C223     1.0000 0.63630  0.17189  0.67295  Biso   1.000  C
  H141     1.0000 0.63850  0.17120  0.73480  Biso   1.000  H
  C224     1.0000 0.60393  0.15503  0.63210  Biso   1.000  C
  H142     1.0000 0.58400  0.14280  0.66610  Biso   1.000  H
  C225     1.0000 0.60068  0.15609  0.54170  Biso   1.000  C
  C226     1.0000 0.62982  0.17401  0.49199  Biso   1.000  C
  H143     1.0000 0.62760  0.17470  0.43010  Biso   1.000  H
  C227     1.0000 0.66220  0.19086  0.53280  Biso   1.000  C
  H144     1.0000 0.68210  0.20310  0.49880  Biso   1.000  H
  C228     1.0000 0.56545  0.13946  0.49870  Biso   1.000  C
  C229     1.0000 0.55095  0.10354  0.52770  Biso   1.000  C
  H145     1.0000 0.56440  0.08950  0.57230  Biso   1.000  H
  N41      1.0000 0.51681  0.08815  0.49130  Biso   1.000  N
  C230     1.0000 0.49717  0.10867  0.42610  Biso   1.000  C
  H146     1.0000 0.47380  0.09810  0.40130  Biso   1.000  H
  N42      1.0000 0.51166  0.14458  0.39710  Biso   1.000  N
  C231     1.0000 0.54580  0.15997  0.43340  Biso   1.000  C
  H147     1.0000 0.55570  0.18450  0.41360  Biso   1.000  H
  O43      1.0000 0.77421  0.19558  0.81420  Biso   1.000  O
  O44      1.0000 0.79762  0.21597  0.68660  Biso   1.000  O
  C232     1.0000 0.79775  0.19374  0.75200  Biso   1.000  C
  C233     1.0000 0.82840  0.16230  0.75490  Biso   1.000  C
  C234     1.0000 0.83043  0.13685  0.82580  Biso   1.000  C
  H148     1.0000 0.81130  0.13830  0.87090  Biso   1.000  H
  C235     1.0000 0.86050  0.10927  0.83090  Biso   1.000  C
  H149     1.0000 0.86190  0.09190  0.87930  Biso   1.000  H
  C236     1.0000 0.88853  0.10714  0.76500  Biso   1.000  C
  C237     1.0000 0.88650  0.13259  0.69410  Biso   1.000  C
  H150     1.0000 0.90570  0.13110  0.64900  Biso   1.000  H
  C238     1.0000 0.85643  0.16016  0.68910  Biso   1.000  C
  H151     1.0000 0.85500  0.17760  0.64060  Biso   1.000  H
  C239     1.0000 0.92083  0.07844  0.76970  Biso   1.000  C
  C240     1.0000 0.93953  0.07062  0.84857  Biso   1.000  C
  H152     1.0000 0.92990  0.08190  0.90110  Biso   1.000  H
  N43      1.0000 0.97233  0.04627  0.85052  Biso   1.000  N
  C241     1.0000 0.98643  0.02974  0.77360  Biso   1.000  C
  H153     1.0000 0.00890  0.01310  0.77500  Biso   1.000  H
  N44      1.0000 0.96774  0.03756  0.69478  Biso   1.000  N
  C242     1.0000 0.93494  0.06191  0.69282  Biso   1.000  C
  H154     1.0000 0.92220  0.06730  0.63890  Biso   1.000  H
  Cu23     1.0000 0.23616  0.73849  0.32520  Biso   1.000  Cu
  Cu24     1.0000 0.99855  0.53431  0.03234  Biso   1.000  Cu
  I12      1.0000 0.06020  0.48976  0.06532  Biso   1.000  I
  O45      1.0000 0.19884  0.70954  0.25050  Biso   1.000  O
  O46      1.0000 0.22270  0.72863  0.12230  Biso   1.000  O
  C243     1.0000 0.19841  0.71088  0.16910  Biso   1.000  C
  C244     1.0000 0.16544  0.68980  0.12330  Biso   1.000  C
  C245     1.0000 0.13630  0.67189  0.17295  Biso   1.000  C
  H155     1.0000 0.13850  0.67120  0.23480  Biso   1.000  H
  C246     1.0000 0.10393  0.65503  0.13210  Biso   1.000  C
  H156     1.0000 0.08400  0.64280  0.16610  Biso   1.000  H
  C247     1.0000 0.10068  0.65609  0.04170  Biso   1.000  C
  C248     1.0000 0.12982  0.67401  0.99199  Biso   1.000  C
  H157     1.0000 0.12760  0.67470  0.93010  Biso   1.000  H
  C249     1.0000 0.16220  0.69086  0.03280  Biso   1.000  C
  H158     1.0000 0.18210  0.70310  0.99880  Biso   1.000  H
  C250     1.0000 0.06545  0.63946  0.99870  Biso   1.000  C
  C251     1.0000 0.05095  0.60354  0.02770  Biso   1.000  C
  H159     1.0000 0.06440  0.58950  0.07230  Biso   1.000  H
  N45      1.0000 0.01681  0.58815  0.99130  Biso   1.000  N
  C252     1.0000 0.99717  0.60867  0.92610  Biso   1.000  C
  H160     1.0000 0.97380  0.59810  0.90130  Biso   1.000  H
  N46      1.0000 0.01166  0.64458  0.89710  Biso   1.000  N
  C253     1.0000 0.04580  0.65997  0.93340  Biso   1.000  C
  H161     1.0000 0.05570  0.68450  0.91360  Biso   1.000  H
  O47      1.0000 0.27421  0.69558  0.31420  Biso   1.000  O
  O48      1.0000 0.29762  0.71597  0.18660  Biso   1.000  O
  C254     1.0000 0.29775  0.69374  0.25200  Biso   1.000  C
  C255     1.0000 0.32840  0.66230  0.25490  Biso   1.000  C
  C256     1.0000 0.33043  0.63685  0.32580  Biso   1.000  C
  H162     1.0000 0.31130  0.63830  0.37090  Biso   1.000  H
  C257     1.0000 0.36050  0.60927  0.33090  Biso   1.000  C
  H163     1.0000 0.36190  0.59190  0.37930  Biso   1.000  H
  C258     1.0000 0.38853  0.60714  0.26500  Biso   1.000  C
  C259     1.0000 0.38650  0.63259  0.19410  Biso   1.000  C
  H164     1.0000 0.40570  0.63110  0.14900  Biso   1.000  H
  C260     1.0000 0.35643  0.66016  0.18910  Biso   1.000  C
  H165     1.0000 0.35500  0.67760  0.14060  Biso   1.000  H
  C261     1.0000 0.42083  0.57844  0.26970  Biso   1.000  C
  C262     1.0000 0.43953  0.57062  0.34857  Biso   1.000  C
  H166     1.0000 0.42990  0.58190  0.40110  Biso   1.000  H
  N47      1.0000 0.47233  0.54627  0.35052  Biso   1.000  N
  C263     1.0000 0.48643  0.52974  0.27360  Biso   1.000  C
  H167     1.0000 0.50890  0.51310  0.27500  Biso   1.000  H
  N48      1.0000 0.46774  0.53756  0.19478  Biso   1.000  N
  C264     1.0000 0.43494  0.56191  0.19282  Biso   1.000  C
  H168     1.0000 0.42220  0.56730  0.13890  Biso   1.000  H
  Cu25     1.0000 0.48849  0.51384  0.07520  Biso   1.000  Cu
  Cu26     1.0000 0.28431  0.75145  0.78234  Biso   1.000  Cu
  I13      1.0000 0.23976  0.68980  0.81532  Biso   1.000  I
  O49      1.0000 0.45954  0.55116  0.00050  Biso   1.000  O
  O50      1.0000 0.47863  0.52730  0.87230  Biso   1.000  O
  C265     1.0000 0.46088  0.55159  0.91910  Biso   1.000  C
  C266     1.0000 0.43980  0.58456  0.87330  Biso   1.000  C
  C267     1.0000 0.42189  0.61370  0.92295  Biso   1.000  C
  H169     1.0000 0.42120  0.61150  0.98480  Biso   1.000  H
  C268     1.0000 0.40503  0.64607  0.88210  Biso   1.000  C
  H170     1.0000 0.39280  0.66600  0.91610  Biso   1.000  H
  C269     1.0000 0.40609  0.64932  0.79170  Biso   1.000  C
  C270     1.0000 0.42401  0.62018  0.74199  Biso   1.000  C
  H171     1.0000 0.42470  0.62240  0.68010  Biso   1.000  H
  C271     1.0000 0.44086  0.58780  0.78280  Biso   1.000  C
  H172     1.0000 0.45310  0.56790  0.74880  Biso   1.000  H
  C272     1.0000 0.38946  0.68455  0.74870  Biso   1.000  C
  C273     1.0000 0.35354  0.69905  0.77770  Biso   1.000  C
  H173     1.0000 0.33950  0.68560  0.82230  Biso   1.000  H
  N49      1.0000 0.33815  0.73319  0.74130  Biso   1.000  N
  C274     1.0000 0.35867  0.75283  0.67610  Biso   1.000  C
  H174     1.0000 0.34810  0.77620  0.65130  Biso   1.000  H
  N50      1.0000 0.39458  0.73834  0.64710  Biso   1.000  N
  C275     1.0000 0.40997  0.70420  0.68340  Biso   1.000  C
  H175     1.0000 0.43450  0.69430  0.66360  Biso   1.000  H
  O51      1.0000 0.44558  0.47579  0.06420  Biso   1.000  O
  O52      1.0000 0.46597  0.45238  0.93660  Biso   1.000  O
  C276     1.0000 0.44374  0.45225  0.00200  Biso   1.000  C
  C277     1.0000 0.41230  0.42160  0.00490  Biso   1.000  C
  C278     1.0000 0.38685  0.41957  0.07580  Biso   1.000  C
  H176     1.0000 0.38830  0.43870  0.12090  Biso   1.000  H
  C279     1.0000 0.35927  0.38950  0.08090  Biso   1.000  C
  H177     1.0000 0.34190  0.38810  0.12930  Biso   1.000  H
  C280     1.0000 0.35714  0.36147  0.01500  Biso   1.000  C
  C281     1.0000 0.38259  0.36350  0.94410  Biso   1.000  C
  H178     1.0000 0.38110  0.34430  0.89900  Biso   1.000  H
  C282     1.0000 0.41016  0.39357  0.93910  Biso   1.000  C
  H179     1.0000 0.42760  0.39500  0.89060  Biso   1.000  H
  C283     1.0000 0.32844  0.32917  0.01970  Biso   1.000  C
  C284     1.0000 0.32062  0.31047  0.09857  Biso   1.000  C
  H180     1.0000 0.33190  0.32010  0.15110  Biso   1.000  H
  N51      1.0000 0.29627  0.27767  0.10052  Biso   1.000  N
  C285     1.0000 0.27974  0.26357  0.02360  Biso   1.000  C
  H181     1.0000 0.26310  0.24110  0.02500  Biso   1.000  H
  N52      1.0000 0.28756  0.28226  0.94478  Biso   1.000  N
  C286     1.0000 0.31191  0.31506  0.94282  Biso   1.000  C
  H182     1.0000 0.31730  0.32780  0.88890  Biso   1.000  H
  Cu27     1.0000 0.98849  0.01384  0.57520  Biso   1.000  Cu
  Cu28     1.0000 0.78431  0.25145  0.28234  Biso   1.000  Cu
  I14      1.0000 0.73976  0.18980  0.31532  Biso   1.000  I
  O53      1.0000 0.95954  0.05116  0.50050  Biso   1.000  O
  O54      1.0000 0.97863  0.02730  0.37230  Biso   1.000  O
  C287     1.0000 0.96088  0.05159  0.41910  Biso   1.000  C
  C288     1.0000 0.93980  0.08456  0.37330  Biso   1.000  C
  C289     1.0000 0.92189  0.11370  0.42295  Biso   1.000  C
  H183     1.0000 0.92120  0.11150  0.48480  Biso   1.000  H
  C290     1.0000 0.90503  0.14607  0.38210  Biso   1.000  C
  H184     1.0000 0.89280  0.16600  0.41610  Biso   1.000  H
  C291     1.0000 0.90609  0.14932  0.29170  Biso   1.000  C
  C292     1.0000 0.92401  0.12018  0.24199  Biso   1.000  C
  H185     1.0000 0.92470  0.12240  0.18010  Biso   1.000  H
  C293     1.0000 0.94086  0.08780  0.28280  Biso   1.000  C
  H186     1.0000 0.95310  0.06790  0.24880  Biso   1.000  H
  C294     1.0000 0.88946  0.18455  0.24870  Biso   1.000  C
  C295     1.0000 0.85354  0.19905  0.27770  Biso   1.000  C
  H187     1.0000 0.83950  0.18560  0.32230  Biso   1.000  H
  N53      1.0000 0.83815  0.23319  0.24130  Biso   1.000  N
  C296     1.0000 0.85867  0.25283  0.17610  Biso   1.000  C
  H188     1.0000 0.84810  0.27620  0.15130  Biso   1.000  H
  N54      1.0000 0.89458  0.23834  0.14710  Biso   1.000  N
  C297     1.0000 0.90997  0.20420  0.18340  Biso   1.000  C
  H189     1.0000 0.93450  0.19430  0.16360  Biso   1.000  H
  O55      1.0000 0.94558  0.97579  0.56420  Biso   1.000  O
  O56      1.0000 0.96597  0.95238  0.43660  Biso   1.000  O
  C298     1.0000 0.94374  0.95225  0.50200  Biso   1.000  C
  C299     1.0000 0.91230  0.92160  0.50490  Biso   1.000  C
  C300     1.0000 0.88685  0.91957  0.57580  Biso   1.000  C
  H190     1.0000 0.88830  0.93870  0.62090  Biso   1.000  H
  C301     1.0000 0.85927  0.88950  0.58090  Biso   1.000  C
  H191     1.0000 0.84190  0.88810  0.62930  Biso   1.000  H
  C302     1.0000 0.85714  0.86147  0.51500  Biso   1.000  C
  C303     1.0000 0.88259  0.86350  0.44410  Biso   1.000  C
  H192     1.0000 0.88110  0.84430  0.39900  Biso   1.000  H
  C304     1.0000 0.91016  0.89357  0.43910  Biso   1.000  C
  H193     1.0000 0.92760  0.89500  0.39060  Biso   1.000  H
  C305     1.0000 0.82844  0.82917  0.51970  Biso   1.000  C
  C306     1.0000 0.82062  0.81047  0.59857  Biso   1.000  C
  H194     1.0000 0.83190  0.82010  0.65110  Biso   1.000  H
  N55      1.0000 0.79627  0.77767  0.60052  Biso   1.000  N
  C307     1.0000 0.77974  0.76357  0.52360  Biso   1.000  C
  H195     1.0000 0.76310  0.74110  0.52500  Biso   1.000  H
  N56      1.0000 0.78756  0.78226  0.44478  Biso   1.000  N
  C308     1.0000 0.81191  0.81506  0.44282  Biso   1.000  C
  H196     1.0000 0.81730  0.82780  0.38890  Biso   1.000  H
  Cu29     1.0000 0.01151  0.48616  0.57520  Biso   1.000  Cu
  Cu30     1.0000 0.21569  0.24855  0.28234  Biso   1.000  Cu
  I15      1.0000 0.26024  0.31020  0.31532  Biso   1.000  I
  O57      1.0000 0.04046  0.44884  0.50050  Biso   1.000  O
  O58      1.0000 0.02137  0.47270  0.37230  Biso   1.000  O
  C309     1.0000 0.03912  0.44841  0.41910  Biso   1.000  C
  C310     1.0000 0.06020  0.41544  0.37330  Biso   1.000  C
  C311     1.0000 0.07811  0.38630  0.42295  Biso   1.000  C
  H197     1.0000 0.07880  0.38850  0.48480  Biso   1.000  H
  C312     1.0000 0.09497  0.35393  0.38210  Biso   1.000  C
  H198     1.0000 0.10720  0.33400  0.41610  Biso   1.000  H
  C313     1.0000 0.09391  0.35068  0.29170  Biso   1.000  C
  C314     1.0000 0.07599  0.37982  0.24199  Biso   1.000  C
  H199     1.0000 0.07530  0.37760  0.18010  Biso   1.000  H
  C315     1.0000 0.05914  0.41220  0.28280  Biso   1.000  C
  H200     1.0000 0.04690  0.43210  0.24880  Biso   1.000  H
  C316     1.0000 0.11054  0.31545  0.24870  Biso   1.000  C
  C317     1.0000 0.14646  0.30095  0.27770  Biso   1.000  C
  H201     1.0000 0.16050  0.31440  0.32230  Biso   1.000  H
  N57      1.0000 0.16185  0.26681  0.24130  Biso   1.000  N
  C318     1.0000 0.14133  0.24717  0.17610  Biso   1.000  C
  H202     1.0000 0.15190  0.22380  0.15130  Biso   1.000  H
  N58      1.0000 0.10542  0.26166  0.14710  Biso   1.000  N
  C319     1.0000 0.09003  0.29580  0.18340  Biso   1.000  C
  H203     1.0000 0.06550  0.30570  0.16360  Biso   1.000  H
  O59      1.0000 0.05442  0.52421  0.56420  Biso   1.000  O
  O60      1.0000 0.03403  0.54762  0.43660  Biso   1.000  O
  C320     1.0000 0.05626  0.54775  0.50200  Biso   1.000  C
  C321     1.0000 0.08770  0.57840  0.50490  Biso   1.000  C
  C322     1.0000 0.11315  0.58043  0.57580  Biso   1.000  C
  H204     1.0000 0.11170  0.56130  0.62090  Biso   1.000  H
  C323     1.0000 0.14073  0.61050  0.58090  Biso   1.000  C
  H205     1.0000 0.15810  0.61190  0.62930  Biso   1.000  H
  C324     1.0000 0.14286  0.63853  0.51500  Biso   1.000  C
  C325     1.0000 0.11741  0.63650  0.44410  Biso   1.000  C
  H206     1.0000 0.11890  0.65570  0.39900  Biso   1.000  H
  C326     1.0000 0.08984  0.60643  0.43910  Biso   1.000  C
  H207     1.0000 0.07240  0.60500  0.39060  Biso   1.000  H
  C327     1.0000 0.17156  0.67083  0.51970  Biso   1.000  C
  C328     1.0000 0.17938  0.68953  0.59857  Biso   1.000  C
  H208     1.0000 0.16810  0.67990  0.65110  Biso   1.000  H
  N59      1.0000 0.20373  0.72233  0.60052  Biso   1.000  N
  C329     1.0000 0.22026  0.73643  0.52360  Biso   1.000  C
  H209     1.0000 0.23690  0.75890  0.52500  Biso   1.000  H
  N60      1.0000 0.21244  0.71774  0.44478  Biso   1.000  N
  C330     1.0000 0.18809  0.68494  0.44282  Biso   1.000  C
  H210     1.0000 0.18270  0.67220  0.38890  Biso   1.000  H
  Cu31     1.0000 0.51151  0.98616  0.07520  Biso   1.000  Cu
  Cu32     1.0000 0.71569  0.74855  0.78234  Biso   1.000  Cu
  I16      1.0000 0.76024  0.81020  0.81532  Biso   1.000  I
  O61      1.0000 0.54046  0.94884  0.00050  Biso   1.000  O
  O62      1.0000 0.52137  0.97270  0.87230  Biso   1.000  O
  C331     1.0000 0.53912  0.94841  0.91910  Biso   1.000  C
  C332     1.0000 0.56020  0.91544  0.87330  Biso   1.000  C
  C333     1.0000 0.57811  0.88630  0.92295  Biso   1.000  C
  H211     1.0000 0.57880  0.88850  0.98480  Biso   1.000  H
  C334     1.0000 0.59497  0.85393  0.88210  Biso   1.000  C
  H212     1.0000 0.60720  0.83400  0.91610  Biso   1.000  H
  C335     1.0000 0.59391  0.85068  0.79170  Biso   1.000  C
  C336     1.0000 0.57599  0.87982  0.74199  Biso   1.000  C
  H213     1.0000 0.57530  0.87760  0.68010  Biso   1.000  H
  C337     1.0000 0.55914  0.91220  0.78280  Biso   1.000  C
  H214     1.0000 0.54690  0.93210  0.74880  Biso   1.000  H
  C338     1.0000 0.61054  0.81545  0.74870  Biso   1.000  C
  C339     1.0000 0.64646  0.80095  0.77770  Biso   1.000  C
  H215     1.0000 0.66050  0.81440  0.82230  Biso   1.000  H
  N61      1.0000 0.66185  0.76681  0.74130  Biso   1.000  N
  C340     1.0000 0.64133  0.74717  0.67610  Biso   1.000  C
  H216     1.0000 0.65190  0.72380  0.65130  Biso   1.000  H
  N62      1.0000 0.60542  0.76166  0.64710  Biso   1.000  N
  C341     1.0000 0.59003  0.79580  0.68340  Biso   1.000  C
  H217     1.0000 0.56550  0.80570  0.66360  Biso   1.000  H
  O63      1.0000 0.55442  0.02421  0.06420  Biso   1.000  O
  O64      1.0000 0.53403  0.04762  0.93660  Biso   1.000  O
  C342     1.0000 0.55626  0.04775  0.00200  Biso   1.000  C
  C343     1.0000 0.58770  0.07840  0.00490  Biso   1.000  C
  C344     1.0000 0.61315  0.08043  0.07580  Biso   1.000  C
  H218     1.0000 0.61170  0.06130  0.12090  Biso   1.000  H
  C345     1.0000 0.64073  0.11050  0.08090  Biso   1.000  C
  H219     1.0000 0.65810  0.11190  0.12930  Biso   1.000  H
  C346     1.0000 0.64286  0.13853  0.01500  Biso   1.000  C
  C347     1.0000 0.61741  0.13650  0.94410  Biso   1.000  C
  H220     1.0000 0.61890  0.15570  0.89900  Biso   1.000  H
  C348     1.0000 0.58984  0.10643  0.93910  Biso   1.000  C
  H221     1.0000 0.57240  0.10500  0.89060  Biso   1.000  H
  C349     1.0000 0.67156  0.17083  0.01970  Biso   1.000  C
  C350     1.0000 0.67938  0.18953  0.09857  Biso   1.000  C
  H222     1.0000 0.66810  0.17990  0.15110  Biso   1.000  H
  N63      1.0000 0.70373  0.22233  0.10052  Biso   1.000  N
  C351     1.0000 0.72026  0.23643  0.02360  Biso   1.000  C
  H223     1.0000 0.73690  0.25890  0.02500  Biso   1.000  H
  N64      1.0000 0.71244  0.21774  0.94478  Biso   1.000  N
  C352     1.0000 0.68809  0.18494  0.94282  Biso   1.000  C
  H224     1.0000 0.68270  0.17220  0.88890  Biso   1.000  H
