data_image0
_cell_length_a       28.281
_cell_length_b       20.849
_cell_length_c       30.699
_cell_angle_alpha    90
_cell_angle_beta     90.994
_cell_angle_gamma    90

_symmetry_space_group_name_H-M    "P 1"
_symmetry_int_tables_number       1

loop_
  _symmetry_equiv_pos_as_xyz
  'x, y, z'

loop_
  _atom_site_label
  _atom_site_occupancy
  _atom_site_fract_x
  _atom_site_fract_y
  _atom_site_fract_z
  _atom_site_thermal_displace_type
  _atom_site_B_iso_or_equiv
  _atom_site_type_symbol
  Ca1      1.0000 0.50980  0.73800  0.31280  Biso   1.000  Ca
  O1       1.0000 0.44430  0.81400  0.30910  Biso   1.000  O
  O2       1.0000 0.44560  0.76120  0.24750  Biso   1.000  O
  O3       1.0000 0.47140  0.71350  0.38020  Biso   1.000  O
  O4       1.0000 0.49380  0.63770  0.28580  Biso   1.000  O
  O5       1.0000 0.53930  0.81920  0.36190  Biso   1.000  O
  O6       1.0000 0.57040  0.68640  0.35360  Biso   1.000  O
  C1       1.0000 0.42530  0.79580  0.27410  Biso   1.000  C
  Ca2      1.0000 0.54060  0.70880  0.43080  Biso   1.000  Ca
  C2       1.0000 0.45180  0.66510  0.39600  Biso   1.000  C
  C3       1.0000 0.37490  0.81440  0.26410  Biso   1.000  C
  O7       1.0000 0.46990  0.63490  0.42720  Biso   1.000  O
  O8       1.0000 0.58910  0.62200  0.40800  Biso   1.000  O
  O9       1.0000 0.58750  0.80480  0.41860  Biso   1.000  O
  O10      1.0000 0.59420  0.72420  0.49480  Biso   1.000  O
  O11      1.0000 0.54320  0.64600  0.50160  Biso   1.000  O
  C4       1.0000 0.40490  0.64450  0.37750  Biso   1.000  C
  C5       1.0000 0.34890  0.78680  0.23080  Biso   1.000  C
  C6       1.0000 0.35360  0.86190  0.28900  Biso   1.000  C
  Ca3      1.0000 0.47100  0.58440  0.49670  Biso   1.000  Ca
  C7       1.0000 0.37870  0.68680  0.35140  Biso   1.000  C
  C8       1.0000 0.38770  0.58330  0.38500  Biso   1.000  C
  C9       1.0000 0.50420  0.50400  0.28840  Biso   1.000  C
  H1       1.0000 0.36290  0.75540  0.21370  Biso   1.000  H
  C10      1.0000 0.30300  0.80420  0.22200  Biso   1.000  C
  C11      1.0000 0.30740  0.88060  0.27960  Biso   1.000  C
  H2       1.0000 0.37030  0.88110  0.31180  Biso   1.000  H
  O12      1.0000 0.50770  0.50380  0.45410  Biso   1.000  O
  N1       1.0000 0.45720  0.56970  0.58050  Biso   1.000  N
  H3       1.0000 0.38980  0.72820  0.34670  Biso   1.000  H
  C12      1.0000 0.33610  0.66740  0.33250  Biso   1.000  C
  H4       1.0000 0.40440  0.55520  0.40300  Biso   1.000  H
  C13      1.0000 0.34530  0.56390  0.36540  Biso   1.000  C
  C14      1.0000 0.50430  0.43900  0.28830  Biso   1.000  C
  H5       1.0000 0.50700  0.52580  0.31470  Biso   1.000  H
  H6       1.0000 0.28590  0.78260  0.20040  Biso   1.000  H
  C15      1.0000 0.28090  0.85440  0.24530  Biso   1.000  C
  H7       1.0000 0.29360  0.91180  0.29690  Biso   1.000  H
  C16      1.0000 0.52130  0.49250  0.41510  Biso   1.000  C
  C17      1.0000 0.31930  0.60510  0.33830  Biso   1.000  C
  H8       1.0000 0.31860  0.69630  0.31570  Biso   1.000  H
  H9       1.0000 0.33400  0.52270  0.37050  Biso   1.000  H
  H10      1.0000 0.50730  0.41750  0.31470  Biso   1.000  H
  C18      1.0000 0.23310  0.87920  0.23410  Biso   1.000  C
  C19      1.0000 0.27620  0.58300  0.31460  Biso   1.000  C
  C20      1.0000 0.21040  0.92170  0.26080  Biso   1.000  C
  C21      1.0000 0.20960  0.86310  0.19430  Biso   1.000  C
  C22      1.0000 0.24480  0.53840  0.33250  Biso   1.000  C
  C23      1.0000 0.26710  0.60420  0.27200  Biso   1.000  C
  C24      1.0000 0.49050  0.29850  0.28730  Biso   1.000  C
  C25      1.0000 0.16660  0.94890  0.25020  Biso   1.000  C
  H11      1.0000 0.22490  0.93300  0.28710  Biso   1.000  H
  C26      1.0000 0.16620  0.88880  0.18250  Biso   1.000  C
  H12      1.0000 0.22390  0.83430  0.17550  Biso   1.000  H
  H13      1.0000 0.25020  0.52320  0.36060  Biso   1.000  H
  C27      1.0000 0.20550  0.51650  0.30860  Biso   1.000  C
  C28      1.0000 0.22830  0.58400  0.24800  Biso   1.000  C
  H14      1.0000 0.28810  0.63300  0.25940  Biso   1.000  H
  C29      1.0000 0.49090  0.23030  0.28840  Biso   1.000  C
  H15      1.0000 0.48350  0.32090  0.31260  Biso   1.000  H
  C30      1.0000 0.14520  0.93250  0.21050  Biso   1.000  C
  C31      1.0000 0.14520  0.99720  0.27960  Biso   1.000  C
  C32      1.0000 0.14350  0.87230  0.13950  Biso   1.000  C
  C33      1.0000 0.19800  0.53950  0.26710  Biso   1.000  C
  C34      1.0000 0.17200  0.47010  0.32830  Biso   1.000  C
  C35      1.0000 0.22140  0.60690  0.20240  Biso   1.000  C
  C36      1.0000 0.48160  0.19650  0.33030  Biso   1.000  C
  H16      1.0000 0.11640  0.95110  0.20260  Biso   1.000  H
  C37      1.0000 0.12490  0.05270  0.26430  Biso   1.000  C
  C38      1.0000 0.14720  0.98720  0.32420  Biso   1.000  C
  C39      1.0000 0.10050  0.89740  0.12660  Biso   1.000  C
  C40      1.0000 0.16530  0.83140  0.11030  Biso   1.000  C
  H17      1.0000 0.17190  0.52490  0.25120  Biso   1.000  H
  C41      1.0000 0.18850  0.42420  0.35920  Biso   1.000  C
  C42      1.0000 0.12470  0.46720  0.31550  Biso   1.000  C
  C43      1.0000 0.17610  0.61310  0.18320  Biso   1.000  C
  C44      1.0000 0.25970  0.62420  0.17780  Biso   1.000  C
  C45      1.0000 0.49660  0.13790  0.33680  Biso   1.000  C
  C46      1.0000 0.46060  0.22310  0.36330  Biso   1.000  C
  H18      1.0000 0.12290  0.05980  0.23440  Biso   1.000  H
  C47      1.0000 0.10730  0.09840  0.29250  Biso   1.000  C
  H19      1.0000 0.16100  0.94990  0.33520  Biso   1.000  H
  C48      1.0000 0.12890  0.03210  0.35270  Biso   1.000  C
  C49      1.0000 0.07940  0.88320  0.08640  Biso   1.000  C
  H20      1.0000 0.08500  0.92490  0.14540  Biso   1.000  H
  H21      1.0000 0.19470  0.81400  0.11750  Biso   1.000  H
  C50      1.0000 0.14390  0.81600  0.07070  Biso   1.000  C
  H22      1.0000 0.22030  0.42370  0.36760  Biso   1.000  H
  C51      1.0000 0.15770  0.38040  0.37660  Biso   1.000  C
  C52      1.0000 0.09450  0.42230  0.33310  Biso   1.000  C
  H23      1.0000 0.11310  0.49590  0.29470  Biso   1.000  H
  C53      1.0000 0.17020  0.63310  0.14120  Biso   1.000  C
  H24      1.0000 0.14960  0.60340  0.19960  Biso   1.000  H
  H25      1.0000 0.29000  0.62160  0.18990  Biso   1.000  H
  C54      1.0000 0.25370  0.64530  0.13490  Biso   1.000  C
  C55      1.0000 0.48870  0.10600  0.37820  Biso   1.000  C
  H26      1.0000 0.51260  0.11660  0.31490  Biso   1.000  H
  C56      1.0000 0.45480  0.19430  0.40310  Biso   1.000  C
  H27      1.0000 0.44870  0.26440  0.35960  Biso   1.000  H
  H28      1.0000 0.09440  0.13630  0.28160  Biso   1.000  H
  C57      1.0000 0.10880  0.08780  0.33690  Biso   1.000  C
  H29      1.0000 0.13020  0.02450  0.38250  Biso   1.000  H
  H30      1.0000 0.05090  0.90230  0.07830  Biso   1.000  H
  C58      1.0000 0.10110  0.84060  0.05870  Biso   1.000  C
  H31      1.0000 0.15920  0.78830  0.05180  Biso   1.000  H
  H32      1.0000 0.16880  0.35150  0.39750  Biso   1.000  H
  C59      1.0000 0.11070  0.37850  0.36370  Biso   1.000  C
  H33      1.0000 0.06280  0.42170  0.32430  Biso   1.000  H
  C60      1.0000 0.20840  0.64840  0.11600  Biso   1.000  C
  H34      1.0000 0.13980  0.63640  0.12930  Biso   1.000  H
  H35      1.0000 0.27980  0.65740  0.11890  Biso   1.000  H
  C61      1.0000 0.46770  0.13450  0.41030  Biso   1.000  C
  H36      1.0000 0.49890  0.06390  0.38180  Biso   1.000  H
  H37      1.0000 0.44130  0.21760  0.42550  Biso   1.000  H
  C62      1.0000 0.08850  0.13470  0.36810  Biso   1.000  C
  C63      1.0000 0.07820  0.82320  0.01560  Biso   1.000  C
  C64      1.0000 0.07670  0.33060  0.38210  Biso   1.000  C
  C65      1.0000 0.20180  0.66770  0.06910  Biso   1.000  C
  C66      1.0000 0.45980  0.10330  0.45360  Biso   1.000  C
  O13      1.0000 0.16230  0.65760  0.05210  Biso   1.000  O
  O14      1.0000 0.23560  0.69230  0.05010  Biso   1.000  O
  O15      1.0000 0.44800  0.13650  0.48540  Biso   1.000  O
  O16      1.0000 0.46660  0.04480  0.45660  Biso   1.000  O
  Ca4      1.0000 0.12390  0.67150  0.98630  Biso   1.000  Ca
  Ca5      1.0000 0.00980  0.23800  0.31280  Biso   1.000  Ca
  O17      1.0000 0.94430  0.31400  0.30910  Biso   1.000  O
  O18      1.0000 0.94560  0.26120  0.24750  Biso   1.000  O
  O19      1.0000 0.97140  0.21350  0.38020  Biso   1.000  O
  O20      1.0000 0.99380  0.13770  0.28580  Biso   1.000  O
  O21      1.0000 0.03930  0.31920  0.36190  Biso   1.000  O
  O22      1.0000 0.07040  0.18640  0.35360  Biso   1.000  O
  C67      1.0000 0.92530  0.29580  0.27410  Biso   1.000  C
  Ca6      1.0000 0.04060  0.20880  0.43080  Biso   1.000  Ca
  C68      1.0000 0.95180  0.16510  0.39600  Biso   1.000  C
  C69      1.0000 0.87490  0.31440  0.26410  Biso   1.000  C
  O23      1.0000 0.96990  0.13490  0.42720  Biso   1.000  O
  O24      1.0000 0.08910  0.12200  0.40800  Biso   1.000  O
  O25      1.0000 0.08750  0.30480  0.41860  Biso   1.000  O
  O26      1.0000 0.09420  0.22420  0.49480  Biso   1.000  O
  O27      1.0000 0.04320  0.14600  0.50160  Biso   1.000  O
  C70      1.0000 0.90490  0.14450  0.37750  Biso   1.000  C
  C71      1.0000 0.84890  0.28680  0.23080  Biso   1.000  C
  C72      1.0000 0.85360  0.36190  0.28900  Biso   1.000  C
  Ca7      1.0000 0.97100  0.08440  0.49670  Biso   1.000  Ca
  C73      1.0000 0.87870  0.18680  0.35140  Biso   1.000  C
  C74      1.0000 0.88770  0.08330  0.38500  Biso   1.000  C
  C75      1.0000 0.00420  0.00400  0.28840  Biso   1.000  C
  H38      1.0000 0.86290  0.25540  0.21370  Biso   1.000  H
  C76      1.0000 0.80300  0.30420  0.22200  Biso   1.000  C
  C77      1.0000 0.80740  0.38060  0.27960  Biso   1.000  C
  H39      1.0000 0.87030  0.38110  0.31180  Biso   1.000  H
  O28      1.0000 0.00770  0.00380  0.45410  Biso   1.000  O
  N2       1.0000 0.95720  0.06970  0.58050  Biso   1.000  N
  H40      1.0000 0.88980  0.22820  0.34670  Biso   1.000  H
  C78      1.0000 0.83610  0.16740  0.33250  Biso   1.000  C
  H41      1.0000 0.90440  0.05520  0.40300  Biso   1.000  H
  C79      1.0000 0.84530  0.06390  0.36540  Biso   1.000  C
  C80      1.0000 0.00430  0.93900  0.28830  Biso   1.000  C
  H42      1.0000 0.00700  0.02580  0.31470  Biso   1.000  H
  H43      1.0000 0.78590  0.28260  0.20040  Biso   1.000  H
  C81      1.0000 0.78090  0.35440  0.24530  Biso   1.000  C
  H44      1.0000 0.79360  0.41180  0.29690  Biso   1.000  H
  C82      1.0000 0.02130  0.99250  0.41510  Biso   1.000  C
  C83      1.0000 0.81930  0.10510  0.33830  Biso   1.000  C
  H45      1.0000 0.81860  0.19630  0.31570  Biso   1.000  H
  H46      1.0000 0.83400  0.02270  0.37050  Biso   1.000  H
  H47      1.0000 0.00730  0.91750  0.31470  Biso   1.000  H
  C84      1.0000 0.73310  0.37920  0.23410  Biso   1.000  C
  C85      1.0000 0.77620  0.08300  0.31460  Biso   1.000  C
  C86      1.0000 0.71040  0.42170  0.26080  Biso   1.000  C
  C87      1.0000 0.70960  0.36310  0.19430  Biso   1.000  C
  C88      1.0000 0.74480  0.03840  0.33250  Biso   1.000  C
  C89      1.0000 0.76710  0.10420  0.27200  Biso   1.000  C
  C90      1.0000 0.99050  0.79850  0.28730  Biso   1.000  C
  C91      1.0000 0.66660  0.44890  0.25020  Biso   1.000  C
  H48      1.0000 0.72490  0.43300  0.28710  Biso   1.000  H
  C92      1.0000 0.66620  0.38880  0.18250  Biso   1.000  C
  H49      1.0000 0.72390  0.33430  0.17550  Biso   1.000  H
  H50      1.0000 0.75020  0.02320  0.36060  Biso   1.000  H
  C93      1.0000 0.70550  0.01650  0.30860  Biso   1.000  C
  C94      1.0000 0.72830  0.08400  0.24800  Biso   1.000  C
  H51      1.0000 0.78810  0.13300  0.25940  Biso   1.000  H
  C95      1.0000 0.99090  0.73030  0.28840  Biso   1.000  C
  H52      1.0000 0.98350  0.82090  0.31260  Biso   1.000  H
  C96      1.0000 0.64520  0.43250  0.21050  Biso   1.000  C
  C97      1.0000 0.64520  0.49720  0.27960  Biso   1.000  C
  C98      1.0000 0.64350  0.37230  0.13950  Biso   1.000  C
  C99      1.0000 0.69800  0.03950  0.26710  Biso   1.000  C
  C100     1.0000 0.67200  0.97010  0.32830  Biso   1.000  C
  C101     1.0000 0.72140  0.10690  0.20240  Biso   1.000  C
  C102     1.0000 0.98160  0.69650  0.33030  Biso   1.000  C
  H53      1.0000 0.61640  0.45110  0.20260  Biso   1.000  H
  C103     1.0000 0.62490  0.55270  0.26430  Biso   1.000  C
  C104     1.0000 0.64720  0.48720  0.32420  Biso   1.000  C
  C105     1.0000 0.60050  0.39740  0.12660  Biso   1.000  C
  C106     1.0000 0.66530  0.33140  0.11030  Biso   1.000  C
  H54      1.0000 0.67190  0.02490  0.25120  Biso   1.000  H
  C107     1.0000 0.68850  0.92420  0.35920  Biso   1.000  C
  C108     1.0000 0.62470  0.96720  0.31550  Biso   1.000  C
  C109     1.0000 0.67610  0.11310  0.18320  Biso   1.000  C
  C110     1.0000 0.75970  0.12420  0.17780  Biso   1.000  C
  C111     1.0000 0.99660  0.63790  0.33680  Biso   1.000  C
  C112     1.0000 0.96060  0.72310  0.36330  Biso   1.000  C
  H55      1.0000 0.62290  0.55980  0.23440  Biso   1.000  H
  C113     1.0000 0.60730  0.59840  0.29250  Biso   1.000  C
  H56      1.0000 0.66100  0.44990  0.33520  Biso   1.000  H
  C114     1.0000 0.62890  0.53210  0.35270  Biso   1.000  C
  C115     1.0000 0.57940  0.38320  0.08640  Biso   1.000  C
  H57      1.0000 0.58500  0.42490  0.14540  Biso   1.000  H
  H58      1.0000 0.69470  0.31400  0.11750  Biso   1.000  H
  C116     1.0000 0.64390  0.31600  0.07070  Biso   1.000  C
  H59      1.0000 0.72030  0.92370  0.36760  Biso   1.000  H
  C117     1.0000 0.65770  0.88040  0.37660  Biso   1.000  C
  C118     1.0000 0.59450  0.92230  0.33310  Biso   1.000  C
  H60      1.0000 0.61310  0.99590  0.29470  Biso   1.000  H
  C119     1.0000 0.67020  0.13310  0.14120  Biso   1.000  C
  H61      1.0000 0.64960  0.10340  0.19960  Biso   1.000  H
  H62      1.0000 0.79000  0.12160  0.18990  Biso   1.000  H
  C120     1.0000 0.75370  0.14530  0.13490  Biso   1.000  C
  C121     1.0000 0.98870  0.60600  0.37820  Biso   1.000  C
  H63      1.0000 0.01260  0.61660  0.31490  Biso   1.000  H
  C122     1.0000 0.95480  0.69430  0.40310  Biso   1.000  C
  H64      1.0000 0.94870  0.76440  0.35960  Biso   1.000  H
  H65      1.0000 0.59440  0.63630  0.28160  Biso   1.000  H
  C123     1.0000 0.60880  0.58780  0.33690  Biso   1.000  C
  H66      1.0000 0.63020  0.52450  0.38250  Biso   1.000  H
  H67      1.0000 0.55090  0.40230  0.07830  Biso   1.000  H
  C124     1.0000 0.60110  0.34060  0.05870  Biso   1.000  C
  H68      1.0000 0.65920  0.28830  0.05180  Biso   1.000  H
  H69      1.0000 0.66880  0.85150  0.39750  Biso   1.000  H
  C125     1.0000 0.61070  0.87850  0.36370  Biso   1.000  C
  H70      1.0000 0.56280  0.92170  0.32430  Biso   1.000  H
  C126     1.0000 0.70840  0.14840  0.11600  Biso   1.000  C
  H71      1.0000 0.63980  0.13640  0.12930  Biso   1.000  H
  H72      1.0000 0.77980  0.15740  0.11890  Biso   1.000  H
  C127     1.0000 0.96770  0.63450  0.41030  Biso   1.000  C
  H73      1.0000 0.99890  0.56390  0.38180  Biso   1.000  H
  H74      1.0000 0.94130  0.71760  0.42550  Biso   1.000  H
  C128     1.0000 0.58850  0.63470  0.36810  Biso   1.000  C
  C129     1.0000 0.57820  0.32320  0.01560  Biso   1.000  C
  C130     1.0000 0.57670  0.83060  0.38210  Biso   1.000  C
  C131     1.0000 0.70180  0.16770  0.06910  Biso   1.000  C
  C132     1.0000 0.95980  0.60330  0.45360  Biso   1.000  C
  O29      1.0000 0.66230  0.15760  0.05210  Biso   1.000  O
  O30      1.0000 0.73560  0.19230  0.05010  Biso   1.000  O
  O31      1.0000 0.94800  0.63650  0.48540  Biso   1.000  O
  O32      1.0000 0.96660  0.54480  0.45660  Biso   1.000  O
  Ca8      1.0000 0.62390  0.17150  0.98630  Biso   1.000  Ca
  Ca9      1.0000 0.49020  0.73800  0.18720  Biso   1.000  Ca
  O33      1.0000 0.55570  0.81400  0.19090  Biso   1.000  O
  O34      1.0000 0.55440  0.76120  0.25250  Biso   1.000  O
  O35      1.0000 0.52860  0.71350  0.11980  Biso   1.000  O
  O36      1.0000 0.50620  0.63770  0.21420  Biso   1.000  O
  O37      1.0000 0.46070  0.81920  0.13810  Biso   1.000  O
  O38      1.0000 0.42960  0.68640  0.14640  Biso   1.000  O
  C133     1.0000 0.57470  0.79580  0.22590  Biso   1.000  C
  Ca10     1.0000 0.45940  0.70880  0.06920  Biso   1.000  Ca
  C134     1.0000 0.54820  0.66510  0.10400  Biso   1.000  C
  C135     1.0000 0.62510  0.81440  0.23590  Biso   1.000  C
  O39      1.0000 0.53010  0.63490  0.07280  Biso   1.000  O
  O40      1.0000 0.41090  0.62200  0.09200  Biso   1.000  O
  O41      1.0000 0.41250  0.80480  0.08140  Biso   1.000  O
  O42      1.0000 0.40580  0.72420  0.00520  Biso   1.000  O
  O43      1.0000 0.45680  0.64600  0.99840  Biso   1.000  O
  C136     1.0000 0.59510  0.64450  0.12250  Biso   1.000  C
  C137     1.0000 0.65110  0.78680  0.26920  Biso   1.000  C
  C138     1.0000 0.64640  0.86190  0.21100  Biso   1.000  C
  Ca11     1.0000 0.52900  0.58440  0.00330  Biso   1.000  Ca
  C139     1.0000 0.62130  0.68680  0.14860  Biso   1.000  C
  C140     1.0000 0.61230  0.58330  0.11500  Biso   1.000  C
  C141     1.0000 0.49580  0.50400  0.21160  Biso   1.000  C
  H75      1.0000 0.63710  0.75540  0.28630  Biso   1.000  H
  C142     1.0000 0.69700  0.80420  0.27800  Biso   1.000  C
  C143     1.0000 0.69260  0.88060  0.22040  Biso   1.000  C
  H76      1.0000 0.62970  0.88110  0.18820  Biso   1.000  H
  O44      1.0000 0.49230  0.50380  0.04590  Biso   1.000  O
  N3       1.0000 0.54280  0.56970  0.91950  Biso   1.000  N
  H77      1.0000 0.61020  0.72820  0.15330  Biso   1.000  H
  C144     1.0000 0.66390  0.66740  0.16750  Biso   1.000  C
  H78      1.0000 0.59560  0.55520  0.09700  Biso   1.000  H
  C145     1.0000 0.65470  0.56390  0.13460  Biso   1.000  C
  C146     1.0000 0.49570  0.43900  0.21170  Biso   1.000  C
  H79      1.0000 0.49300  0.52580  0.18530  Biso   1.000  H
  H80      1.0000 0.71410  0.78260  0.29960  Biso   1.000  H
  C147     1.0000 0.71910  0.85440  0.25470  Biso   1.000  C
  H81      1.0000 0.70640  0.91180  0.20310  Biso   1.000  H
  C148     1.0000 0.47870  0.49250  0.08490  Biso   1.000  C
  C149     1.0000 0.68070  0.60510  0.16170  Biso   1.000  C
  H82      1.0000 0.68140  0.69630  0.18430  Biso   1.000  H
  H83      1.0000 0.66600  0.52270  0.12950  Biso   1.000  H
  H84      1.0000 0.49270  0.41750  0.18530  Biso   1.000  H
  C150     1.0000 0.76690  0.87920  0.26590  Biso   1.000  C
  C151     1.0000 0.72380  0.58300  0.18540  Biso   1.000  C
  C152     1.0000 0.78960  0.92170  0.23920  Biso   1.000  C
  C153     1.0000 0.79040  0.86310  0.30570  Biso   1.000  C
  C154     1.0000 0.75520  0.53840  0.16750  Biso   1.000  C
  C155     1.0000 0.73290  0.60420  0.22800  Biso   1.000  C
  C156     1.0000 0.50950  0.29850  0.21270  Biso   1.000  C
  C157     1.0000 0.83340  0.94890  0.24980  Biso   1.000  C
  H85      1.0000 0.77510  0.93300  0.21290  Biso   1.000  H
  C158     1.0000 0.83380  0.88880  0.31750  Biso   1.000  C
  H86      1.0000 0.77610  0.83430  0.32450  Biso   1.000  H
  H87      1.0000 0.74980  0.52320  0.13940  Biso   1.000  H
  C159     1.0000 0.79450  0.51650  0.19140  Biso   1.000  C
  C160     1.0000 0.77170  0.58400  0.25200  Biso   1.000  C
  H88      1.0000 0.71190  0.63300  0.24060  Biso   1.000  H
  C161     1.0000 0.50910  0.23030  0.21160  Biso   1.000  C
  H89      1.0000 0.51650  0.32090  0.18740  Biso   1.000  H
  C162     1.0000 0.85480  0.93250  0.28950  Biso   1.000  C
  C163     1.0000 0.85480  0.99720  0.22040  Biso   1.000  C
  C164     1.0000 0.85650  0.87230  0.36050  Biso   1.000  C
  C165     1.0000 0.80200  0.53950  0.23290  Biso   1.000  C
  C166     1.0000 0.82800  0.47010  0.17170  Biso   1.000  C
  C167     1.0000 0.77860  0.60690  0.29760  Biso   1.000  C
  C168     1.0000 0.51840  0.19650  0.16970  Biso   1.000  C
  H90      1.0000 0.88360  0.95110  0.29740  Biso   1.000  H
  C169     1.0000 0.87510  0.05270  0.23570  Biso   1.000  C
  C170     1.0000 0.85280  0.98720  0.17580  Biso   1.000  C
  C171     1.0000 0.89950  0.89740  0.37340  Biso   1.000  C
  C172     1.0000 0.83470  0.83140  0.38970  Biso   1.000  C
  H91      1.0000 0.82810  0.52490  0.24880  Biso   1.000  H
  C173     1.0000 0.81150  0.42420  0.14080  Biso   1.000  C
  C174     1.0000 0.87530  0.46720  0.18450  Biso   1.000  C
  C175     1.0000 0.82390  0.61310  0.31680  Biso   1.000  C
  C176     1.0000 0.74030  0.62420  0.32220  Biso   1.000  C
  C177     1.0000 0.50340  0.13790  0.16320  Biso   1.000  C
  C178     1.0000 0.53940  0.22310  0.13670  Biso   1.000  C
  H92      1.0000 0.87710  0.05980  0.26560  Biso   1.000  H
  C179     1.0000 0.89270  0.09840  0.20750  Biso   1.000  C
  H93      1.0000 0.83900  0.94990  0.16480  Biso   1.000  H
  C180     1.0000 0.87110  0.03210  0.14730  Biso   1.000  C
  C181     1.0000 0.92060  0.88320  0.41360  Biso   1.000  C
  H94      1.0000 0.91500  0.92490  0.35460  Biso   1.000  H
  H95      1.0000 0.80530  0.81400  0.38250  Biso   1.000  H
  C182     1.0000 0.85610  0.81600  0.42930  Biso   1.000  C
  H96      1.0000 0.77970  0.42370  0.13240  Biso   1.000  H
  C183     1.0000 0.84230  0.38040  0.12340  Biso   1.000  C
  C184     1.0000 0.90550  0.42230  0.16690  Biso   1.000  C
  H97      1.0000 0.88690  0.49590  0.20530  Biso   1.000  H
  C185     1.0000 0.82980  0.63310  0.35880  Biso   1.000  C
  H98      1.0000 0.85040  0.60340  0.30040  Biso   1.000  H
  H99      1.0000 0.71000  0.62160  0.31010  Biso   1.000  H
  C186     1.0000 0.74630  0.64530  0.36510  Biso   1.000  C
  C187     1.0000 0.51130  0.10600  0.12180  Biso   1.000  C
  H100     1.0000 0.48740  0.11660  0.18510  Biso   1.000  H
  C188     1.0000 0.54520  0.19430  0.09690  Biso   1.000  C
  H101     1.0000 0.55130  0.26440  0.14040  Biso   1.000  H
  H102     1.0000 0.90560  0.13630  0.21840  Biso   1.000  H
  C189     1.0000 0.89120  0.08780  0.16310  Biso   1.000  C
  H103     1.0000 0.86980  0.02450  0.11750  Biso   1.000  H
  H104     1.0000 0.94910  0.90230  0.42170  Biso   1.000  H
  C190     1.0000 0.89890  0.84060  0.44130  Biso   1.000  C
  H105     1.0000 0.84080  0.78830  0.44820  Biso   1.000  H
  H106     1.0000 0.83120  0.35150  0.10250  Biso   1.000  H
  C191     1.0000 0.88930  0.37850  0.13630  Biso   1.000  C
  H107     1.0000 0.93720  0.42170  0.17570  Biso   1.000  H
  C192     1.0000 0.79160  0.64840  0.38400  Biso   1.000  C
  H108     1.0000 0.86020  0.63640  0.37070  Biso   1.000  H
  H109     1.0000 0.72020  0.65740  0.38110  Biso   1.000  H
  C193     1.0000 0.53230  0.13450  0.08970  Biso   1.000  C
  H110     1.0000 0.50110  0.06390  0.11820  Biso   1.000  H
  H111     1.0000 0.55870  0.21760  0.07450  Biso   1.000  H
  C194     1.0000 0.91150  0.13470  0.13190  Biso   1.000  C
  C195     1.0000 0.92180  0.82320  0.48440  Biso   1.000  C
  C196     1.0000 0.92330  0.33060  0.11790  Biso   1.000  C
  C197     1.0000 0.79820  0.66770  0.43090  Biso   1.000  C
  C198     1.0000 0.54020  0.10330  0.04640  Biso   1.000  C
  O45      1.0000 0.83770  0.65760  0.44790  Biso   1.000  O
  O46      1.0000 0.76440  0.69230  0.44990  Biso   1.000  O
  O47      1.0000 0.55200  0.13650  0.01460  Biso   1.000  O
  O48      1.0000 0.53340  0.04480  0.04340  Biso   1.000  O
  Ca12     1.0000 0.87610  0.67150  0.51370  Biso   1.000  Ca
  Ca13     1.0000 0.99020  0.23800  0.18720  Biso   1.000  Ca
  O49      1.0000 0.05570  0.31400  0.19090  Biso   1.000  O
  O50      1.0000 0.05440  0.26120  0.25250  Biso   1.000  O
  O51      1.0000 0.02860  0.21350  0.11980  Biso   1.000  O
  O52      1.0000 0.00620  0.13770  0.21420  Biso   1.000  O
  O53      1.0000 0.96070  0.31920  0.13810  Biso   1.000  O
  O54      1.0000 0.92960  0.18640  0.14640  Biso   1.000  O
  C199     1.0000 0.07470  0.29580  0.22590  Biso   1.000  C
  Ca14     1.0000 0.95940  0.20880  0.06920  Biso   1.000  Ca
  C200     1.0000 0.04820  0.16510  0.10400  Biso   1.000  C
  C201     1.0000 0.12510  0.31440  0.23590  Biso   1.000  C
  O55      1.0000 0.03010  0.13490  0.07280  Biso   1.000  O
  O56      1.0000 0.91090  0.12200  0.09200  Biso   1.000  O
  O57      1.0000 0.91250  0.30480  0.08140  Biso   1.000  O
  O58      1.0000 0.90580  0.22420  0.00520  Biso   1.000  O
  O59      1.0000 0.95680  0.14600  0.99840  Biso   1.000  O
  C202     1.0000 0.09510  0.14450  0.12250  Biso   1.000  C
  C203     1.0000 0.15110  0.28680  0.26920  Biso   1.000  C
  C204     1.0000 0.14640  0.36190  0.21100  Biso   1.000  C
  Ca15     1.0000 0.02900  0.08440  0.00330  Biso   1.000  Ca
  C205     1.0000 0.12130  0.18680  0.14860  Biso   1.000  C
  C206     1.0000 0.11230  0.08330  0.11500  Biso   1.000  C
  C207     1.0000 0.99580  0.00400  0.21160  Biso   1.000  C
  H112     1.0000 0.13710  0.25540  0.28630  Biso   1.000  H
  C208     1.0000 0.19700  0.30420  0.27800  Biso   1.000  C
  C209     1.0000 0.19260  0.38060  0.22040  Biso   1.000  C
  H113     1.0000 0.12970  0.38110  0.18820  Biso   1.000  H
  O60      1.0000 0.99230  0.00380  0.04590  Biso   1.000  O
  N4       1.0000 0.04280  0.06970  0.91950  Biso   1.000  N
  H114     1.0000 0.11020  0.22820  0.15330  Biso   1.000  H
  C210     1.0000 0.16390  0.16740  0.16750  Biso   1.000  C
  H115     1.0000 0.09560  0.05520  0.09700  Biso   1.000  H
  C211     1.0000 0.15470  0.06390  0.13460  Biso   1.000  C
  C212     1.0000 0.99570  0.93900  0.21170  Biso   1.000  C
  H116     1.0000 0.99300  0.02580  0.18530  Biso   1.000  H
  H117     1.0000 0.21410  0.28260  0.29960  Biso   1.000  H
  C213     1.0000 0.21910  0.35440  0.25470  Biso   1.000  C
  H118     1.0000 0.20640  0.41180  0.20310  Biso   1.000  H
  C214     1.0000 0.97870  0.99250  0.08490  Biso   1.000  C
  C215     1.0000 0.18070  0.10510  0.16170  Biso   1.000  C
  H119     1.0000 0.18140  0.19630  0.18430  Biso   1.000  H
  H120     1.0000 0.16600  0.02270  0.12950  Biso   1.000  H
  H121     1.0000 0.99270  0.91750  0.18530  Biso   1.000  H
  C216     1.0000 0.26690  0.37920  0.26590  Biso   1.000  C
  C217     1.0000 0.22380  0.08300  0.18540  Biso   1.000  C
  C218     1.0000 0.28960  0.42170  0.23920  Biso   1.000  C
  C219     1.0000 0.29040  0.36310  0.30570  Biso   1.000  C
  C220     1.0000 0.25520  0.03840  0.16750  Biso   1.000  C
  C221     1.0000 0.23290  0.10420  0.22800  Biso   1.000  C
  C222     1.0000 0.00950  0.79850  0.21270  Biso   1.000  C
  C223     1.0000 0.33340  0.44890  0.24980  Biso   1.000  C
  H122     1.0000 0.27510  0.43300  0.21290  Biso   1.000  H
  C224     1.0000 0.33380  0.38880  0.31750  Biso   1.000  C
  H123     1.0000 0.27610  0.33430  0.32450  Biso   1.000  H
  H124     1.0000 0.24980  0.02320  0.13940  Biso   1.000  H
  C225     1.0000 0.29450  0.01650  0.19140  Biso   1.000  C
  C226     1.0000 0.27170  0.08400  0.25200  Biso   1.000  C
  H125     1.0000 0.21190  0.13300  0.24060  Biso   1.000  H
  C227     1.0000 0.00910  0.73030  0.21160  Biso   1.000  C
  H126     1.0000 0.01650  0.82090  0.18740  Biso   1.000  H
  C228     1.0000 0.35480  0.43250  0.28950  Biso   1.000  C
  C229     1.0000 0.35480  0.49720  0.22040  Biso   1.000  C
  C230     1.0000 0.35650  0.37230  0.36050  Biso   1.000  C
  C231     1.0000 0.30200  0.03950  0.23290  Biso   1.000  C
  C232     1.0000 0.32800  0.97010  0.17170  Biso   1.000  C
  C233     1.0000 0.27860  0.10690  0.29760  Biso   1.000  C
  C234     1.0000 0.01840  0.69650  0.16970  Biso   1.000  C
  H127     1.0000 0.38360  0.45110  0.29740  Biso   1.000  H
  C235     1.0000 0.37510  0.55270  0.23570  Biso   1.000  C
  C236     1.0000 0.35280  0.48720  0.17580  Biso   1.000  C
  C237     1.0000 0.39950  0.39740  0.37340  Biso   1.000  C
  C238     1.0000 0.33470  0.33140  0.38970  Biso   1.000  C
  H128     1.0000 0.32810  0.02490  0.24880  Biso   1.000  H
  C239     1.0000 0.31150  0.92420  0.14080  Biso   1.000  C
  C240     1.0000 0.37530  0.96720  0.18450  Biso   1.000  C
  C241     1.0000 0.32390  0.11310  0.31680  Biso   1.000  C
  C242     1.0000 0.24030  0.12420  0.32220  Biso   1.000  C
  C243     1.0000 0.00340  0.63790  0.16320  Biso   1.000  C
  C244     1.0000 0.03940  0.72310  0.13670  Biso   1.000  C
  H129     1.0000 0.37710  0.55980  0.26560  Biso   1.000  H
  C245     1.0000 0.39270  0.59840  0.20750  Biso   1.000  C
  H130     1.0000 0.33900  0.44990  0.16480  Biso   1.000  H
  C246     1.0000 0.37110  0.53210  0.14730  Biso   1.000  C
  C247     1.0000 0.42060  0.38320  0.41360  Biso   1.000  C
  H131     1.0000 0.41500  0.42490  0.35460  Biso   1.000  H
  H132     1.0000 0.30530  0.31400  0.38250  Biso   1.000  H
  C248     1.0000 0.35610  0.31600  0.42930  Biso   1.000  C
  H133     1.0000 0.27970  0.92370  0.13240  Biso   1.000  H
  C249     1.0000 0.34230  0.88040  0.12340  Biso   1.000  C
  C250     1.0000 0.40550  0.92230  0.16690  Biso   1.000  C
  H134     1.0000 0.38690  0.99590  0.20530  Biso   1.000  H
  C251     1.0000 0.32980  0.13310  0.35880  Biso   1.000  C
  H135     1.0000 0.35040  0.10340  0.30040  Biso   1.000  H
  H136     1.0000 0.21000  0.12160  0.31010  Biso   1.000  H
  C252     1.0000 0.24630  0.14530  0.36510  Biso   1.000  C
  C253     1.0000 0.01130  0.60600  0.12180  Biso   1.000  C
  H137     1.0000 0.98740  0.61660  0.18510  Biso   1.000  H
  C254     1.0000 0.04520  0.69430  0.09690  Biso   1.000  C
  H138     1.0000 0.05130  0.76440  0.14040  Biso   1.000  H
  H139     1.0000 0.40560  0.63630  0.21840  Biso   1.000  H
  C255     1.0000 0.39120  0.58780  0.16310  Biso   1.000  C
  H140     1.0000 0.36980  0.52450  0.11750  Biso   1.000  H
  H141     1.0000 0.44910  0.40230  0.42170  Biso   1.000  H
  C256     1.0000 0.39890  0.34060  0.44130  Biso   1.000  C
  H142     1.0000 0.34080  0.28830  0.44820  Biso   1.000  H
  H143     1.0000 0.33120  0.85150  0.10250  Biso   1.000  H
  C257     1.0000 0.38930  0.87850  0.13630  Biso   1.000  C
  H144     1.0000 0.43720  0.92170  0.17570  Biso   1.000  H
  C258     1.0000 0.29160  0.14840  0.38400  Biso   1.000  C
  H145     1.0000 0.36020  0.13640  0.37070  Biso   1.000  H
  H146     1.0000 0.22020  0.15740  0.38110  Biso   1.000  H
  C259     1.0000 0.03230  0.63450  0.08970  Biso   1.000  C
  H147     1.0000 0.00110  0.56390  0.11820  Biso   1.000  H
  H148     1.0000 0.05870  0.71760  0.07450  Biso   1.000  H
  C260     1.0000 0.41150  0.63470  0.13190  Biso   1.000  C
  C261     1.0000 0.42180  0.32320  0.48440  Biso   1.000  C
  C262     1.0000 0.42330  0.83060  0.11790  Biso   1.000  C
  C263     1.0000 0.29820  0.16770  0.43090  Biso   1.000  C
  C264     1.0000 0.04020  0.60330  0.04640  Biso   1.000  C
  O61      1.0000 0.33770  0.15760  0.44790  Biso   1.000  O
  O62      1.0000 0.26440  0.19230  0.44990  Biso   1.000  O
  O63      1.0000 0.05200  0.63650  0.01460  Biso   1.000  O
  O64      1.0000 0.03340  0.54480  0.04340  Biso   1.000  O
  Ca16     1.0000 0.37610  0.17150  0.51370  Biso   1.000  Ca
  Ca17     1.0000 0.49020  0.26200  0.68720  Biso   1.000  Ca
  O65      1.0000 0.55570  0.18600  0.69090  Biso   1.000  O
  O66      1.0000 0.55440  0.23880  0.75250  Biso   1.000  O
  O67      1.0000 0.52860  0.28650  0.61980  Biso   1.000  O
  O68      1.0000 0.50620  0.36230  0.71420  Biso   1.000  O
  O69      1.0000 0.46070  0.18080  0.63810  Biso   1.000  O
  O70      1.0000 0.42960  0.31360  0.64640  Biso   1.000  O
  C265     1.0000 0.57470  0.20420  0.72590  Biso   1.000  C
  Ca18     1.0000 0.45940  0.29120  0.56920  Biso   1.000  Ca
  C266     1.0000 0.54820  0.33490  0.60400  Biso   1.000  C
  C267     1.0000 0.62510  0.18560  0.73590  Biso   1.000  C
  O71      1.0000 0.53010  0.36510  0.57280  Biso   1.000  O
  O72      1.0000 0.41090  0.37800  0.59200  Biso   1.000  O
  O73      1.0000 0.41250  0.19520  0.58140  Biso   1.000  O
  O74      1.0000 0.40580  0.27580  0.50520  Biso   1.000  O
  O75      1.0000 0.45680  0.35400  0.49840  Biso   1.000  O
  C268     1.0000 0.59510  0.35550  0.62250  Biso   1.000  C
  C269     1.0000 0.65110  0.21320  0.76920  Biso   1.000  C
  C270     1.0000 0.64640  0.13810  0.71100  Biso   1.000  C
  Ca19     1.0000 0.52900  0.41560  0.50330  Biso   1.000  Ca
  C271     1.0000 0.62130  0.31320  0.64860  Biso   1.000  C
  C272     1.0000 0.61230  0.41670  0.61500  Biso   1.000  C
  C273     1.0000 0.49580  0.49600  0.71160  Biso   1.000  C
  H149     1.0000 0.63710  0.24460  0.78630  Biso   1.000  H
  C274     1.0000 0.69700  0.19580  0.77800  Biso   1.000  C
  C275     1.0000 0.69260  0.11940  0.72040  Biso   1.000  C
  H150     1.0000 0.62970  0.11890  0.68820  Biso   1.000  H
  O76      1.0000 0.49230  0.49620  0.54590  Biso   1.000  O
  N5       1.0000 0.54280  0.43030  0.41950  Biso   1.000  N
  H151     1.0000 0.61020  0.27180  0.65330  Biso   1.000  H
  C276     1.0000 0.66390  0.33260  0.66750  Biso   1.000  C
  H152     1.0000 0.59560  0.44480  0.59700  Biso   1.000  H
  C277     1.0000 0.65470  0.43610  0.63460  Biso   1.000  C
  C278     1.0000 0.49570  0.56100  0.71170  Biso   1.000  C
  H153     1.0000 0.49300  0.47420  0.68530  Biso   1.000  H
  H154     1.0000 0.71410  0.21740  0.79960  Biso   1.000  H
  C279     1.0000 0.71910  0.14560  0.75470  Biso   1.000  C
  H155     1.0000 0.70640  0.08820  0.70310  Biso   1.000  H
  C280     1.0000 0.47870  0.50750  0.58490  Biso   1.000  C
  C281     1.0000 0.68070  0.39490  0.66170  Biso   1.000  C
  H156     1.0000 0.68140  0.30370  0.68430  Biso   1.000  H
  H157     1.0000 0.66600  0.47730  0.62950  Biso   1.000  H
  H158     1.0000 0.49270  0.58250  0.68530  Biso   1.000  H
  C282     1.0000 0.76690  0.12080  0.76590  Biso   1.000  C
  C283     1.0000 0.72380  0.41700  0.68540  Biso   1.000  C
  C284     1.0000 0.78960  0.07830  0.73920  Biso   1.000  C
  C285     1.0000 0.79040  0.13690  0.80570  Biso   1.000  C
  C286     1.0000 0.75520  0.46160  0.66750  Biso   1.000  C
  C287     1.0000 0.73290  0.39580  0.72800  Biso   1.000  C
  C288     1.0000 0.50950  0.70150  0.71270  Biso   1.000  C
  C289     1.0000 0.83340  0.05110  0.74980  Biso   1.000  C
  H159     1.0000 0.77510  0.06700  0.71290  Biso   1.000  H
  C290     1.0000 0.83380  0.11120  0.81750  Biso   1.000  C
  H160     1.0000 0.77610  0.16570  0.82450  Biso   1.000  H
  H161     1.0000 0.74980  0.47680  0.63940  Biso   1.000  H
  C291     1.0000 0.79450  0.48350  0.69140  Biso   1.000  C
  C292     1.0000 0.77170  0.41600  0.75200  Biso   1.000  C
  H162     1.0000 0.71190  0.36700  0.74060  Biso   1.000  H
  C293     1.0000 0.50910  0.76970  0.71160  Biso   1.000  C
  H163     1.0000 0.51650  0.67910  0.68740  Biso   1.000  H
  C294     1.0000 0.85480  0.06750  0.78950  Biso   1.000  C
  C295     1.0000 0.85480  0.00280  0.72040  Biso   1.000  C
  C296     1.0000 0.85650  0.12770  0.86050  Biso   1.000  C
  C297     1.0000 0.80200  0.46050  0.73290  Biso   1.000  C
  C298     1.0000 0.82800  0.52990  0.67170  Biso   1.000  C
  C299     1.0000 0.77860  0.39310  0.79760  Biso   1.000  C
  C300     1.0000 0.51840  0.80350  0.66970  Biso   1.000  C
  H164     1.0000 0.88360  0.04890  0.79740  Biso   1.000  H
  C301     1.0000 0.87510  0.94730  0.73570  Biso   1.000  C
  C302     1.0000 0.85280  0.01280  0.67580  Biso   1.000  C
  C303     1.0000 0.89950  0.10260  0.87340  Biso   1.000  C
  C304     1.0000 0.83470  0.16860  0.88970  Biso   1.000  C
  H165     1.0000 0.82810  0.47510  0.74880  Biso   1.000  H
  C305     1.0000 0.81150  0.57580  0.64080  Biso   1.000  C
  C306     1.0000 0.87530  0.53280  0.68450  Biso   1.000  C
  C307     1.0000 0.82390  0.38690  0.81680  Biso   1.000  C
  C308     1.0000 0.74030  0.37580  0.82220  Biso   1.000  C
  C309     1.0000 0.50340  0.86210  0.66320  Biso   1.000  C
  C310     1.0000 0.53940  0.77690  0.63670  Biso   1.000  C
  H166     1.0000 0.87710  0.94020  0.76560  Biso   1.000  H
  C311     1.0000 0.89270  0.90160  0.70750  Biso   1.000  C
  H167     1.0000 0.83900  0.05010  0.66480  Biso   1.000  H
  C312     1.0000 0.87110  0.96790  0.64730  Biso   1.000  C
  C313     1.0000 0.92060  0.11680  0.91360  Biso   1.000  C
  H168     1.0000 0.91500  0.07510  0.85460  Biso   1.000  H
  H169     1.0000 0.80530  0.18600  0.88250  Biso   1.000  H
  C314     1.0000 0.85610  0.18400  0.92930  Biso   1.000  C
  H170     1.0000 0.77970  0.57630  0.63240  Biso   1.000  H
  C315     1.0000 0.84230  0.61960  0.62340  Biso   1.000  C
  C316     1.0000 0.90550  0.57770  0.66690  Biso   1.000  C
  H171     1.0000 0.88690  0.50410  0.70530  Biso   1.000  H
  C317     1.0000 0.82980  0.36690  0.85880  Biso   1.000  C
  H172     1.0000 0.85040  0.39660  0.80040  Biso   1.000  H
  H173     1.0000 0.71000  0.37840  0.81010  Biso   1.000  H
  C318     1.0000 0.74630  0.35470  0.86510  Biso   1.000  C
  C319     1.0000 0.51130  0.89400  0.62180  Biso   1.000  C
  H174     1.0000 0.48740  0.88340  0.68510  Biso   1.000  H
  C320     1.0000 0.54520  0.80570  0.59690  Biso   1.000  C
  H175     1.0000 0.55130  0.73560  0.64040  Biso   1.000  H
  H176     1.0000 0.90560  0.86370  0.71840  Biso   1.000  H
  C321     1.0000 0.89120  0.91220  0.66310  Biso   1.000  C
  H177     1.0000 0.86980  0.97550  0.61750  Biso   1.000  H
  H178     1.0000 0.94910  0.09770  0.92170  Biso   1.000  H
  C322     1.0000 0.89890  0.15940  0.94130  Biso   1.000  C
  H179     1.0000 0.84080  0.21170  0.94820  Biso   1.000  H
  H180     1.0000 0.83120  0.64850  0.60250  Biso   1.000  H
  C323     1.0000 0.88930  0.62150  0.63630  Biso   1.000  C
  H181     1.0000 0.93720  0.57830  0.67570  Biso   1.000  H
  C324     1.0000 0.79160  0.35160  0.88400  Biso   1.000  C
  H182     1.0000 0.86020  0.36360  0.87070  Biso   1.000  H
  H183     1.0000 0.72020  0.34260  0.88110  Biso   1.000  H
  C325     1.0000 0.53230  0.86550  0.58970  Biso   1.000  C
  H184     1.0000 0.50110  0.93610  0.61820  Biso   1.000  H
  H185     1.0000 0.55870  0.78240  0.57450  Biso   1.000  H
  C326     1.0000 0.91150  0.86530  0.63190  Biso   1.000  C
  C327     1.0000 0.92180  0.17680  0.98440  Biso   1.000  C
  C328     1.0000 0.92330  0.66940  0.61790  Biso   1.000  C
  C329     1.0000 0.79820  0.33230  0.93090  Biso   1.000  C
  C330     1.0000 0.54020  0.89670  0.54640  Biso   1.000  C
  O77      1.0000 0.83770  0.34240  0.94790  Biso   1.000  O
  O78      1.0000 0.76440  0.30770  0.94990  Biso   1.000  O
  O79      1.0000 0.55200  0.86350  0.51460  Biso   1.000  O
  O80      1.0000 0.53340  0.95520  0.54340  Biso   1.000  O
  Ca20     1.0000 0.87610  0.32850  0.01370  Biso   1.000  Ca
  Ca21     1.0000 0.99020  0.76200  0.68720  Biso   1.000  Ca
  O81      1.0000 0.05570  0.68600  0.69090  Biso   1.000  O
  O82      1.0000 0.05440  0.73880  0.75250  Biso   1.000  O
  O83      1.0000 0.02860  0.78650  0.61980  Biso   1.000  O
  O84      1.0000 0.00620  0.86230  0.71420  Biso   1.000  O
  O85      1.0000 0.96070  0.68080  0.63810  Biso   1.000  O
  O86      1.0000 0.92960  0.81360  0.64640  Biso   1.000  O
  C331     1.0000 0.07470  0.70420  0.72590  Biso   1.000  C
  Ca22     1.0000 0.95940  0.79120  0.56920  Biso   1.000  Ca
  C332     1.0000 0.04820  0.83490  0.60400  Biso   1.000  C
  C333     1.0000 0.12510  0.68560  0.73590  Biso   1.000  C
  O87      1.0000 0.03010  0.86510  0.57280  Biso   1.000  O
  O88      1.0000 0.91090  0.87800  0.59200  Biso   1.000  O
  O89      1.0000 0.91250  0.69520  0.58140  Biso   1.000  O
  O90      1.0000 0.90580  0.77580  0.50520  Biso   1.000  O
  O91      1.0000 0.95680  0.85400  0.49840  Biso   1.000  O
  C334     1.0000 0.09510  0.85550  0.62250  Biso   1.000  C
  C335     1.0000 0.15110  0.71320  0.76920  Biso   1.000  C
  C336     1.0000 0.14640  0.63810  0.71100  Biso   1.000  C
  Ca23     1.0000 0.02900  0.91560  0.50330  Biso   1.000  Ca
  C337     1.0000 0.12130  0.81320  0.64860  Biso   1.000  C
  C338     1.0000 0.11230  0.91670  0.61500  Biso   1.000  C
  C339     1.0000 0.99580  0.99600  0.71160  Biso   1.000  C
  H186     1.0000 0.13710  0.74460  0.78630  Biso   1.000  H
  C340     1.0000 0.19700  0.69580  0.77800  Biso   1.000  C
  C341     1.0000 0.19260  0.61940  0.72040  Biso   1.000  C
  H187     1.0000 0.12970  0.61890  0.68820  Biso   1.000  H
  O92      1.0000 0.99230  0.99620  0.54590  Biso   1.000  O
  N6       1.0000 0.04280  0.93030  0.41950  Biso   1.000  N
  H188     1.0000 0.11020  0.77180  0.65330  Biso   1.000  H
  C342     1.0000 0.16390  0.83260  0.66750  Biso   1.000  C
  H189     1.0000 0.09560  0.94480  0.59700  Biso   1.000  H
  C343     1.0000 0.15470  0.93610  0.63460  Biso   1.000  C
  C344     1.0000 0.99570  0.06100  0.71170  Biso   1.000  C
  H190     1.0000 0.99300  0.97420  0.68530  Biso   1.000  H
  H191     1.0000 0.21410  0.71740  0.79960  Biso   1.000  H
  C345     1.0000 0.21910  0.64560  0.75470  Biso   1.000  C
  H192     1.0000 0.20640  0.58820  0.70310  Biso   1.000  H
  C346     1.0000 0.97870  0.00750  0.58490  Biso   1.000  C
  C347     1.0000 0.18070  0.89490  0.66170  Biso   1.000  C
  H193     1.0000 0.18140  0.80370  0.68430  Biso   1.000  H
  H194     1.0000 0.16600  0.97730  0.62950  Biso   1.000  H
  H195     1.0000 0.99270  0.08250  0.68530  Biso   1.000  H
  C348     1.0000 0.26690  0.62080  0.76590  Biso   1.000  C
  C349     1.0000 0.22380  0.91700  0.68540  Biso   1.000  C
  C350     1.0000 0.28960  0.57830  0.73920  Biso   1.000  C
  C351     1.0000 0.29040  0.63690  0.80570  Biso   1.000  C
  C352     1.0000 0.25520  0.96160  0.66750  Biso   1.000  C
  C353     1.0000 0.23290  0.89580  0.72800  Biso   1.000  C
  C354     1.0000 0.00950  0.20150  0.71270  Biso   1.000  C
  C355     1.0000 0.33340  0.55110  0.74980  Biso   1.000  C
  H196     1.0000 0.27510  0.56700  0.71290  Biso   1.000  H
  C356     1.0000 0.33380  0.61120  0.81750  Biso   1.000  C
  H197     1.0000 0.27610  0.66570  0.82450  Biso   1.000  H
  H198     1.0000 0.24980  0.97680  0.63940  Biso   1.000  H
  C357     1.0000 0.29450  0.98350  0.69140  Biso   1.000  C
  C358     1.0000 0.27170  0.91600  0.75200  Biso   1.000  C
  H199     1.0000 0.21190  0.86700  0.74060  Biso   1.000  H
  C359     1.0000 0.00910  0.26970  0.71160  Biso   1.000  C
  H200     1.0000 0.01650  0.17910  0.68740  Biso   1.000  H
  C360     1.0000 0.35480  0.56750  0.78950  Biso   1.000  C
  C361     1.0000 0.35480  0.50280  0.72040  Biso   1.000  C
  C362     1.0000 0.35650  0.62770  0.86050  Biso   1.000  C
  C363     1.0000 0.30200  0.96050  0.73290  Biso   1.000  C
  C364     1.0000 0.32800  0.02990  0.67170  Biso   1.000  C
  C365     1.0000 0.27860  0.89310  0.79760  Biso   1.000  C
  C366     1.0000 0.01840  0.30350  0.66970  Biso   1.000  C
  H201     1.0000 0.38360  0.54890  0.79740  Biso   1.000  H
  C367     1.0000 0.37510  0.44730  0.73570  Biso   1.000  C
  C368     1.0000 0.35280  0.51280  0.67580  Biso   1.000  C
  C369     1.0000 0.39950  0.60260  0.87340  Biso   1.000  C
  C370     1.0000 0.33470  0.66860  0.88970  Biso   1.000  C
  H202     1.0000 0.32810  0.97510  0.74880  Biso   1.000  H
  C371     1.0000 0.31150  0.07580  0.64080  Biso   1.000  C
  C372     1.0000 0.37530  0.03280  0.68450  Biso   1.000  C
  C373     1.0000 0.32390  0.88690  0.81680  Biso   1.000  C
  C374     1.0000 0.24030  0.87580  0.82220  Biso   1.000  C
  C375     1.0000 0.00340  0.36210  0.66320  Biso   1.000  C
  C376     1.0000 0.03940  0.27690  0.63670  Biso   1.000  C
  H203     1.0000 0.37710  0.44020  0.76560  Biso   1.000  H
  C377     1.0000 0.39270  0.40160  0.70750  Biso   1.000  C
  H204     1.0000 0.33900  0.55010  0.66480  Biso   1.000  H
  C378     1.0000 0.37110  0.46790  0.64730  Biso   1.000  C
  C379     1.0000 0.42060  0.61680  0.91360  Biso   1.000  C
  H205     1.0000 0.41500  0.57510  0.85460  Biso   1.000  H
  H206     1.0000 0.30530  0.68600  0.88250  Biso   1.000  H
  C380     1.0000 0.35610  0.68400  0.92930  Biso   1.000  C
  H207     1.0000 0.27970  0.07630  0.63240  Biso   1.000  H
  C381     1.0000 0.34230  0.11960  0.62340  Biso   1.000  C
  C382     1.0000 0.40550  0.07770  0.66690  Biso   1.000  C
  H208     1.0000 0.38690  0.00410  0.70530  Biso   1.000  H
  C383     1.0000 0.32980  0.86690  0.85880  Biso   1.000  C
  H209     1.0000 0.35040  0.89660  0.80040  Biso   1.000  H
  H210     1.0000 0.21000  0.87840  0.81010  Biso   1.000  H
  C384     1.0000 0.24630  0.85470  0.86510  Biso   1.000  C
  C385     1.0000 0.01130  0.39400  0.62180  Biso   1.000  C
  H211     1.0000 0.98740  0.38340  0.68510  Biso   1.000  H
  C386     1.0000 0.04520  0.30570  0.59690  Biso   1.000  C
  H212     1.0000 0.05130  0.23560  0.64040  Biso   1.000  H
  H213     1.0000 0.40560  0.36370  0.71840  Biso   1.000  H
  C387     1.0000 0.39120  0.41220  0.66310  Biso   1.000  C
  H214     1.0000 0.36980  0.47550  0.61750  Biso   1.000  H
  H215     1.0000 0.44910  0.59770  0.92170  Biso   1.000  H
  C388     1.0000 0.39890  0.65940  0.94130  Biso   1.000  C
  H216     1.0000 0.34080  0.71170  0.94820  Biso   1.000  H
  H217     1.0000 0.33120  0.14850  0.60250  Biso   1.000  H
  C389     1.0000 0.38930  0.12150  0.63630  Biso   1.000  C
  H218     1.0000 0.43720  0.07830  0.67570  Biso   1.000  H
  C390     1.0000 0.29160  0.85160  0.88400  Biso   1.000  C
  H219     1.0000 0.36020  0.86360  0.87070  Biso   1.000  H
  H220     1.0000 0.22020  0.84260  0.88110  Biso   1.000  H
  C391     1.0000 0.03230  0.36550  0.58970  Biso   1.000  C
  H221     1.0000 0.00110  0.43610  0.61820  Biso   1.000  H
  H222     1.0000 0.05870  0.28240  0.57450  Biso   1.000  H
  C392     1.0000 0.41150  0.36530  0.63190  Biso   1.000  C
  C393     1.0000 0.42180  0.67680  0.98440  Biso   1.000  C
  C394     1.0000 0.42330  0.16940  0.61790  Biso   1.000  C
  C395     1.0000 0.29820  0.83230  0.93090  Biso   1.000  C
  C396     1.0000 0.04020  0.39670  0.54640  Biso   1.000  C
  O93      1.0000 0.33770  0.84240  0.94790  Biso   1.000  O
  O94      1.0000 0.26440  0.80770  0.94990  Biso   1.000  O
  O95      1.0000 0.05200  0.36350  0.51460  Biso   1.000  O
  O96      1.0000 0.03340  0.45520  0.54340  Biso   1.000  O
  Ca24     1.0000 0.37610  0.82850  0.01370  Biso   1.000  Ca
  Ca25     1.0000 0.50980  0.26200  0.81280  Biso   1.000  Ca
  O97      1.0000 0.44430  0.18600  0.80910  Biso   1.000  O
  O98      1.0000 0.44560  0.23880  0.74750  Biso   1.000  O
  O99      1.0000 0.47140  0.28650  0.88020  Biso   1.000  O
  O100     1.0000 0.49380  0.36230  0.78580  Biso   1.000  O
  O101     1.0000 0.53930  0.18080  0.86190  Biso   1.000  O
  O102     1.0000 0.57040  0.31360  0.85360  Biso   1.000  O
  C397     1.0000 0.42530  0.20420  0.77410  Biso   1.000  C
  Ca26     1.0000 0.54060  0.29120  0.93080  Biso   1.000  Ca
  C398     1.0000 0.45180  0.33490  0.89600  Biso   1.000  C
  C399     1.0000 0.37490  0.18560  0.76410  Biso   1.000  C
  O103     1.0000 0.46990  0.36510  0.92720  Biso   1.000  O
  O104     1.0000 0.58910  0.37800  0.90800  Biso   1.000  O
  O105     1.0000 0.58750  0.19520  0.91860  Biso   1.000  O
  O106     1.0000 0.59420  0.27580  0.99480  Biso   1.000  O
  O107     1.0000 0.54320  0.35400  0.00160  Biso   1.000  O
  C400     1.0000 0.40490  0.35550  0.87750  Biso   1.000  C
  C401     1.0000 0.34890  0.21320  0.73080  Biso   1.000  C
  C402     1.0000 0.35360  0.13810  0.78900  Biso   1.000  C
  Ca27     1.0000 0.47100  0.41560  0.99670  Biso   1.000  Ca
  C403     1.0000 0.37870  0.31320  0.85140  Biso   1.000  C
  C404     1.0000 0.38770  0.41670  0.88500  Biso   1.000  C
  C405     1.0000 0.50420  0.49600  0.78840  Biso   1.000  C
  H223     1.0000 0.36290  0.24460  0.71370  Biso   1.000  H
  C406     1.0000 0.30300  0.19580  0.72200  Biso   1.000  C
  C407     1.0000 0.30740  0.11940  0.77960  Biso   1.000  C
  H224     1.0000 0.37030  0.11890  0.81180  Biso   1.000  H
  O108     1.0000 0.50770  0.49620  0.95410  Biso   1.000  O
  N7       1.0000 0.45720  0.43030  0.08050  Biso   1.000  N
  H225     1.0000 0.38980  0.27180  0.84670  Biso   1.000  H
  C408     1.0000 0.33610  0.33260  0.83250  Biso   1.000  C
  H226     1.0000 0.40440  0.44480  0.90300  Biso   1.000  H
  C409     1.0000 0.34530  0.43610  0.86540  Biso   1.000  C
  C410     1.0000 0.50430  0.56100  0.78830  Biso   1.000  C
  H227     1.0000 0.50700  0.47420  0.81470  Biso   1.000  H
  H228     1.0000 0.28590  0.21740  0.70040  Biso   1.000  H
  C411     1.0000 0.28090  0.14560  0.74530  Biso   1.000  C
  H229     1.0000 0.29360  0.08820  0.79690  Biso   1.000  H
  C412     1.0000 0.52130  0.50750  0.91510  Biso   1.000  C
  C413     1.0000 0.31930  0.39490  0.83830  Biso   1.000  C
  H230     1.0000 0.31860  0.30370  0.81570  Biso   1.000  H
  H231     1.0000 0.33400  0.47730  0.87050  Biso   1.000  H
  H232     1.0000 0.50730  0.58250  0.81470  Biso   1.000  H
  C414     1.0000 0.23310  0.12080  0.73410  Biso   1.000  C
  C415     1.0000 0.27620  0.41700  0.81460  Biso   1.000  C
  C416     1.0000 0.21040  0.07830  0.76080  Biso   1.000  C
  C417     1.0000 0.20960  0.13690  0.69430  Biso   1.000  C
  C418     1.0000 0.24480  0.46160  0.83250  Biso   1.000  C
  C419     1.0000 0.26710  0.39580  0.77200  Biso   1.000  C
  C420     1.0000 0.49050  0.70150  0.78730  Biso   1.000  C
  C421     1.0000 0.16660  0.05110  0.75020  Biso   1.000  C
  H233     1.0000 0.22490  0.06700  0.78710  Biso   1.000  H
  C422     1.0000 0.16620  0.11120  0.68250  Biso   1.000  C
  H234     1.0000 0.22390  0.16570  0.67550  Biso   1.000  H
  H235     1.0000 0.25020  0.47680  0.86060  Biso   1.000  H
  C423     1.0000 0.20550  0.48350  0.80860  Biso   1.000  C
  C424     1.0000 0.22830  0.41600  0.74800  Biso   1.000  C
  H236     1.0000 0.28810  0.36700  0.75940  Biso   1.000  H
  C425     1.0000 0.49090  0.76970  0.78840  Biso   1.000  C
  H237     1.0000 0.48350  0.67910  0.81260  Biso   1.000  H
  C426     1.0000 0.14520  0.06750  0.71050  Biso   1.000  C
  C427     1.0000 0.14520  0.00280  0.77960  Biso   1.000  C
  C428     1.0000 0.14350  0.12770  0.63950  Biso   1.000  C
  C429     1.0000 0.19800  0.46050  0.76710  Biso   1.000  C
  C430     1.0000 0.17200  0.52990  0.82830  Biso   1.000  C
  C431     1.0000 0.22140  0.39310  0.70240  Biso   1.000  C
  C432     1.0000 0.48160  0.80350  0.83030  Biso   1.000  C
  H238     1.0000 0.11640  0.04890  0.70260  Biso   1.000  H
  C433     1.0000 0.12490  0.94730  0.76430  Biso   1.000  C
  C434     1.0000 0.14720  0.01280  0.82420  Biso   1.000  C
  C435     1.0000 0.10050  0.10260  0.62660  Biso   1.000  C
  C436     1.0000 0.16530  0.16860  0.61030  Biso   1.000  C
  H239     1.0000 0.17190  0.47510  0.75120  Biso   1.000  H
  C437     1.0000 0.18850  0.57580  0.85920  Biso   1.000  C
  C438     1.0000 0.12470  0.53280  0.81550  Biso   1.000  C
  C439     1.0000 0.17610  0.38690  0.68320  Biso   1.000  C
  C440     1.0000 0.25970  0.37580  0.67780  Biso   1.000  C
  C441     1.0000 0.49660  0.86210  0.83680  Biso   1.000  C
  C442     1.0000 0.46060  0.77690  0.86330  Biso   1.000  C
  H240     1.0000 0.12290  0.94020  0.73440  Biso   1.000  H
  C443     1.0000 0.10730  0.90160  0.79250  Biso   1.000  C
  H241     1.0000 0.16100  0.05010  0.83520  Biso   1.000  H
  C444     1.0000 0.12890  0.96790  0.85270  Biso   1.000  C
  C445     1.0000 0.07940  0.11680  0.58640  Biso   1.000  C
  H242     1.0000 0.08500  0.07510  0.64540  Biso   1.000  H
  H243     1.0000 0.19470  0.18600  0.61750  Biso   1.000  H
  C446     1.0000 0.14390  0.18400  0.57070  Biso   1.000  C
  H244     1.0000 0.22030  0.57630  0.86760  Biso   1.000  H
  C447     1.0000 0.15770  0.61960  0.87660  Biso   1.000  C
  C448     1.0000 0.09450  0.57770  0.83310  Biso   1.000  C
  H245     1.0000 0.11310  0.50410  0.79470  Biso   1.000  H
  C449     1.0000 0.17020  0.36690  0.64120  Biso   1.000  C
  H246     1.0000 0.14960  0.39660  0.69960  Biso   1.000  H
  H247     1.0000 0.29000  0.37840  0.68990  Biso   1.000  H
  C450     1.0000 0.25370  0.35470  0.63490  Biso   1.000  C
  C451     1.0000 0.48870  0.89400  0.87820  Biso   1.000  C
  H248     1.0000 0.51260  0.88340  0.81490  Biso   1.000  H
  C452     1.0000 0.45480  0.80570  0.90310  Biso   1.000  C
  H249     1.0000 0.44870  0.73560  0.85960  Biso   1.000  H
  H250     1.0000 0.09440  0.86370  0.78160  Biso   1.000  H
  C453     1.0000 0.10880  0.91220  0.83690  Biso   1.000  C
  H251     1.0000 0.13020  0.97550  0.88250  Biso   1.000  H
  H252     1.0000 0.05090  0.09770  0.57830  Biso   1.000  H
  C454     1.0000 0.10110  0.15940  0.55870  Biso   1.000  C
  H253     1.0000 0.15920  0.21170  0.55180  Biso   1.000  H
  H254     1.0000 0.16880  0.64850  0.89750  Biso   1.000  H
  C455     1.0000 0.11070  0.62150  0.86370  Biso   1.000  C
  H255     1.0000 0.06280  0.57830  0.82430  Biso   1.000  H
  C456     1.0000 0.20840  0.35160  0.61600  Biso   1.000  C
  H256     1.0000 0.13980  0.36360  0.62930  Biso   1.000  H
  H257     1.0000 0.27980  0.34260  0.61890  Biso   1.000  H
  C457     1.0000 0.46770  0.86550  0.91030  Biso   1.000  C
  H258     1.0000 0.49890  0.93610  0.88180  Biso   1.000  H
  H259     1.0000 0.44130  0.78240  0.92550  Biso   1.000  H
  C458     1.0000 0.08850  0.86530  0.86810  Biso   1.000  C
  C459     1.0000 0.07820  0.17680  0.51560  Biso   1.000  C
  C460     1.0000 0.07670  0.66940  0.88210  Biso   1.000  C
  C461     1.0000 0.20180  0.33230  0.56910  Biso   1.000  C
  C462     1.0000 0.45980  0.89670  0.95360  Biso   1.000  C
  O109     1.0000 0.16230  0.34240  0.55210  Biso   1.000  O
  O110     1.0000 0.23560  0.30770  0.55010  Biso   1.000  O
  O111     1.0000 0.44800  0.86350  0.98540  Biso   1.000  O
  O112     1.0000 0.46660  0.95520  0.95660  Biso   1.000  O
  Ca28     1.0000 0.12390  0.32850  0.48630  Biso   1.000  Ca
  Ca29     1.0000 0.00980  0.76200  0.81280  Biso   1.000  Ca
  O113     1.0000 0.94430  0.68600  0.80910  Biso   1.000  O
  O114     1.0000 0.94560  0.73880  0.74750  Biso   1.000  O
  O115     1.0000 0.97140  0.78650  0.88020  Biso   1.000  O
  O116     1.0000 0.99380  0.86230  0.78580  Biso   1.000  O
  O117     1.0000 0.03930  0.68080  0.86190  Biso   1.000  O
  O118     1.0000 0.07040  0.81360  0.85360  Biso   1.000  O
  C463     1.0000 0.92530  0.70420  0.77410  Biso   1.000  C
  Ca30     1.0000 0.04060  0.79120  0.93080  Biso   1.000  Ca
  C464     1.0000 0.95180  0.83490  0.89600  Biso   1.000  C
  C465     1.0000 0.87490  0.68560  0.76410  Biso   1.000  C
  O119     1.0000 0.96990  0.86510  0.92720  Biso   1.000  O
  O120     1.0000 0.08910  0.87800  0.90800  Biso   1.000  O
  O121     1.0000 0.08750  0.69520  0.91860  Biso   1.000  O
  O122     1.0000 0.09420  0.77580  0.99480  Biso   1.000  O
  O123     1.0000 0.04320  0.85400  0.00160  Biso   1.000  O
  C466     1.0000 0.90490  0.85550  0.87750  Biso   1.000  C
  C467     1.0000 0.84890  0.71320  0.73080  Biso   1.000  C
  C468     1.0000 0.85360  0.63810  0.78900  Biso   1.000  C
  Ca31     1.0000 0.97100  0.91560  0.99670  Biso   1.000  Ca
  C469     1.0000 0.87870  0.81320  0.85140  Biso   1.000  C
  C470     1.0000 0.88770  0.91670  0.88500  Biso   1.000  C
  C471     1.0000 0.00420  0.99600  0.78840  Biso   1.000  C
  H260     1.0000 0.86290  0.74460  0.71370  Biso   1.000  H
  C472     1.0000 0.80300  0.69580  0.72200  Biso   1.000  C
  C473     1.0000 0.80740  0.61940  0.77960  Biso   1.000  C
  H261     1.0000 0.87030  0.61890  0.81180  Biso   1.000  H
  O124     1.0000 0.00770  0.99620  0.95410  Biso   1.000  O
  N8       1.0000 0.95720  0.93030  0.08050  Biso   1.000  N
  H262     1.0000 0.88980  0.77180  0.84670  Biso   1.000  H
  C474     1.0000 0.83610  0.83260  0.83250  Biso   1.000  C
  H263     1.0000 0.90440  0.94480  0.90300  Biso   1.000  H
  C475     1.0000 0.84530  0.93610  0.86540  Biso   1.000  C
  C476     1.0000 0.00430  0.06100  0.78830  Biso   1.000  C
  H264     1.0000 0.00700  0.97420  0.81470  Biso   1.000  H
  H265     1.0000 0.78590  0.71740  0.70040  Biso   1.000  H
  C477     1.0000 0.78090  0.64560  0.74530  Biso   1.000  C
  H266     1.0000 0.79360  0.58820  0.79690  Biso   1.000  H
  C478     1.0000 0.02130  0.00750  0.91510  Biso   1.000  C
  C479     1.0000 0.81930  0.89490  0.83830  Biso   1.000  C
  H267     1.0000 0.81860  0.80370  0.81570  Biso   1.000  H
  H268     1.0000 0.83400  0.97730  0.87050  Biso   1.000  H
  H269     1.0000 0.00730  0.08250  0.81470  Biso   1.000  H
  C480     1.0000 0.73310  0.62080  0.73410  Biso   1.000  C
  C481     1.0000 0.77620  0.91700  0.81460  Biso   1.000  C
  C482     1.0000 0.71040  0.57830  0.76080  Biso   1.000  C
  C483     1.0000 0.70960  0.63690  0.69430  Biso   1.000  C
  C484     1.0000 0.74480  0.96160  0.83250  Biso   1.000  C
  C485     1.0000 0.76710  0.89580  0.77200  Biso   1.000  C
  C486     1.0000 0.99050  0.20150  0.78730  Biso   1.000  C
  C487     1.0000 0.66660  0.55110  0.75020  Biso   1.000  C
  H270     1.0000 0.72490  0.56700  0.78710  Biso   1.000  H
  C488     1.0000 0.66620  0.61120  0.68250  Biso   1.000  C
  H271     1.0000 0.72390  0.66570  0.67550  Biso   1.000  H
  H272     1.0000 0.75020  0.97680  0.86060  Biso   1.000  H
  C489     1.0000 0.70550  0.98350  0.80860  Biso   1.000  C
  C490     1.0000 0.72830  0.91600  0.74800  Biso   1.000  C
  H273     1.0000 0.78810  0.86700  0.75940  Biso   1.000  H
  C491     1.0000 0.99090  0.26970  0.78840  Biso   1.000  C
  H274     1.0000 0.98350  0.17910  0.81260  Biso   1.000  H
  C492     1.0000 0.64520  0.56750  0.71050  Biso   1.000  C
  C493     1.0000 0.64520  0.50280  0.77960  Biso   1.000  C
  C494     1.0000 0.64350  0.62770  0.63950  Biso   1.000  C
  C495     1.0000 0.69800  0.96050  0.76710  Biso   1.000  C
  C496     1.0000 0.67200  0.02990  0.82830  Biso   1.000  C
  C497     1.0000 0.72140  0.89310  0.70240  Biso   1.000  C
  C498     1.0000 0.98160  0.30350  0.83030  Biso   1.000  C
  H275     1.0000 0.61640  0.54890  0.70260  Biso   1.000  H
  C499     1.0000 0.62490  0.44730  0.76430  Biso   1.000  C
  C500     1.0000 0.64720  0.51280  0.82420  Biso   1.000  C
  C501     1.0000 0.60050  0.60260  0.62660  Biso   1.000  C
  C502     1.0000 0.66530  0.66860  0.61030  Biso   1.000  C
  H276     1.0000 0.67190  0.97510  0.75120  Biso   1.000  H
  C503     1.0000 0.68850  0.07580  0.85920  Biso   1.000  C
  C504     1.0000 0.62470  0.03280  0.81550  Biso   1.000  C
  C505     1.0000 0.67610  0.88690  0.68320  Biso   1.000  C
  C506     1.0000 0.75970  0.87580  0.67780  Biso   1.000  C
  C507     1.0000 0.99660  0.36210  0.83680  Biso   1.000  C
  C508     1.0000 0.96060  0.27690  0.86330  Biso   1.000  C
  H277     1.0000 0.62290  0.44020  0.73440  Biso   1.000  H
  C509     1.0000 0.60730  0.40160  0.79250  Biso   1.000  C
  H278     1.0000 0.66100  0.55010  0.83520  Biso   1.000  H
  C510     1.0000 0.62890  0.46790  0.85270  Biso   1.000  C
  C511     1.0000 0.57940  0.61680  0.58640  Biso   1.000  C
  H279     1.0000 0.58500  0.57510  0.64540  Biso   1.000  H
  H280     1.0000 0.69470  0.68600  0.61750  Biso   1.000  H
  C512     1.0000 0.64390  0.68400  0.57070  Biso   1.000  C
  H281     1.0000 0.72030  0.07630  0.86760  Biso   1.000  H
  C513     1.0000 0.65770  0.11960  0.87660  Biso   1.000  C
  C514     1.0000 0.59450  0.07770  0.83310  Biso   1.000  C
  H282     1.0000 0.61310  0.00410  0.79470  Biso   1.000  H
  C515     1.0000 0.67020  0.86690  0.64120  Biso   1.000  C
  H283     1.0000 0.64960  0.89660  0.69960  Biso   1.000  H
  H284     1.0000 0.79000  0.87840  0.68990  Biso   1.000  H
  C516     1.0000 0.75370  0.85470  0.63490  Biso   1.000  C
  C517     1.0000 0.98870  0.39400  0.87820  Biso   1.000  C
  H285     1.0000 0.01260  0.38340  0.81490  Biso   1.000  H
  C518     1.0000 0.95480  0.30570  0.90310  Biso   1.000  C
  H286     1.0000 0.94870  0.23560  0.85960  Biso   1.000  H
  H287     1.0000 0.59440  0.36370  0.78160  Biso   1.000  H
  C519     1.0000 0.60880  0.41220  0.83690  Biso   1.000  C
  H288     1.0000 0.63020  0.47550  0.88250  Biso   1.000  H
  H289     1.0000 0.55090  0.59770  0.57830  Biso   1.000  H
  C520     1.0000 0.60110  0.65940  0.55870  Biso   1.000  C
  H290     1.0000 0.65920  0.71170  0.55180  Biso   1.000  H
  H291     1.0000 0.66880  0.14850  0.89750  Biso   1.000  H
  C521     1.0000 0.61070  0.12150  0.86370  Biso   1.000  C
  H292     1.0000 0.56280  0.07830  0.82430  Biso   1.000  H
  C522     1.0000 0.70840  0.85160  0.61600  Biso   1.000  C
  H293     1.0000 0.63980  0.86360  0.62930  Biso   1.000  H
  H294     1.0000 0.77980  0.84260  0.61890  Biso   1.000  H
  C523     1.0000 0.96770  0.36550  0.91030  Biso   1.000  C
  H295     1.0000 0.99890  0.43610  0.88180  Biso   1.000  H
  H296     1.0000 0.94130  0.28240  0.92550  Biso   1.000  H
  C524     1.0000 0.58850  0.36530  0.86810  Biso   1.000  C
  C525     1.0000 0.57820  0.67680  0.51560  Biso   1.000  C
  C526     1.0000 0.57670  0.16940  0.88210  Biso   1.000  C
  C527     1.0000 0.70180  0.83230  0.56910  Biso   1.000  C
  C528     1.0000 0.95980  0.39670  0.95360  Biso   1.000  C
  O125     1.0000 0.66230  0.84240  0.55210  Biso   1.000  O
  O126     1.0000 0.73560  0.80770  0.55010  Biso   1.000  O
  O127     1.0000 0.94800  0.36350  0.98540  Biso   1.000  O
  O128     1.0000 0.96660  0.45520  0.95660  Biso   1.000  O
  Ca32     1.0000 0.62390  0.82850  0.48630  Biso   1.000  Ca
  C529     1.0000 0.50000  0.60970  0.25000  Biso   1.000  C
  C530     1.0000 0.50000  0.53850  0.25000  Biso   1.000  C
  C531     1.0000 0.50000  0.40310  0.25000  Biso   1.000  C
  C532     1.0000 0.50000  0.33240  0.25000  Biso   1.000  C
  C533     1.0000 0.50000  0.19890  0.25000  Biso   1.000  C
  H297     1.0000 0.50000  0.15430  0.25000  Biso   1.000  H
  C534     1.0000 0.00000  0.10970  0.25000  Biso   1.000  C
  C535     1.0000 0.00000  0.03850  0.25000  Biso   1.000  C
  C536     1.0000 0.00000  0.90310  0.25000  Biso   1.000  C
  C537     1.0000 0.00000  0.83240  0.25000  Biso   1.000  C
  C538     1.0000 0.00000  0.69890  0.25000  Biso   1.000  C
  H298     1.0000 0.00000  0.65430  0.25000  Biso   1.000  H
  C539     1.0000 0.50000  0.39030  0.75000  Biso   1.000  C
  C540     1.0000 0.50000  0.46150  0.75000  Biso   1.000  C
  C541     1.0000 0.50000  0.59690  0.75000  Biso   1.000  C
  C542     1.0000 0.50000  0.66760  0.75000  Biso   1.000  C
  C543     1.0000 0.50000  0.80110  0.75000  Biso   1.000  C
  H299     1.0000 0.50000  0.84570  0.75000  Biso   1.000  H
  C544     1.0000 0.00000  0.89030  0.75000  Biso   1.000  C
  C545     1.0000 0.00000  0.96150  0.75000  Biso   1.000  C
  C546     1.0000 0.00000  0.09690  0.75000  Biso   1.000  C
  C547     1.0000 0.00000  0.16760  0.75000  Biso   1.000  C
  C548     1.0000 0.00000  0.30110  0.75000  Biso   1.000  C
  H300     1.0000 0.00000  0.34570  0.75000  Biso   1.000  H
