data_image0
_cell_length_a       18.2197
_cell_length_b       31.5978
_cell_length_c       29.862
_cell_angle_alpha    90
_cell_angle_beta     101.311
_cell_angle_gamma    90

_symmetry_space_group_name_H-M    "P 1"
_symmetry_int_tables_number       1

loop_
  _symmetry_equiv_pos_as_xyz
  'x, y, z'

loop_
  _atom_site_label
  _atom_site_occupancy
  _atom_site_fract_x
  _atom_site_fract_y
  _atom_site_fract_z
  _atom_site_thermal_displace_type
  _atom_site_B_iso_or_equiv
  _atom_site_type_symbol
  Sr1      1.0000 0.30382  0.35018  0.57790  Biso   1.000  Sr
  Sr2      1.0000 0.35143  0.46056  0.53012  Biso   1.000  Sr
  O1       1.0000 0.27430  0.39228  0.49875  Biso   1.000  O
  O2       1.0000 0.29120  0.32404  0.48971  Biso   1.000  O
  O3       1.0000 0.16170  0.35192  0.57620  Biso   1.000  O
  O4       1.0000 0.19100  0.29001  0.55255  Biso   1.000  O
  O5       1.0000 0.85690  0.24650  0.06430  Biso   1.000  O
  O6       1.0000 0.87650  0.20580  0.12440  Biso   1.000  O
  O7       1.0000 0.27210  0.56952  0.08522  Biso   1.000  O
  O8       1.0000 0.29260  0.60430  0.14991  Biso   1.000  O
  O9       1.0000 0.42040  0.38761  0.57019  Biso   1.000  O
  O10      1.0000 0.48570  0.43124  0.53560  Biso   1.000  O
  O11      1.0000 0.40650  0.49491  0.60794  Biso   1.000  O
  H1       1.0000 0.42440  0.50530  0.63410  Biso   1.000  H
  H2       1.0000 0.35970  0.49110  0.60540  Biso   1.000  H
  O12      1.0000 0.43060  0.53006  0.52333  Biso   1.000  O
  H3       1.0000 0.46160  0.52030  0.50810  Biso   1.000  H
  H4       1.0000 0.43300  0.51570  0.54770  Biso   1.000  H
  O13      1.0000 0.73140  0.99926  0.50826  Biso   1.000  O
  O14      1.0000 0.61430  0.01745  0.48250  Biso   1.000  O
  C1       1.0000 0.27290  0.36056  0.47270  Biso   1.000  C
  C2       1.0000 0.24700  0.36542  0.42390  Biso   1.000  C
  C3       1.0000 0.24260  0.33140  0.39420  Biso   1.000  C
  H5       1.0000 0.25690  0.30460  0.40560  Biso   1.000  H
  C4       1.0000 0.21690  0.33670  0.34730  Biso   1.000  C
  H6       1.0000 0.21490  0.31360  0.32780  Biso   1.000  H
  C5       1.0000 0.19450  0.37620  0.32970  Biso   1.000  C
  C6       1.0000 0.19710  0.40990  0.35920  Biso   1.000  C
  H7       1.0000 0.18190  0.43650  0.34770  Biso   1.000  H
  C7       1.0000 0.22230  0.40490  0.40590  Biso   1.000  C
  H8       1.0000 0.22260  0.42790  0.42540  Biso   1.000  H
  C8       1.0000 0.16920  0.38230  0.27990  Biso   1.000  C
  C9       1.0000 0.12220  0.35340  0.25350  Biso   1.000  C
  H9       1.0000 0.10820  0.32900  0.26710  Biso   1.000  H
  C10      1.0000 0.09520  0.36010  0.20680  Biso   1.000  C
  C11      1.0000 0.12110  0.39500  0.18710  Biso   1.000  C
  H10      1.0000 0.10660  0.39890  0.15570  Biso   1.000  H
  C12      1.0000 0.16820  0.42460  0.21270  Biso   1.000  C
  C13      1.0000 0.19190  0.41750  0.25820  Biso   1.000  C
  H11      1.0000 0.22430  0.43690  0.27530  Biso   1.000  H
  C14      1.0000 0.19320  0.46320  0.19060  Biso   1.000  C
  C15      1.0000 0.20280  0.46200  0.14620  Biso   1.000  C
  H12      1.0000 0.19250  0.43710  0.12950  Biso   1.000  H
  C16      1.0000 0.20740  0.50040  0.21390  Biso   1.000  C
  H13      1.0000 0.19790  0.50230  0.24330  Biso   1.000  H
  C17      1.0000 0.23610  0.53590  0.19450  Biso   1.000  C
  H14      1.0000 0.24920  0.56030  0.21160  Biso   1.000  H
  C18      1.0000 0.04460  0.32770  0.17910  Biso   1.000  C
  C19      1.0000 0.03610  0.28850  0.19450  Biso   1.000  C
  H15      1.0000 0.06480  0.28020  0.22240  Biso   1.000  H
  C20      1.0000 0.00090  0.33790  0.13770  Biso   1.000  C
  H16      1.0000 0.00520  0.36470  0.12550  Biso   1.000  H
  C21      1.0000 0.95010  0.30920  0.11350  Biso   1.000  C
  H17      1.0000 0.92020  0.31720  0.08580  Biso   1.000  H
  C22      1.0000 0.14440  0.31510  0.56380  Biso   1.000  C
  C23      1.0000 0.06740  0.29920  0.56410  Biso   1.000  C
  C24      1.0000 0.03660  0.26570  0.53630  Biso   1.000  C
  H18      1.0000 0.06350  0.25310  0.51640  Biso   1.000  H
  C25      1.0000 0.02340  0.31890  0.59100  Biso   1.000  C
  H19      1.0000 0.04220  0.34190  0.60910  Biso   1.000  H
  C26      1.0000 0.88730  0.23870  0.10340  Biso   1.000  C
  C27      1.0000 0.94400  0.27040  0.12970  Biso   1.000  C
  C28      1.0000 0.98560  0.25970  0.17010  Biso   1.000  C
  H20      1.0000 0.98080  0.23290  0.18200  Biso   1.000  H
  C29      1.0000 0.27240  0.57187  0.12710  Biso   1.000  C
  C30      1.0000 0.24440  0.53360  0.14960  Biso   1.000  C
  C31      1.0000 0.22750  0.49719  0.12570  Biso   1.000  C
  H21      1.0000 0.23250  0.49580  0.09540  Biso   1.000  H
  C32      1.0000 0.47870  0.39700  0.55530  Biso   1.000  C
  C33      1.0000 0.54170  0.36482  0.56130  Biso   1.000  C
  C34      1.0000 0.60530  0.37400  0.54430  Biso   1.000  C
  H22      1.0000 0.61000  0.40000  0.53070  Biso   1.000  H
  C35      1.0000 0.66160  0.34430  0.54770  Biso   1.000  C
  H23      1.0000 0.70430  0.35080  0.53640  Biso   1.000  H
  C36      1.0000 0.65620  0.30547  0.56740  Biso   1.000  C
  C37      1.0000 0.59250  0.29690  0.58450  Biso   1.000  C
  H24      1.0000 0.58740  0.27090  0.59810  Biso   1.000  H
  C38      1.0000 0.53630  0.32690  0.58170  Biso   1.000  C
  H25      1.0000 0.49420  0.32090  0.59390  Biso   1.000  H
  C39      1.0000 0.71570  0.27275  0.56720  Biso   1.000  C
  C40      1.0000 0.78980  0.28470  0.57000  Biso   1.000  C
  H26      1.0000 0.80290  0.31290  0.57560  Biso   1.000  H
  C41      1.0000 0.84550  0.25570  0.56470  Biso   1.000  C
  C42      1.0000 0.82440  0.21320  0.55680  Biso   1.000  C
  H27      1.0000 0.86020  0.19340  0.55250  Biso   1.000  H
  C43      1.0000 0.75120  0.20023  0.55510  Biso   1.000  C
  C44      1.0000 0.69650  0.23020  0.56020  Biso   1.000  C
  H28      1.0000 0.64730  0.22160  0.55880  Biso   1.000  H
  C45      1.0000 0.92210  0.27009  0.56540  Biso   1.000  C
  C46      1.0000 0.96600  0.25120  0.53870  Biso   1.000  C
  H29      1.0000 0.94730  0.22760  0.52140  Biso   1.000  H
  C47      1.0000 0.95250  0.30460  0.59110  Biso   1.000  C
  H30      1.0000 0.92380  0.31850  0.60900  Biso   1.000  H
  C48      1.0000 0.67890  0.02600  0.50060  Biso   1.000  C
  C49      1.0000 0.69750  0.07119  0.51630  Biso   1.000  C
  C50      1.0000 0.76450  0.08115  0.54250  Biso   1.000  C
  H31      1.0000 0.79990  0.06000  0.55140  Biso   1.000  H
  C51      1.0000 0.78070  0.12250  0.55630  Biso   1.000  C
  H32      1.0000 0.82720  0.12860  0.57430  Biso   1.000  H
  C52      1.0000 0.72970  0.15510  0.54420  Biso   1.000  C
  C53      1.0000 0.66080  0.14390  0.51810  Biso   1.000  C
  H33      1.0000 0.62440  0.16460  0.50980  Biso   1.000  H
  C54      1.0000 0.64510  0.10290  0.50430  Biso   1.000  C
  H34      1.0000 0.59850  0.09630  0.48660  Biso   1.000  H
  Sr3      1.0000 0.80382  0.85018  0.57790  Biso   1.000  Sr
  Sr4      1.0000 0.85143  0.96056  0.53012  Biso   1.000  Sr
  O15      1.0000 0.77430  0.89228  0.49875  Biso   1.000  O
  O16      1.0000 0.79120  0.82404  0.48971  Biso   1.000  O
  O17      1.0000 0.66170  0.85192  0.57620  Biso   1.000  O
  O18      1.0000 0.69100  0.79001  0.55255  Biso   1.000  O
  O19      1.0000 0.35690  0.74650  0.06430  Biso   1.000  O
  O20      1.0000 0.37650  0.70580  0.12440  Biso   1.000  O
  O21      1.0000 0.77210  0.06952  0.08522  Biso   1.000  O
  O22      1.0000 0.79260  0.10430  0.14991  Biso   1.000  O
  O23      1.0000 0.92040  0.88761  0.57019  Biso   1.000  O
  O24      1.0000 0.98570  0.93124  0.53560  Biso   1.000  O
  O25      1.0000 0.90650  0.99491  0.60794  Biso   1.000  O
  H35      1.0000 0.92440  0.00530  0.63410  Biso   1.000  H
  H36      1.0000 0.85970  0.99110  0.60540  Biso   1.000  H
  O26      1.0000 0.93060  0.03006  0.52333  Biso   1.000  O
  H37      1.0000 0.96160  0.02030  0.50810  Biso   1.000  H
  H38      1.0000 0.93300  0.01570  0.54770  Biso   1.000  H
  O27      1.0000 0.23140  0.49926  0.50826  Biso   1.000  O
  O28      1.0000 0.11430  0.51745  0.48250  Biso   1.000  O
  C55      1.0000 0.77290  0.86056  0.47270  Biso   1.000  C
  C56      1.0000 0.74700  0.86542  0.42390  Biso   1.000  C
  C57      1.0000 0.74260  0.83140  0.39420  Biso   1.000  C
  H39      1.0000 0.75690  0.80460  0.40560  Biso   1.000  H
  C58      1.0000 0.71690  0.83670  0.34730  Biso   1.000  C
  H40      1.0000 0.71490  0.81360  0.32780  Biso   1.000  H
  C59      1.0000 0.69450  0.87620  0.32970  Biso   1.000  C
  C60      1.0000 0.69710  0.90990  0.35920  Biso   1.000  C
  H41      1.0000 0.68190  0.93650  0.34770  Biso   1.000  H
  C61      1.0000 0.72230  0.90490  0.40590  Biso   1.000  C
  H42      1.0000 0.72260  0.92790  0.42540  Biso   1.000  H
  C62      1.0000 0.66920  0.88230  0.27990  Biso   1.000  C
  C63      1.0000 0.62220  0.85340  0.25350  Biso   1.000  C
  H43      1.0000 0.60820  0.82900  0.26710  Biso   1.000  H
  C64      1.0000 0.59520  0.86010  0.20680  Biso   1.000  C
  C65      1.0000 0.62110  0.89500  0.18710  Biso   1.000  C
  H44      1.0000 0.60660  0.89890  0.15570  Biso   1.000  H
  C66      1.0000 0.66820  0.92460  0.21270  Biso   1.000  C
  C67      1.0000 0.69190  0.91750  0.25820  Biso   1.000  C
  H45      1.0000 0.72430  0.93690  0.27530  Biso   1.000  H
  C68      1.0000 0.69320  0.96320  0.19060  Biso   1.000  C
  C69      1.0000 0.70280  0.96200  0.14620  Biso   1.000  C
  H46      1.0000 0.69250  0.93710  0.12950  Biso   1.000  H
  C70      1.0000 0.70740  0.00040  0.21390  Biso   1.000  C
  H47      1.0000 0.69790  0.00230  0.24330  Biso   1.000  H
  C71      1.0000 0.73610  0.03590  0.19450  Biso   1.000  C
  H48      1.0000 0.74920  0.06030  0.21160  Biso   1.000  H
  C72      1.0000 0.54460  0.82770  0.17910  Biso   1.000  C
  C73      1.0000 0.53610  0.78850  0.19450  Biso   1.000  C
  H49      1.0000 0.56480  0.78020  0.22240  Biso   1.000  H
  C74      1.0000 0.50090  0.83790  0.13770  Biso   1.000  C
  H50      1.0000 0.50520  0.86470  0.12550  Biso   1.000  H
  C75      1.0000 0.45010  0.80920  0.11350  Biso   1.000  C
  H51      1.0000 0.42020  0.81720  0.08580  Biso   1.000  H
  C76      1.0000 0.64440  0.81510  0.56380  Biso   1.000  C
  C77      1.0000 0.56740  0.79920  0.56410  Biso   1.000  C
  C78      1.0000 0.53660  0.76570  0.53630  Biso   1.000  C
  H52      1.0000 0.56350  0.75310  0.51640  Biso   1.000  H
  C79      1.0000 0.52340  0.81890  0.59100  Biso   1.000  C
  H53      1.0000 0.54220  0.84190  0.60910  Biso   1.000  H
  C80      1.0000 0.38730  0.73870  0.10340  Biso   1.000  C
  C81      1.0000 0.44400  0.77040  0.12970  Biso   1.000  C
  C82      1.0000 0.48560  0.75970  0.17010  Biso   1.000  C
  H54      1.0000 0.48080  0.73290  0.18200  Biso   1.000  H
  C83      1.0000 0.77240  0.07187  0.12710  Biso   1.000  C
  C84      1.0000 0.74440  0.03360  0.14960  Biso   1.000  C
  C85      1.0000 0.72750  0.99719  0.12570  Biso   1.000  C
  H55      1.0000 0.73250  0.99580  0.09540  Biso   1.000  H
  C86      1.0000 0.97870  0.89700  0.55530  Biso   1.000  C
  C87      1.0000 0.04170  0.86482  0.56130  Biso   1.000  C
  C88      1.0000 0.10530  0.87400  0.54430  Biso   1.000  C
  H56      1.0000 0.11000  0.90000  0.53070  Biso   1.000  H
  C89      1.0000 0.16160  0.84430  0.54770  Biso   1.000  C
  H57      1.0000 0.20430  0.85080  0.53640  Biso   1.000  H
  C90      1.0000 0.15620  0.80547  0.56740  Biso   1.000  C
  C91      1.0000 0.09250  0.79690  0.58450  Biso   1.000  C
  H58      1.0000 0.08740  0.77090  0.59810  Biso   1.000  H
  C92      1.0000 0.03630  0.82690  0.58170  Biso   1.000  C
  H59      1.0000 0.99420  0.82090  0.59390  Biso   1.000  H
  C93      1.0000 0.21570  0.77275  0.56720  Biso   1.000  C
  C94      1.0000 0.28980  0.78470  0.57000  Biso   1.000  C
  H60      1.0000 0.30290  0.81290  0.57560  Biso   1.000  H
  C95      1.0000 0.34550  0.75570  0.56470  Biso   1.000  C
  C96      1.0000 0.32440  0.71320  0.55680  Biso   1.000  C
  H61      1.0000 0.36020  0.69340  0.55250  Biso   1.000  H
  C97      1.0000 0.25120  0.70023  0.55510  Biso   1.000  C
  C98      1.0000 0.19650  0.73020  0.56020  Biso   1.000  C
  H62      1.0000 0.14730  0.72160  0.55880  Biso   1.000  H
  C99      1.0000 0.42210  0.77009  0.56540  Biso   1.000  C
  C100     1.0000 0.46600  0.75120  0.53870  Biso   1.000  C
  H63      1.0000 0.44730  0.72760  0.52140  Biso   1.000  H
  C101     1.0000 0.45250  0.80460  0.59110  Biso   1.000  C
  H64      1.0000 0.42380  0.81850  0.60900  Biso   1.000  H
  C102     1.0000 0.17890  0.52600  0.50060  Biso   1.000  C
  C103     1.0000 0.19750  0.57119  0.51630  Biso   1.000  C
  C104     1.0000 0.26450  0.58115  0.54250  Biso   1.000  C
  H65      1.0000 0.29990  0.56000  0.55140  Biso   1.000  H
  C105     1.0000 0.28070  0.62250  0.55630  Biso   1.000  C
  H66      1.0000 0.32720  0.62860  0.57430  Biso   1.000  H
  C106     1.0000 0.22970  0.65510  0.54420  Biso   1.000  C
  C107     1.0000 0.16080  0.64390  0.51810  Biso   1.000  C
  H67      1.0000 0.12440  0.66460  0.50980  Biso   1.000  H
  C108     1.0000 0.14510  0.60290  0.50430  Biso   1.000  C
  H68      1.0000 0.09850  0.59630  0.48660  Biso   1.000  H
  Sr5      1.0000 0.69618  0.35018  0.92210  Biso   1.000  Sr
  Sr6      1.0000 0.64857  0.46056  0.96988  Biso   1.000  Sr
  O29      1.0000 0.72570  0.39228  0.00125  Biso   1.000  O
  O30      1.0000 0.70880  0.32404  0.01029  Biso   1.000  O
  O31      1.0000 0.83830  0.35192  0.92380  Biso   1.000  O
  O32      1.0000 0.80900  0.29001  0.94745  Biso   1.000  O
  O33      1.0000 0.14310  0.24650  0.43570  Biso   1.000  O
  O34      1.0000 0.12350  0.20580  0.37560  Biso   1.000  O
  O35      1.0000 0.72790  0.56952  0.41478  Biso   1.000  O
  O36      1.0000 0.70740  0.60430  0.35009  Biso   1.000  O
  O37      1.0000 0.57960  0.38761  0.92981  Biso   1.000  O
  O38      1.0000 0.51430  0.43124  0.96440  Biso   1.000  O
  O39      1.0000 0.59350  0.49491  0.89206  Biso   1.000  O
  H69      1.0000 0.57560  0.50530  0.86590  Biso   1.000  H
  H70      1.0000 0.64030  0.49110  0.89460  Biso   1.000  H
  O40      1.0000 0.56940  0.53006  0.97667  Biso   1.000  O
  H71      1.0000 0.53840  0.52030  0.99190  Biso   1.000  H
  H72      1.0000 0.56700  0.51570  0.95230  Biso   1.000  H
  O41      1.0000 0.26860  0.99926  0.99174  Biso   1.000  O
  O42      1.0000 0.38570  0.01745  0.01750  Biso   1.000  O
  C109     1.0000 0.72710  0.36056  0.02730  Biso   1.000  C
  C110     1.0000 0.75300  0.36542  0.07610  Biso   1.000  C
  C111     1.0000 0.75740  0.33140  0.10580  Biso   1.000  C
  H73      1.0000 0.74310  0.30460  0.09440  Biso   1.000  H
  C112     1.0000 0.78310  0.33670  0.15270  Biso   1.000  C
  H74      1.0000 0.78510  0.31360  0.17220  Biso   1.000  H
  C113     1.0000 0.80550  0.37620  0.17030  Biso   1.000  C
  C114     1.0000 0.80290  0.40990  0.14080  Biso   1.000  C
  H75      1.0000 0.81810  0.43650  0.15230  Biso   1.000  H
  C115     1.0000 0.77770  0.40490  0.09410  Biso   1.000  C
  H76      1.0000 0.77740  0.42790  0.07460  Biso   1.000  H
  C116     1.0000 0.83080  0.38230  0.22010  Biso   1.000  C
  C117     1.0000 0.87780  0.35340  0.24650  Biso   1.000  C
  H77      1.0000 0.89180  0.32900  0.23290  Biso   1.000  H
  C118     1.0000 0.90480  0.36010  0.29320  Biso   1.000  C
  C119     1.0000 0.87890  0.39500  0.31290  Biso   1.000  C
  H78      1.0000 0.89340  0.39890  0.34430  Biso   1.000  H
  C120     1.0000 0.83180  0.42460  0.28730  Biso   1.000  C
  C121     1.0000 0.80810  0.41750  0.24180  Biso   1.000  C
  H79      1.0000 0.77570  0.43690  0.22470  Biso   1.000  H
  C122     1.0000 0.80680  0.46320  0.30940  Biso   1.000  C
  C123     1.0000 0.79720  0.46200  0.35380  Biso   1.000  C
  H80      1.0000 0.80750  0.43710  0.37050  Biso   1.000  H
  C124     1.0000 0.79260  0.50040  0.28610  Biso   1.000  C
  H81      1.0000 0.80210  0.50230  0.25670  Biso   1.000  H
  C125     1.0000 0.76390  0.53590  0.30550  Biso   1.000  C
  H82      1.0000 0.75080  0.56030  0.28840  Biso   1.000  H
  C126     1.0000 0.95540  0.32770  0.32090  Biso   1.000  C
  C127     1.0000 0.96390  0.28850  0.30550  Biso   1.000  C
  H83      1.0000 0.93520  0.28020  0.27760  Biso   1.000  H
  C128     1.0000 0.99910  0.33790  0.36230  Biso   1.000  C
  H84      1.0000 0.99480  0.36470  0.37450  Biso   1.000  H
  C129     1.0000 0.04990  0.30920  0.38650  Biso   1.000  C
  H85      1.0000 0.07980  0.31720  0.41420  Biso   1.000  H
  C130     1.0000 0.85560  0.31510  0.93620  Biso   1.000  C
  C131     1.0000 0.93260  0.29920  0.93590  Biso   1.000  C
  C132     1.0000 0.96340  0.26570  0.96370  Biso   1.000  C
  H86      1.0000 0.93650  0.25310  0.98360  Biso   1.000  H
  C133     1.0000 0.97660  0.31890  0.90900  Biso   1.000  C
  H87      1.0000 0.95780  0.34190  0.89090  Biso   1.000  H
  C134     1.0000 0.11270  0.23870  0.39660  Biso   1.000  C
  C135     1.0000 0.05600  0.27040  0.37030  Biso   1.000  C
  C136     1.0000 0.01440  0.25970  0.32990  Biso   1.000  C
  H88      1.0000 0.01920  0.23290  0.31800  Biso   1.000  H
  C137     1.0000 0.72760  0.57187  0.37290  Biso   1.000  C
  C138     1.0000 0.75560  0.53360  0.35040  Biso   1.000  C
  C139     1.0000 0.77250  0.49719  0.37430  Biso   1.000  C
  H89      1.0000 0.76750  0.49580  0.40460  Biso   1.000  H
  C140     1.0000 0.52130  0.39700  0.94470  Biso   1.000  C
  C141     1.0000 0.45830  0.36482  0.93870  Biso   1.000  C
  C142     1.0000 0.39470  0.37400  0.95570  Biso   1.000  C
  H90      1.0000 0.39000  0.40000  0.96930  Biso   1.000  H
  C143     1.0000 0.33840  0.34430  0.95230  Biso   1.000  C
  H91      1.0000 0.29570  0.35080  0.96360  Biso   1.000  H
  C144     1.0000 0.34380  0.30547  0.93260  Biso   1.000  C
  C145     1.0000 0.40750  0.29690  0.91550  Biso   1.000  C
  H92      1.0000 0.41260  0.27090  0.90190  Biso   1.000  H
  C146     1.0000 0.46370  0.32690  0.91830  Biso   1.000  C
  H93      1.0000 0.50580  0.32090  0.90610  Biso   1.000  H
  C147     1.0000 0.28430  0.27275  0.93280  Biso   1.000  C
  C148     1.0000 0.21020  0.28470  0.93000  Biso   1.000  C
  H94      1.0000 0.19710  0.31290  0.92440  Biso   1.000  H
  C149     1.0000 0.15450  0.25570  0.93530  Biso   1.000  C
  C150     1.0000 0.17560  0.21320  0.94320  Biso   1.000  C
  H95      1.0000 0.13980  0.19340  0.94750  Biso   1.000  H
  C151     1.0000 0.24880  0.20023  0.94490  Biso   1.000  C
  C152     1.0000 0.30350  0.23020  0.93980  Biso   1.000  C
  H96      1.0000 0.35270  0.22160  0.94120  Biso   1.000  H
  C153     1.0000 0.07790  0.27009  0.93460  Biso   1.000  C
  C154     1.0000 0.03400  0.25120  0.96130  Biso   1.000  C
  H97      1.0000 0.05270  0.22760  0.97860  Biso   1.000  H
  C155     1.0000 0.04750  0.30460  0.90890  Biso   1.000  C
  H98      1.0000 0.07620  0.31850  0.89100  Biso   1.000  H
  C156     1.0000 0.32110  0.02600  0.99940  Biso   1.000  C
  C157     1.0000 0.30250  0.07119  0.98370  Biso   1.000  C
  C158     1.0000 0.23550  0.08115  0.95750  Biso   1.000  C
  H99      1.0000 0.20010  0.06000  0.94860  Biso   1.000  H
  C159     1.0000 0.21930  0.12250  0.94370  Biso   1.000  C
  H100     1.0000 0.17280  0.12860  0.92570  Biso   1.000  H
  C160     1.0000 0.27030  0.15510  0.95580  Biso   1.000  C
  C161     1.0000 0.33920  0.14390  0.98190  Biso   1.000  C
  H101     1.0000 0.37560  0.16460  0.99020  Biso   1.000  H
  C162     1.0000 0.35490  0.10290  0.99570  Biso   1.000  C
  H102     1.0000 0.40150  0.09630  0.01340  Biso   1.000  H
  Sr7      1.0000 0.19618  0.85018  0.92210  Biso   1.000  Sr
  Sr8      1.0000 0.14857  0.96056  0.96988  Biso   1.000  Sr
  O43      1.0000 0.22570  0.89228  0.00125  Biso   1.000  O
  O44      1.0000 0.20880  0.82404  0.01029  Biso   1.000  O
  O45      1.0000 0.33830  0.85192  0.92380  Biso   1.000  O
  O46      1.0000 0.30900  0.79001  0.94745  Biso   1.000  O
  O47      1.0000 0.64310  0.74650  0.43570  Biso   1.000  O
  O48      1.0000 0.62350  0.70580  0.37560  Biso   1.000  O
  O49      1.0000 0.22790  0.06952  0.41478  Biso   1.000  O
  O50      1.0000 0.20740  0.10430  0.35009  Biso   1.000  O
  O51      1.0000 0.07960  0.88761  0.92981  Biso   1.000  O
  O52      1.0000 0.01430  0.93124  0.96440  Biso   1.000  O
  O53      1.0000 0.09350  0.99491  0.89206  Biso   1.000  O
  H103     1.0000 0.07560  0.00530  0.86590  Biso   1.000  H
  H104     1.0000 0.14030  0.99110  0.89460  Biso   1.000  H
  O54      1.0000 0.06940  0.03006  0.97667  Biso   1.000  O
  H105     1.0000 0.03840  0.02030  0.99190  Biso   1.000  H
  H106     1.0000 0.06700  0.01570  0.95230  Biso   1.000  H
  O55      1.0000 0.76860  0.49926  0.99174  Biso   1.000  O
  O56      1.0000 0.88570  0.51745  0.01750  Biso   1.000  O
  C163     1.0000 0.22710  0.86056  0.02730  Biso   1.000  C
  C164     1.0000 0.25300  0.86542  0.07610  Biso   1.000  C
  C165     1.0000 0.25740  0.83140  0.10580  Biso   1.000  C
  H107     1.0000 0.24310  0.80460  0.09440  Biso   1.000  H
  C166     1.0000 0.28310  0.83670  0.15270  Biso   1.000  C
  H108     1.0000 0.28510  0.81360  0.17220  Biso   1.000  H
  C167     1.0000 0.30550  0.87620  0.17030  Biso   1.000  C
  C168     1.0000 0.30290  0.90990  0.14080  Biso   1.000  C
  H109     1.0000 0.31810  0.93650  0.15230  Biso   1.000  H
  C169     1.0000 0.27770  0.90490  0.09410  Biso   1.000  C
  H110     1.0000 0.27740  0.92790  0.07460  Biso   1.000  H
  C170     1.0000 0.33080  0.88230  0.22010  Biso   1.000  C
  C171     1.0000 0.37780  0.85340  0.24650  Biso   1.000  C
  H111     1.0000 0.39180  0.82900  0.23290  Biso   1.000  H
  C172     1.0000 0.40480  0.86010  0.29320  Biso   1.000  C
  C173     1.0000 0.37890  0.89500  0.31290  Biso   1.000  C
  H112     1.0000 0.39340  0.89890  0.34430  Biso   1.000  H
  C174     1.0000 0.33180  0.92460  0.28730  Biso   1.000  C
  C175     1.0000 0.30810  0.91750  0.24180  Biso   1.000  C
  H113     1.0000 0.27570  0.93690  0.22470  Biso   1.000  H
  C176     1.0000 0.30680  0.96320  0.30940  Biso   1.000  C
  C177     1.0000 0.29720  0.96200  0.35380  Biso   1.000  C
  H114     1.0000 0.30750  0.93710  0.37050  Biso   1.000  H
  C178     1.0000 0.29260  0.00040  0.28610  Biso   1.000  C
  H115     1.0000 0.30210  0.00230  0.25670  Biso   1.000  H
  C179     1.0000 0.26390  0.03590  0.30550  Biso   1.000  C
  H116     1.0000 0.25080  0.06030  0.28840  Biso   1.000  H
  C180     1.0000 0.45540  0.82770  0.32090  Biso   1.000  C
  C181     1.0000 0.46390  0.78850  0.30550  Biso   1.000  C
  H117     1.0000 0.43520  0.78020  0.27760  Biso   1.000  H
  C182     1.0000 0.49910  0.83790  0.36230  Biso   1.000  C
  H118     1.0000 0.49480  0.86470  0.37450  Biso   1.000  H
  C183     1.0000 0.54990  0.80920  0.38650  Biso   1.000  C
  H119     1.0000 0.57980  0.81720  0.41420  Biso   1.000  H
  C184     1.0000 0.35560  0.81510  0.93620  Biso   1.000  C
  C185     1.0000 0.43260  0.79920  0.93590  Biso   1.000  C
  C186     1.0000 0.46340  0.76570  0.96370  Biso   1.000  C
  H120     1.0000 0.43650  0.75310  0.98360  Biso   1.000  H
  C187     1.0000 0.47660  0.81890  0.90900  Biso   1.000  C
  H121     1.0000 0.45780  0.84190  0.89090  Biso   1.000  H
  C188     1.0000 0.61270  0.73870  0.39660  Biso   1.000  C
  C189     1.0000 0.55600  0.77040  0.37030  Biso   1.000  C
  C190     1.0000 0.51440  0.75970  0.32990  Biso   1.000  C
  H122     1.0000 0.51920  0.73290  0.31800  Biso   1.000  H
  C191     1.0000 0.22760  0.07187  0.37290  Biso   1.000  C
  C192     1.0000 0.25560  0.03360  0.35040  Biso   1.000  C
  C193     1.0000 0.27250  0.99719  0.37430  Biso   1.000  C
  H123     1.0000 0.26750  0.99580  0.40460  Biso   1.000  H
  C194     1.0000 0.02130  0.89700  0.94470  Biso   1.000  C
  C195     1.0000 0.95830  0.86482  0.93870  Biso   1.000  C
  C196     1.0000 0.89470  0.87400  0.95570  Biso   1.000  C
  H124     1.0000 0.89000  0.90000  0.96930  Biso   1.000  H
  C197     1.0000 0.83840  0.84430  0.95230  Biso   1.000  C
  H125     1.0000 0.79570  0.85080  0.96360  Biso   1.000  H
  C198     1.0000 0.84380  0.80547  0.93260  Biso   1.000  C
  C199     1.0000 0.90750  0.79690  0.91550  Biso   1.000  C
  H126     1.0000 0.91260  0.77090  0.90190  Biso   1.000  H
  C200     1.0000 0.96370  0.82690  0.91830  Biso   1.000  C
  H127     1.0000 0.00580  0.82090  0.90610  Biso   1.000  H
  C201     1.0000 0.78430  0.77275  0.93280  Biso   1.000  C
  C202     1.0000 0.71020  0.78470  0.93000  Biso   1.000  C
  H128     1.0000 0.69710  0.81290  0.92440  Biso   1.000  H
  C203     1.0000 0.65450  0.75570  0.93530  Biso   1.000  C
  C204     1.0000 0.67560  0.71320  0.94320  Biso   1.000  C
  H129     1.0000 0.63980  0.69340  0.94750  Biso   1.000  H
  C205     1.0000 0.74880  0.70023  0.94490  Biso   1.000  C
  C206     1.0000 0.80350  0.73020  0.93980  Biso   1.000  C
  H130     1.0000 0.85270  0.72160  0.94120  Biso   1.000  H
  C207     1.0000 0.57790  0.77009  0.93460  Biso   1.000  C
  C208     1.0000 0.53400  0.75120  0.96130  Biso   1.000  C
  H131     1.0000 0.55270  0.72760  0.97860  Biso   1.000  H
  C209     1.0000 0.54750  0.80460  0.90890  Biso   1.000  C
  H132     1.0000 0.57620  0.81850  0.89100  Biso   1.000  H
  C210     1.0000 0.82110  0.52600  0.99940  Biso   1.000  C
  C211     1.0000 0.80250  0.57119  0.98370  Biso   1.000  C
  C212     1.0000 0.73550  0.58115  0.95750  Biso   1.000  C
  H133     1.0000 0.70010  0.56000  0.94860  Biso   1.000  H
  C213     1.0000 0.71930  0.62250  0.94370  Biso   1.000  C
  H134     1.0000 0.67280  0.62860  0.92570  Biso   1.000  H
  C214     1.0000 0.77030  0.65510  0.95580  Biso   1.000  C
  C215     1.0000 0.83920  0.64390  0.98190  Biso   1.000  C
  H135     1.0000 0.87560  0.66460  0.99020  Biso   1.000  H
  C216     1.0000 0.85490  0.60290  0.99570  Biso   1.000  C
  H136     1.0000 0.90150  0.59630  0.01340  Biso   1.000  H
  Sr9      1.0000 0.69618  0.64982  0.42210  Biso   1.000  Sr
  Sr10     1.0000 0.64857  0.53944  0.46988  Biso   1.000  Sr
  O57      1.0000 0.72570  0.60772  0.50125  Biso   1.000  O
  O58      1.0000 0.70880  0.67596  0.51029  Biso   1.000  O
  O59      1.0000 0.83830  0.64808  0.42380  Biso   1.000  O
  O60      1.0000 0.80900  0.70999  0.44745  Biso   1.000  O
  O61      1.0000 0.14310  0.75350  0.93570  Biso   1.000  O
  O62      1.0000 0.12350  0.79420  0.87560  Biso   1.000  O
  O63      1.0000 0.72790  0.43048  0.91478  Biso   1.000  O
  O64      1.0000 0.70740  0.39570  0.85009  Biso   1.000  O
  O65      1.0000 0.57960  0.61239  0.42981  Biso   1.000  O
  O66      1.0000 0.51430  0.56876  0.46440  Biso   1.000  O
  O67      1.0000 0.59350  0.50509  0.39206  Biso   1.000  O
  H137     1.0000 0.57560  0.49470  0.36590  Biso   1.000  H
  H138     1.0000 0.64030  0.50890  0.39460  Biso   1.000  H
  O68      1.0000 0.56940  0.46994  0.47667  Biso   1.000  O
  H139     1.0000 0.53840  0.47970  0.49190  Biso   1.000  H
  H140     1.0000 0.56700  0.48430  0.45230  Biso   1.000  H
  O69      1.0000 0.26860  0.00074  0.49174  Biso   1.000  O
  O70      1.0000 0.38570  0.98255  0.51750  Biso   1.000  O
  C217     1.0000 0.72710  0.63944  0.52730  Biso   1.000  C
  C218     1.0000 0.75300  0.63458  0.57610  Biso   1.000  C
  C219     1.0000 0.75740  0.66860  0.60580  Biso   1.000  C
  H141     1.0000 0.74310  0.69540  0.59440  Biso   1.000  H
  C220     1.0000 0.78310  0.66330  0.65270  Biso   1.000  C
  H142     1.0000 0.78510  0.68640  0.67220  Biso   1.000  H
  C221     1.0000 0.80550  0.62380  0.67030  Biso   1.000  C
  C222     1.0000 0.80290  0.59010  0.64080  Biso   1.000  C
  H143     1.0000 0.81810  0.56350  0.65230  Biso   1.000  H
  C223     1.0000 0.77770  0.59510  0.59410  Biso   1.000  C
  H144     1.0000 0.77740  0.57210  0.57460  Biso   1.000  H
  C224     1.0000 0.83080  0.61770  0.72010  Biso   1.000  C
  C225     1.0000 0.87780  0.64660  0.74650  Biso   1.000  C
  H145     1.0000 0.89180  0.67100  0.73290  Biso   1.000  H
  C226     1.0000 0.90480  0.63990  0.79320  Biso   1.000  C
  C227     1.0000 0.87890  0.60500  0.81290  Biso   1.000  C
  H146     1.0000 0.89340  0.60110  0.84430  Biso   1.000  H
  C228     1.0000 0.83180  0.57540  0.78730  Biso   1.000  C
  C229     1.0000 0.80810  0.58250  0.74180  Biso   1.000  C
  H147     1.0000 0.77570  0.56310  0.72470  Biso   1.000  H
  C230     1.0000 0.80680  0.53680  0.80940  Biso   1.000  C
  C231     1.0000 0.79720  0.53800  0.85380  Biso   1.000  C
  H148     1.0000 0.80750  0.56290  0.87050  Biso   1.000  H
  C232     1.0000 0.79260  0.49960  0.78610  Biso   1.000  C
  H149     1.0000 0.80210  0.49770  0.75670  Biso   1.000  H
  C233     1.0000 0.76390  0.46410  0.80550  Biso   1.000  C
  H150     1.0000 0.75080  0.43970  0.78840  Biso   1.000  H
  C234     1.0000 0.95540  0.67230  0.82090  Biso   1.000  C
  C235     1.0000 0.96390  0.71150  0.80550  Biso   1.000  C
  H151     1.0000 0.93520  0.71980  0.77760  Biso   1.000  H
  C236     1.0000 0.99910  0.66210  0.86230  Biso   1.000  C
  H152     1.0000 0.99480  0.63530  0.87450  Biso   1.000  H
  C237     1.0000 0.04990  0.69080  0.88650  Biso   1.000  C
  H153     1.0000 0.07980  0.68280  0.91420  Biso   1.000  H
  C238     1.0000 0.85560  0.68490  0.43620  Biso   1.000  C
  C239     1.0000 0.93260  0.70080  0.43590  Biso   1.000  C
  C240     1.0000 0.96340  0.73430  0.46370  Biso   1.000  C
  H154     1.0000 0.93650  0.74690  0.48360  Biso   1.000  H
  C241     1.0000 0.97660  0.68110  0.40900  Biso   1.000  C
  H155     1.0000 0.95780  0.65810  0.39090  Biso   1.000  H
  C242     1.0000 0.11270  0.76130  0.89660  Biso   1.000  C
  C243     1.0000 0.05600  0.72960  0.87030  Biso   1.000  C
  C244     1.0000 0.01440  0.74030  0.82990  Biso   1.000  C
  H156     1.0000 0.01920  0.76710  0.81800  Biso   1.000  H
  C245     1.0000 0.72760  0.42813  0.87290  Biso   1.000  C
  C246     1.0000 0.75560  0.46640  0.85040  Biso   1.000  C
  C247     1.0000 0.77250  0.50281  0.87430  Biso   1.000  C
  H157     1.0000 0.76750  0.50420  0.90460  Biso   1.000  H
  C248     1.0000 0.52130  0.60300  0.44470  Biso   1.000  C
  C249     1.0000 0.45830  0.63518  0.43870  Biso   1.000  C
  C250     1.0000 0.39470  0.62600  0.45570  Biso   1.000  C
  H158     1.0000 0.39000  0.60000  0.46930  Biso   1.000  H
  C251     1.0000 0.33840  0.65570  0.45230  Biso   1.000  C
  H159     1.0000 0.29570  0.64920  0.46360  Biso   1.000  H
  C252     1.0000 0.34380  0.69453  0.43260  Biso   1.000  C
  C253     1.0000 0.40750  0.70310  0.41550  Biso   1.000  C
  H160     1.0000 0.41260  0.72910  0.40190  Biso   1.000  H
  C254     1.0000 0.46370  0.67310  0.41830  Biso   1.000  C
  H161     1.0000 0.50580  0.67910  0.40610  Biso   1.000  H
  C255     1.0000 0.28430  0.72725  0.43280  Biso   1.000  C
  C256     1.0000 0.21020  0.71530  0.43000  Biso   1.000  C
  H162     1.0000 0.19710  0.68710  0.42440  Biso   1.000  H
  C257     1.0000 0.15450  0.74430  0.43530  Biso   1.000  C
  C258     1.0000 0.17560  0.78680  0.44320  Biso   1.000  C
  H163     1.0000 0.13980  0.80660  0.44750  Biso   1.000  H
  C259     1.0000 0.24880  0.79977  0.44490  Biso   1.000  C
  C260     1.0000 0.30350  0.76980  0.43980  Biso   1.000  C
  H164     1.0000 0.35270  0.77840  0.44120  Biso   1.000  H
  C261     1.0000 0.07790  0.72991  0.43460  Biso   1.000  C
  C262     1.0000 0.03400  0.74880  0.46130  Biso   1.000  C
  H165     1.0000 0.05270  0.77240  0.47860  Biso   1.000  H
  C263     1.0000 0.04750  0.69540  0.40890  Biso   1.000  C
  H166     1.0000 0.07620  0.68150  0.39100  Biso   1.000  H
  C264     1.0000 0.32110  0.97400  0.49940  Biso   1.000  C
  C265     1.0000 0.30250  0.92881  0.48370  Biso   1.000  C
  C266     1.0000 0.23550  0.91885  0.45750  Biso   1.000  C
  H167     1.0000 0.20010  0.94000  0.44860  Biso   1.000  H
  C267     1.0000 0.21930  0.87750  0.44370  Biso   1.000  C
  H168     1.0000 0.17280  0.87140  0.42570  Biso   1.000  H
  C268     1.0000 0.27030  0.84490  0.45580  Biso   1.000  C
  C269     1.0000 0.33920  0.85610  0.48190  Biso   1.000  C
  H169     1.0000 0.37560  0.83540  0.49020  Biso   1.000  H
  C270     1.0000 0.35490  0.89710  0.49570  Biso   1.000  C
  H170     1.0000 0.40150  0.90370  0.51340  Biso   1.000  H
  Sr11     1.0000 0.19618  0.14982  0.42210  Biso   1.000  Sr
  Sr12     1.0000 0.14857  0.03944  0.46988  Biso   1.000  Sr
  O71      1.0000 0.22570  0.10772  0.50125  Biso   1.000  O
  O72      1.0000 0.20880  0.17596  0.51029  Biso   1.000  O
  O73      1.0000 0.33830  0.14808  0.42380  Biso   1.000  O
  O74      1.0000 0.30900  0.20999  0.44745  Biso   1.000  O
  O75      1.0000 0.64310  0.25350  0.93570  Biso   1.000  O
  O76      1.0000 0.62350  0.29420  0.87560  Biso   1.000  O
  O77      1.0000 0.22790  0.93048  0.91478  Biso   1.000  O
  O78      1.0000 0.20740  0.89570  0.85009  Biso   1.000  O
  O79      1.0000 0.07960  0.11239  0.42981  Biso   1.000  O
  O80      1.0000 0.01430  0.06876  0.46440  Biso   1.000  O
  O81      1.0000 0.09350  0.00509  0.39206  Biso   1.000  O
  H171     1.0000 0.07560  0.99470  0.36590  Biso   1.000  H
  H172     1.0000 0.14030  0.00890  0.39460  Biso   1.000  H
  O82      1.0000 0.06940  0.96994  0.47667  Biso   1.000  O
  H173     1.0000 0.03840  0.97970  0.49190  Biso   1.000  H
  H174     1.0000 0.06700  0.98430  0.45230  Biso   1.000  H
  O83      1.0000 0.76860  0.50074  0.49174  Biso   1.000  O
  O84      1.0000 0.88570  0.48255  0.51750  Biso   1.000  O
  C271     1.0000 0.22710  0.13944  0.52730  Biso   1.000  C
  C272     1.0000 0.25300  0.13458  0.57610  Biso   1.000  C
  C273     1.0000 0.25740  0.16860  0.60580  Biso   1.000  C
  H175     1.0000 0.24310  0.19540  0.59440  Biso   1.000  H
  C274     1.0000 0.28310  0.16330  0.65270  Biso   1.000  C
  H176     1.0000 0.28510  0.18640  0.67220  Biso   1.000  H
  C275     1.0000 0.30550  0.12380  0.67030  Biso   1.000  C
  C276     1.0000 0.30290  0.09010  0.64080  Biso   1.000  C
  H177     1.0000 0.31810  0.06350  0.65230  Biso   1.000  H
  C277     1.0000 0.27770  0.09510  0.59410  Biso   1.000  C
  H178     1.0000 0.27740  0.07210  0.57460  Biso   1.000  H
  C278     1.0000 0.33080  0.11770  0.72010  Biso   1.000  C
  C279     1.0000 0.37780  0.14660  0.74650  Biso   1.000  C
  H179     1.0000 0.39180  0.17100  0.73290  Biso   1.000  H
  C280     1.0000 0.40480  0.13990  0.79320  Biso   1.000  C
  C281     1.0000 0.37890  0.10500  0.81290  Biso   1.000  C
  H180     1.0000 0.39340  0.10110  0.84430  Biso   1.000  H
  C282     1.0000 0.33180  0.07540  0.78730  Biso   1.000  C
  C283     1.0000 0.30810  0.08250  0.74180  Biso   1.000  C
  H181     1.0000 0.27570  0.06310  0.72470  Biso   1.000  H
  C284     1.0000 0.30680  0.03680  0.80940  Biso   1.000  C
  C285     1.0000 0.29720  0.03800  0.85380  Biso   1.000  C
  H182     1.0000 0.30750  0.06290  0.87050  Biso   1.000  H
  C286     1.0000 0.29260  0.99960  0.78610  Biso   1.000  C
  H183     1.0000 0.30210  0.99770  0.75670  Biso   1.000  H
  C287     1.0000 0.26390  0.96410  0.80550  Biso   1.000  C
  H184     1.0000 0.25080  0.93970  0.78840  Biso   1.000  H
  C288     1.0000 0.45540  0.17230  0.82090  Biso   1.000  C
  C289     1.0000 0.46390  0.21150  0.80550  Biso   1.000  C
  H185     1.0000 0.43520  0.21980  0.77760  Biso   1.000  H
  C290     1.0000 0.49910  0.16210  0.86230  Biso   1.000  C
  H186     1.0000 0.49480  0.13530  0.87450  Biso   1.000  H
  C291     1.0000 0.54990  0.19080  0.88650  Biso   1.000  C
  H187     1.0000 0.57980  0.18280  0.91420  Biso   1.000  H
  C292     1.0000 0.35560  0.18490  0.43620  Biso   1.000  C
  C293     1.0000 0.43260  0.20080  0.43590  Biso   1.000  C
  C294     1.0000 0.46340  0.23430  0.46370  Biso   1.000  C
  H188     1.0000 0.43650  0.24690  0.48360  Biso   1.000  H
  C295     1.0000 0.47660  0.18110  0.40900  Biso   1.000  C
  H189     1.0000 0.45780  0.15810  0.39090  Biso   1.000  H
  C296     1.0000 0.61270  0.26130  0.89660  Biso   1.000  C
  C297     1.0000 0.55600  0.22960  0.87030  Biso   1.000  C
  C298     1.0000 0.51440  0.24030  0.82990  Biso   1.000  C
  H190     1.0000 0.51920  0.26710  0.81800  Biso   1.000  H
  C299     1.0000 0.22760  0.92813  0.87290  Biso   1.000  C
  C300     1.0000 0.25560  0.96640  0.85040  Biso   1.000  C
  C301     1.0000 0.27250  0.00281  0.87430  Biso   1.000  C
  H191     1.0000 0.26750  0.00420  0.90460  Biso   1.000  H
  C302     1.0000 0.02130  0.10300  0.44470  Biso   1.000  C
  C303     1.0000 0.95830  0.13518  0.43870  Biso   1.000  C
  C304     1.0000 0.89470  0.12600  0.45570  Biso   1.000  C
  H192     1.0000 0.89000  0.10000  0.46930  Biso   1.000  H
  C305     1.0000 0.83840  0.15570  0.45230  Biso   1.000  C
  H193     1.0000 0.79570  0.14920  0.46360  Biso   1.000  H
  C306     1.0000 0.84380  0.19453  0.43260  Biso   1.000  C
  C307     1.0000 0.90750  0.20310  0.41550  Biso   1.000  C
  H194     1.0000 0.91260  0.22910  0.40190  Biso   1.000  H
  C308     1.0000 0.96370  0.17310  0.41830  Biso   1.000  C
  H195     1.0000 0.00580  0.17910  0.40610  Biso   1.000  H
  C309     1.0000 0.78430  0.22725  0.43280  Biso   1.000  C
  C310     1.0000 0.71020  0.21530  0.43000  Biso   1.000  C
  H196     1.0000 0.69710  0.18710  0.42440  Biso   1.000  H
  C311     1.0000 0.65450  0.24430  0.43530  Biso   1.000  C
  C312     1.0000 0.67560  0.28680  0.44320  Biso   1.000  C
  H197     1.0000 0.63980  0.30660  0.44750  Biso   1.000  H
  C313     1.0000 0.74880  0.29977  0.44490  Biso   1.000  C
  C314     1.0000 0.80350  0.26980  0.43980  Biso   1.000  C
  H198     1.0000 0.85270  0.27840  0.44120  Biso   1.000  H
  C315     1.0000 0.57790  0.22991  0.43460  Biso   1.000  C
  C316     1.0000 0.53400  0.24880  0.46130  Biso   1.000  C
  H199     1.0000 0.55270  0.27240  0.47860  Biso   1.000  H
  C317     1.0000 0.54750  0.19540  0.40890  Biso   1.000  C
  H200     1.0000 0.57620  0.18150  0.39100  Biso   1.000  H
  C318     1.0000 0.82110  0.47400  0.49940  Biso   1.000  C
  C319     1.0000 0.80250  0.42881  0.48370  Biso   1.000  C
  C320     1.0000 0.73550  0.41885  0.45750  Biso   1.000  C
  H201     1.0000 0.70010  0.44000  0.44860  Biso   1.000  H
  C321     1.0000 0.71930  0.37750  0.44370  Biso   1.000  C
  H202     1.0000 0.67280  0.37140  0.42570  Biso   1.000  H
  C322     1.0000 0.77030  0.34490  0.45580  Biso   1.000  C
  C323     1.0000 0.83920  0.35610  0.48190  Biso   1.000  C
  H203     1.0000 0.87560  0.33540  0.49020  Biso   1.000  H
  C324     1.0000 0.85490  0.39710  0.49570  Biso   1.000  C
  H204     1.0000 0.90150  0.40370  0.51340  Biso   1.000  H
  Sr13     1.0000 0.30382  0.64982  0.07790  Biso   1.000  Sr
  Sr14     1.0000 0.35143  0.53944  0.03012  Biso   1.000  Sr
  O85      1.0000 0.27430  0.60772  0.99875  Biso   1.000  O
  O86      1.0000 0.29120  0.67596  0.98971  Biso   1.000  O
  O87      1.0000 0.16170  0.64808  0.07620  Biso   1.000  O
  O88      1.0000 0.19100  0.70999  0.05255  Biso   1.000  O
  O89      1.0000 0.85690  0.75350  0.56430  Biso   1.000  O
  O90      1.0000 0.87650  0.79420  0.62440  Biso   1.000  O
  O91      1.0000 0.27210  0.43048  0.58522  Biso   1.000  O
  O92      1.0000 0.29260  0.39570  0.64991  Biso   1.000  O
  O93      1.0000 0.42040  0.61239  0.07019  Biso   1.000  O
  O94      1.0000 0.48570  0.56876  0.03560  Biso   1.000  O
  O95      1.0000 0.40650  0.50509  0.10794  Biso   1.000  O
  H205     1.0000 0.42440  0.49470  0.13410  Biso   1.000  H
  H206     1.0000 0.35970  0.50890  0.10540  Biso   1.000  H
  O96      1.0000 0.43060  0.46994  0.02333  Biso   1.000  O
  H207     1.0000 0.46160  0.47970  0.00810  Biso   1.000  H
  H208     1.0000 0.43300  0.48430  0.04770  Biso   1.000  H
  O97      1.0000 0.73140  0.00074  0.00826  Biso   1.000  O
  O98      1.0000 0.61430  0.98255  0.98250  Biso   1.000  O
  C325     1.0000 0.27290  0.63944  0.97270  Biso   1.000  C
  C326     1.0000 0.24700  0.63458  0.92390  Biso   1.000  C
  C327     1.0000 0.24260  0.66860  0.89420  Biso   1.000  C
  H209     1.0000 0.25690  0.69540  0.90560  Biso   1.000  H
  C328     1.0000 0.21690  0.66330  0.84730  Biso   1.000  C
  H210     1.0000 0.21490  0.68640  0.82780  Biso   1.000  H
  C329     1.0000 0.19450  0.62380  0.82970  Biso   1.000  C
  C330     1.0000 0.19710  0.59010  0.85920  Biso   1.000  C
  H211     1.0000 0.18190  0.56350  0.84770  Biso   1.000  H
  C331     1.0000 0.22230  0.59510  0.90590  Biso   1.000  C
  H212     1.0000 0.22260  0.57210  0.92540  Biso   1.000  H
  C332     1.0000 0.16920  0.61770  0.77990  Biso   1.000  C
  C333     1.0000 0.12220  0.64660  0.75350  Biso   1.000  C
  H213     1.0000 0.10820  0.67100  0.76710  Biso   1.000  H
  C334     1.0000 0.09520  0.63990  0.70680  Biso   1.000  C
  C335     1.0000 0.12110  0.60500  0.68710  Biso   1.000  C
  H214     1.0000 0.10660  0.60110  0.65570  Biso   1.000  H
  C336     1.0000 0.16820  0.57540  0.71270  Biso   1.000  C
  C337     1.0000 0.19190  0.58250  0.75820  Biso   1.000  C
  H215     1.0000 0.22430  0.56310  0.77530  Biso   1.000  H
  C338     1.0000 0.19320  0.53680  0.69060  Biso   1.000  C
  C339     1.0000 0.20280  0.53800  0.64620  Biso   1.000  C
  H216     1.0000 0.19250  0.56290  0.62950  Biso   1.000  H
  C340     1.0000 0.20740  0.49960  0.71390  Biso   1.000  C
  H217     1.0000 0.19790  0.49770  0.74330  Biso   1.000  H
  C341     1.0000 0.23610  0.46410  0.69450  Biso   1.000  C
  H218     1.0000 0.24920  0.43970  0.71160  Biso   1.000  H
  C342     1.0000 0.04460  0.67230  0.67910  Biso   1.000  C
  C343     1.0000 0.03610  0.71150  0.69450  Biso   1.000  C
  H219     1.0000 0.06480  0.71980  0.72240  Biso   1.000  H
  C344     1.0000 0.00090  0.66210  0.63770  Biso   1.000  C
  H220     1.0000 0.00520  0.63530  0.62550  Biso   1.000  H
  C345     1.0000 0.95010  0.69080  0.61350  Biso   1.000  C
  H221     1.0000 0.92020  0.68280  0.58580  Biso   1.000  H
  C346     1.0000 0.14440  0.68490  0.06380  Biso   1.000  C
  C347     1.0000 0.06740  0.70080  0.06410  Biso   1.000  C
  C348     1.0000 0.03660  0.73430  0.03630  Biso   1.000  C
  H222     1.0000 0.06350  0.74690  0.01640  Biso   1.000  H
  C349     1.0000 0.02340  0.68110  0.09100  Biso   1.000  C
  H223     1.0000 0.04220  0.65810  0.10910  Biso   1.000  H
  C350     1.0000 0.88730  0.76130  0.60340  Biso   1.000  C
  C351     1.0000 0.94400  0.72960  0.62970  Biso   1.000  C
  C352     1.0000 0.98560  0.74030  0.67010  Biso   1.000  C
  H224     1.0000 0.98080  0.76710  0.68200  Biso   1.000  H
  C353     1.0000 0.27240  0.42813  0.62710  Biso   1.000  C
  C354     1.0000 0.24440  0.46640  0.64960  Biso   1.000  C
  C355     1.0000 0.22750  0.50281  0.62570  Biso   1.000  C
  H225     1.0000 0.23250  0.50420  0.59540  Biso   1.000  H
  C356     1.0000 0.47870  0.60300  0.05530  Biso   1.000  C
  C357     1.0000 0.54170  0.63518  0.06130  Biso   1.000  C
  C358     1.0000 0.60530  0.62600  0.04430  Biso   1.000  C
  H226     1.0000 0.61000  0.60000  0.03070  Biso   1.000  H
  C359     1.0000 0.66160  0.65570  0.04770  Biso   1.000  C
  H227     1.0000 0.70430  0.64920  0.03640  Biso   1.000  H
  C360     1.0000 0.65620  0.69453  0.06740  Biso   1.000  C
  C361     1.0000 0.59250  0.70310  0.08450  Biso   1.000  C
  H228     1.0000 0.58740  0.72910  0.09810  Biso   1.000  H
  C362     1.0000 0.53630  0.67310  0.08170  Biso   1.000  C
  H229     1.0000 0.49420  0.67910  0.09390  Biso   1.000  H
  C363     1.0000 0.71570  0.72725  0.06720  Biso   1.000  C
  C364     1.0000 0.78980  0.71530  0.07000  Biso   1.000  C
  H230     1.0000 0.80290  0.68710  0.07560  Biso   1.000  H
  C365     1.0000 0.84550  0.74430  0.06470  Biso   1.000  C
  C366     1.0000 0.82440  0.78680  0.05680  Biso   1.000  C
  H231     1.0000 0.86020  0.80660  0.05250  Biso   1.000  H
  C367     1.0000 0.75120  0.79977  0.05510  Biso   1.000  C
  C368     1.0000 0.69650  0.76980  0.06020  Biso   1.000  C
  H232     1.0000 0.64730  0.77840  0.05880  Biso   1.000  H
  C369     1.0000 0.92210  0.72991  0.06540  Biso   1.000  C
  C370     1.0000 0.96600  0.74880  0.03870  Biso   1.000  C
  H233     1.0000 0.94730  0.77240  0.02140  Biso   1.000  H
  C371     1.0000 0.95250  0.69540  0.09110  Biso   1.000  C
  H234     1.0000 0.92380  0.68150  0.10900  Biso   1.000  H
  C372     1.0000 0.67890  0.97400  0.00060  Biso   1.000  C
  C373     1.0000 0.69750  0.92881  0.01630  Biso   1.000  C
  C374     1.0000 0.76450  0.91885  0.04250  Biso   1.000  C
  H235     1.0000 0.79990  0.94000  0.05140  Biso   1.000  H
  C375     1.0000 0.78070  0.87750  0.05630  Biso   1.000  C
  H236     1.0000 0.82720  0.87140  0.07430  Biso   1.000  H
  C376     1.0000 0.72970  0.84490  0.04420  Biso   1.000  C
  C377     1.0000 0.66080  0.85610  0.01810  Biso   1.000  C
  H237     1.0000 0.62440  0.83540  0.00980  Biso   1.000  H
  C378     1.0000 0.64510  0.89710  0.00430  Biso   1.000  C
  H238     1.0000 0.59850  0.90370  0.98660  Biso   1.000  H
  Sr15     1.0000 0.80382  0.14982  0.07790  Biso   1.000  Sr
  Sr16     1.0000 0.85143  0.03944  0.03012  Biso   1.000  Sr
  O99      1.0000 0.77430  0.10772  0.99875  Biso   1.000  O
  O100     1.0000 0.79120  0.17596  0.98971  Biso   1.000  O
  O101     1.0000 0.66170  0.14808  0.07620  Biso   1.000  O
  O102     1.0000 0.69100  0.20999  0.05255  Biso   1.000  O
  O103     1.0000 0.35690  0.25350  0.56430  Biso   1.000  O
  O104     1.0000 0.37650  0.29420  0.62440  Biso   1.000  O
  O105     1.0000 0.77210  0.93048  0.58522  Biso   1.000  O
  O106     1.0000 0.79260  0.89570  0.64991  Biso   1.000  O
  O107     1.0000 0.92040  0.11239  0.07019  Biso   1.000  O
  O108     1.0000 0.98570  0.06876  0.03560  Biso   1.000  O
  O109     1.0000 0.90650  0.00509  0.10794  Biso   1.000  O
  H239     1.0000 0.92440  0.99470  0.13410  Biso   1.000  H
  H240     1.0000 0.85970  0.00890  0.10540  Biso   1.000  H
  O110     1.0000 0.93060  0.96994  0.02333  Biso   1.000  O
  H241     1.0000 0.96160  0.97970  0.00810  Biso   1.000  H
  H242     1.0000 0.93300  0.98430  0.04770  Biso   1.000  H
  O111     1.0000 0.23140  0.50074  0.00826  Biso   1.000  O
  O112     1.0000 0.11430  0.48255  0.98250  Biso   1.000  O
  C379     1.0000 0.77290  0.13944  0.97270  Biso   1.000  C
  C380     1.0000 0.74700  0.13458  0.92390  Biso   1.000  C
  C381     1.0000 0.74260  0.16860  0.89420  Biso   1.000  C
  H243     1.0000 0.75690  0.19540  0.90560  Biso   1.000  H
  C382     1.0000 0.71690  0.16330  0.84730  Biso   1.000  C
  H244     1.0000 0.71490  0.18640  0.82780  Biso   1.000  H
  C383     1.0000 0.69450  0.12380  0.82970  Biso   1.000  C
  C384     1.0000 0.69710  0.09010  0.85920  Biso   1.000  C
  H245     1.0000 0.68190  0.06350  0.84770  Biso   1.000  H
  C385     1.0000 0.72230  0.09510  0.90590  Biso   1.000  C
  H246     1.0000 0.72260  0.07210  0.92540  Biso   1.000  H
  C386     1.0000 0.66920  0.11770  0.77990  Biso   1.000  C
  C387     1.0000 0.62220  0.14660  0.75350  Biso   1.000  C
  H247     1.0000 0.60820  0.17100  0.76710  Biso   1.000  H
  C388     1.0000 0.59520  0.13990  0.70680  Biso   1.000  C
  C389     1.0000 0.62110  0.10500  0.68710  Biso   1.000  C
  H248     1.0000 0.60660  0.10110  0.65570  Biso   1.000  H
  C390     1.0000 0.66820  0.07540  0.71270  Biso   1.000  C
  C391     1.0000 0.69190  0.08250  0.75820  Biso   1.000  C
  H249     1.0000 0.72430  0.06310  0.77530  Biso   1.000  H
  C392     1.0000 0.69320  0.03680  0.69060  Biso   1.000  C
  C393     1.0000 0.70280  0.03800  0.64620  Biso   1.000  C
  H250     1.0000 0.69250  0.06290  0.62950  Biso   1.000  H
  C394     1.0000 0.70740  0.99960  0.71390  Biso   1.000  C
  H251     1.0000 0.69790  0.99770  0.74330  Biso   1.000  H
  C395     1.0000 0.73610  0.96410  0.69450  Biso   1.000  C
  H252     1.0000 0.74920  0.93970  0.71160  Biso   1.000  H
  C396     1.0000 0.54460  0.17230  0.67910  Biso   1.000  C
  C397     1.0000 0.53610  0.21150  0.69450  Biso   1.000  C
  H253     1.0000 0.56480  0.21980  0.72240  Biso   1.000  H
  C398     1.0000 0.50090  0.16210  0.63770  Biso   1.000  C
  H254     1.0000 0.50520  0.13530  0.62550  Biso   1.000  H
  C399     1.0000 0.45010  0.19080  0.61350  Biso   1.000  C
  H255     1.0000 0.42020  0.18280  0.58580  Biso   1.000  H
  C400     1.0000 0.64440  0.18490  0.06380  Biso   1.000  C
  C401     1.0000 0.56740  0.20080  0.06410  Biso   1.000  C
  C402     1.0000 0.53660  0.23430  0.03630  Biso   1.000  C
  H256     1.0000 0.56350  0.24690  0.01640  Biso   1.000  H
  C403     1.0000 0.52340  0.18110  0.09100  Biso   1.000  C
  H257     1.0000 0.54220  0.15810  0.10910  Biso   1.000  H
  C404     1.0000 0.38730  0.26130  0.60340  Biso   1.000  C
  C405     1.0000 0.44400  0.22960  0.62970  Biso   1.000  C
  C406     1.0000 0.48560  0.24030  0.67010  Biso   1.000  C
  H258     1.0000 0.48080  0.26710  0.68200  Biso   1.000  H
  C407     1.0000 0.77240  0.92813  0.62710  Biso   1.000  C
  C408     1.0000 0.74440  0.96640  0.64960  Biso   1.000  C
  C409     1.0000 0.72750  0.00281  0.62570  Biso   1.000  C
  H259     1.0000 0.73250  0.00420  0.59540  Biso   1.000  H
  C410     1.0000 0.97870  0.10300  0.05530  Biso   1.000  C
  C411     1.0000 0.04170  0.13518  0.06130  Biso   1.000  C
  C412     1.0000 0.10530  0.12600  0.04430  Biso   1.000  C
  H260     1.0000 0.11000  0.10000  0.03070  Biso   1.000  H
  C413     1.0000 0.16160  0.15570  0.04770  Biso   1.000  C
  H261     1.0000 0.20430  0.14920  0.03640  Biso   1.000  H
  C414     1.0000 0.15620  0.19453  0.06740  Biso   1.000  C
  C415     1.0000 0.09250  0.20310  0.08450  Biso   1.000  C
  H262     1.0000 0.08740  0.22910  0.09810  Biso   1.000  H
  C416     1.0000 0.03630  0.17310  0.08170  Biso   1.000  C
  H263     1.0000 0.99420  0.17910  0.09390  Biso   1.000  H
  C417     1.0000 0.21570  0.22725  0.06720  Biso   1.000  C
  C418     1.0000 0.28980  0.21530  0.07000  Biso   1.000  C
  H264     1.0000 0.30290  0.18710  0.07560  Biso   1.000  H
  C419     1.0000 0.34550  0.24430  0.06470  Biso   1.000  C
  C420     1.0000 0.32440  0.28680  0.05680  Biso   1.000  C
  H265     1.0000 0.36020  0.30660  0.05250  Biso   1.000  H
  C421     1.0000 0.25120  0.29977  0.05510  Biso   1.000  C
  C422     1.0000 0.19650  0.26980  0.06020  Biso   1.000  C
  H266     1.0000 0.14730  0.27840  0.05880  Biso   1.000  H
  C423     1.0000 0.42210  0.22991  0.06540  Biso   1.000  C
  C424     1.0000 0.46600  0.24880  0.03870  Biso   1.000  C
  H267     1.0000 0.44730  0.27240  0.02140  Biso   1.000  H
  C425     1.0000 0.45250  0.19540  0.09110  Biso   1.000  C
  H268     1.0000 0.42380  0.18150  0.10900  Biso   1.000  H
  C426     1.0000 0.17890  0.47400  0.00060  Biso   1.000  C
  C427     1.0000 0.19750  0.42881  0.01630  Biso   1.000  C
  C428     1.0000 0.26450  0.41885  0.04250  Biso   1.000  C
  H269     1.0000 0.29990  0.44000  0.05140  Biso   1.000  H
  C429     1.0000 0.28070  0.37750  0.05630  Biso   1.000  C
  H270     1.0000 0.32720  0.37140  0.07430  Biso   1.000  H
  C430     1.0000 0.22970  0.34490  0.04420  Biso   1.000  C
  C431     1.0000 0.16080  0.35610  0.01810  Biso   1.000  C
  H271     1.0000 0.12440  0.33540  0.00980  Biso   1.000  H
  C432     1.0000 0.14510  0.39710  0.00430  Biso   1.000  C
  H272     1.0000 0.09850  0.40370  0.98660  Biso   1.000  H
  Sr17     1.0000 0.25000  0.25000  0.50000  Biso   1.000  Sr
  Sr18     1.0000 0.75000  0.25000  0.00000  Biso   1.000  Sr
  Sr19     1.0000 0.75000  0.75000  0.50000  Biso   1.000  Sr
  Sr20     1.0000 0.25000  0.75000  0.00000  Biso   1.000  Sr
