data_image0
_cell_length_a       15.571
_cell_length_b       23.296
_cell_length_c       32.328
_cell_angle_alpha    90
_cell_angle_beta     90
_cell_angle_gamma    90

_symmetry_space_group_name_H-M    "P 1"
_symmetry_int_tables_number       1

loop_
  _symmetry_equiv_pos_as_xyz
  'x, y, z'

loop_
  _atom_site_label
  _atom_site_occupancy
  _atom_site_fract_x
  _atom_site_fract_y
  _atom_site_fract_z
  _atom_site_thermal_displace_type
  _atom_site_B_iso_or_equiv
  _atom_site_type_symbol
  Ni1      1.0000 0.13802  0.76046  0.91389  Biso   1.000  Ni
  N1       1.0000 0.10710  0.83610  0.88268  Biso   1.000  N
  N2       1.0000 0.27200  0.98600  0.69652  Biso   1.000  N
  O1       1.0000 0.19280  0.80504  0.96158  Biso   1.000  O
  O2       1.0000 0.32950  0.81665  0.94229  Biso   1.000  O
  O3       1.0000 0.07850  0.93140  0.07709  Biso   1.000  O
  O4       1.0000 0.17770  0.96482  0.11977  Biso   1.000  O
  H1       1.0000 0.27000  0.77600  0.86520  Biso   1.000  H
  C1       1.0000 0.02940  0.84370  0.86580  Biso   1.000  C
  H2       1.0000 0.98810  0.81460  0.86940  Biso   1.000  H
  C2       1.0000 0.00680  0.89120  0.84360  Biso   1.000  C
  H3       1.0000 0.95110  0.89420  0.83260  Biso   1.000  H
  C3       1.0000 0.06530  0.93470  0.83726  Biso   1.000  C
  C4       1.0000 0.14610  0.92820  0.85450  Biso   1.000  C
  H4       1.0000 0.18810  0.95680  0.85120  Biso   1.000  H
  C5       1.0000 0.16440  0.87820  0.87680  Biso   1.000  C
  H5       1.0000 0.21950  0.87400  0.88830  Biso   1.000  H
  C6       1.0000 0.04550  0.98690  0.81090  Biso   1.000  C
  H6       1.0000 0.08880  0.01720  0.81580  Biso   1.000  H
  C7       1.0000 0.03480  0.97640  0.76322  Biso   1.000  C
  H7       1.0000 0.00740  0.93860  0.75860  Biso   1.000  H
  C8       1.0000 0.11440  0.98040  0.73790  Biso   1.000  C
  C9       1.0000 0.14020  0.02900  0.71690  Biso   1.000  C
  H8       1.0000 0.10460  0.06160  0.71650  Biso   1.000  H
  C10      1.0000 0.21810  0.03000  0.69670  Biso   1.000  C
  H9       1.0000 0.23370  0.06340  0.68230  Biso   1.000  H
  C11      1.0000 0.24750  0.93890  0.71620  Biso   1.000  C
  H10      1.0000 0.28480  0.90720  0.71610  Biso   1.000  H
  C12      1.0000 0.17080  0.93370  0.73650  Biso   1.000  C
  H11      1.0000 0.15610  0.89900  0.74950  Biso   1.000  H
  C13      1.0000 0.28050  0.86740  0.00090  Biso   1.000  C
  C14      1.0000 0.36260  0.88670  0.01060  Biso   1.000  C
  H12      1.0000 0.40950  0.87350  0.99490  Biso   1.000  H
  C15      1.0000 0.37680  0.92440  0.04200  Biso   1.000  C
  H13      1.0000 0.43200  0.93970  0.04630  Biso   1.000  H
  C16      1.0000 0.30910  0.94000  0.06770  Biso   1.000  C
  H14      1.0000 0.31950  0.96340  0.09080  Biso   1.000  H
  C17      1.0000 0.22640  0.92120  0.05950  Biso   1.000  C
  C18      1.0000 0.21210  0.88560  0.02560  Biso   1.000  C
  H15      1.0000 0.15600  0.87370  0.01930  Biso   1.000  H
  C19      1.0000 0.26690  0.82600  0.96610  Biso   1.000  C
  C20      1.0000 0.15520  0.94010  0.08750  Biso   1.000  C
  Ni2      1.0000 0.13802  0.26046  0.41389  Biso   1.000  Ni
  N3       1.0000 0.10710  0.33610  0.38268  Biso   1.000  N
  N4       1.0000 0.27200  0.48600  0.19652  Biso   1.000  N
  O5       1.0000 0.19280  0.30504  0.46158  Biso   1.000  O
  O6       1.0000 0.32950  0.31665  0.44229  Biso   1.000  O
  O7       1.0000 0.07850  0.43140  0.57709  Biso   1.000  O
  O8       1.0000 0.17770  0.46482  0.61977  Biso   1.000  O
  H16      1.0000 0.27000  0.27600  0.36520  Biso   1.000  H
  C21      1.0000 0.02940  0.34370  0.36580  Biso   1.000  C
  H17      1.0000 0.98810  0.31460  0.36940  Biso   1.000  H
  C22      1.0000 0.00680  0.39120  0.34360  Biso   1.000  C
  H18      1.0000 0.95110  0.39420  0.33260  Biso   1.000  H
  C23      1.0000 0.06530  0.43470  0.33726  Biso   1.000  C
  C24      1.0000 0.14610  0.42820  0.35450  Biso   1.000  C
  H19      1.0000 0.18810  0.45680  0.35120  Biso   1.000  H
  C25      1.0000 0.16440  0.37820  0.37680  Biso   1.000  C
  H20      1.0000 0.21950  0.37400  0.38830  Biso   1.000  H
  C26      1.0000 0.04550  0.48690  0.31090  Biso   1.000  C
  H21      1.0000 0.08880  0.51720  0.31580  Biso   1.000  H
  C27      1.0000 0.03480  0.47640  0.26322  Biso   1.000  C
  H22      1.0000 0.00740  0.43860  0.25860  Biso   1.000  H
  C28      1.0000 0.11440  0.48040  0.23790  Biso   1.000  C
  C29      1.0000 0.14020  0.52900  0.21690  Biso   1.000  C
  H23      1.0000 0.10460  0.56160  0.21650  Biso   1.000  H
  C30      1.0000 0.21810  0.53000  0.19670  Biso   1.000  C
  H24      1.0000 0.23370  0.56340  0.18230  Biso   1.000  H
  C31      1.0000 0.24750  0.43890  0.21620  Biso   1.000  C
  H25      1.0000 0.28480  0.40720  0.21610  Biso   1.000  H
  C32      1.0000 0.17080  0.43370  0.23650  Biso   1.000  C
  H26      1.0000 0.15610  0.39900  0.24950  Biso   1.000  H
  C33      1.0000 0.28050  0.36740  0.50090  Biso   1.000  C
  C34      1.0000 0.36260  0.38670  0.51060  Biso   1.000  C
  H27      1.0000 0.40950  0.37350  0.49490  Biso   1.000  H
  C35      1.0000 0.37680  0.42440  0.54200  Biso   1.000  C
  H28      1.0000 0.43200  0.43970  0.54630  Biso   1.000  H
  C36      1.0000 0.30910  0.44000  0.56770  Biso   1.000  C
  H29      1.0000 0.31950  0.46340  0.59080  Biso   1.000  H
  C37      1.0000 0.22640  0.42120  0.55950  Biso   1.000  C
  C38      1.0000 0.21210  0.38560  0.52560  Biso   1.000  C
  H30      1.0000 0.15600  0.37370  0.51930  Biso   1.000  H
  C39      1.0000 0.26690  0.32600  0.46610  Biso   1.000  C
  C40      1.0000 0.15520  0.44010  0.58750  Biso   1.000  C
  Ni3      1.0000 0.63802  0.76046  0.41389  Biso   1.000  Ni
  N5       1.0000 0.60710  0.83610  0.38268  Biso   1.000  N
  N6       1.0000 0.77200  0.98600  0.19652  Biso   1.000  N
  O9       1.0000 0.69280  0.80504  0.46158  Biso   1.000  O
  O10      1.0000 0.82950  0.81665  0.44229  Biso   1.000  O
  O11      1.0000 0.57850  0.93140  0.57709  Biso   1.000  O
  O12      1.0000 0.67770  0.96482  0.61977  Biso   1.000  O
  H31      1.0000 0.77000  0.77600  0.36520  Biso   1.000  H
  C41      1.0000 0.52940  0.84370  0.36580  Biso   1.000  C
  H32      1.0000 0.48810  0.81460  0.36940  Biso   1.000  H
  C42      1.0000 0.50680  0.89120  0.34360  Biso   1.000  C
  H33      1.0000 0.45110  0.89420  0.33260  Biso   1.000  H
  C43      1.0000 0.56530  0.93470  0.33726  Biso   1.000  C
  C44      1.0000 0.64610  0.92820  0.35450  Biso   1.000  C
  H34      1.0000 0.68810  0.95680  0.35120  Biso   1.000  H
  C45      1.0000 0.66440  0.87820  0.37680  Biso   1.000  C
  H35      1.0000 0.71950  0.87400  0.38830  Biso   1.000  H
  C46      1.0000 0.54550  0.98690  0.31090  Biso   1.000  C
  H36      1.0000 0.58880  0.01720  0.31580  Biso   1.000  H
  C47      1.0000 0.53480  0.97640  0.26322  Biso   1.000  C
  H37      1.0000 0.50740  0.93860  0.25860  Biso   1.000  H
  C48      1.0000 0.61440  0.98040  0.23790  Biso   1.000  C
  C49      1.0000 0.64020  0.02900  0.21690  Biso   1.000  C
  H38      1.0000 0.60460  0.06160  0.21650  Biso   1.000  H
  C50      1.0000 0.71810  0.03000  0.19670  Biso   1.000  C
  H39      1.0000 0.73370  0.06340  0.18230  Biso   1.000  H
  C51      1.0000 0.74750  0.93890  0.21620  Biso   1.000  C
  H40      1.0000 0.78480  0.90720  0.21610  Biso   1.000  H
  C52      1.0000 0.67080  0.93370  0.23650  Biso   1.000  C
  H41      1.0000 0.65610  0.89900  0.24950  Biso   1.000  H
  C53      1.0000 0.78050  0.86740  0.50090  Biso   1.000  C
  C54      1.0000 0.86260  0.88670  0.51060  Biso   1.000  C
  H42      1.0000 0.90950  0.87350  0.49490  Biso   1.000  H
  C55      1.0000 0.87680  0.92440  0.54200  Biso   1.000  C
  H43      1.0000 0.93200  0.93970  0.54630  Biso   1.000  H
  C56      1.0000 0.80910  0.94000  0.56770  Biso   1.000  C
  H44      1.0000 0.81950  0.96340  0.59080  Biso   1.000  H
  C57      1.0000 0.72640  0.92120  0.55950  Biso   1.000  C
  C58      1.0000 0.71210  0.88560  0.52560  Biso   1.000  C
  H45      1.0000 0.65600  0.87370  0.51930  Biso   1.000  H
  C59      1.0000 0.76690  0.82600  0.46610  Biso   1.000  C
  C60      1.0000 0.65520  0.94010  0.58750  Biso   1.000  C
  Ni4      1.0000 0.63802  0.26046  0.91389  Biso   1.000  Ni
  N7       1.0000 0.60710  0.33610  0.88268  Biso   1.000  N
  N8       1.0000 0.77200  0.48600  0.69652  Biso   1.000  N
  O13      1.0000 0.69280  0.30504  0.96158  Biso   1.000  O
  O14      1.0000 0.82950  0.31665  0.94229  Biso   1.000  O
  O15      1.0000 0.57850  0.43140  0.07709  Biso   1.000  O
  O16      1.0000 0.67770  0.46482  0.11977  Biso   1.000  O
  H46      1.0000 0.77000  0.27600  0.86520  Biso   1.000  H
  C61      1.0000 0.52940  0.34370  0.86580  Biso   1.000  C
  H47      1.0000 0.48810  0.31460  0.86940  Biso   1.000  H
  C62      1.0000 0.50680  0.39120  0.84360  Biso   1.000  C
  H48      1.0000 0.45110  0.39420  0.83260  Biso   1.000  H
  C63      1.0000 0.56530  0.43470  0.83726  Biso   1.000  C
  C64      1.0000 0.64610  0.42820  0.85450  Biso   1.000  C
  H49      1.0000 0.68810  0.45680  0.85120  Biso   1.000  H
  C65      1.0000 0.66440  0.37820  0.87680  Biso   1.000  C
  H50      1.0000 0.71950  0.37400  0.88830  Biso   1.000  H
  C66      1.0000 0.54550  0.48690  0.81090  Biso   1.000  C
  H51      1.0000 0.58880  0.51720  0.81580  Biso   1.000  H
  C67      1.0000 0.53480  0.47640  0.76322  Biso   1.000  C
  H52      1.0000 0.50740  0.43860  0.75860  Biso   1.000  H
  C68      1.0000 0.61440  0.48040  0.73790  Biso   1.000  C
  C69      1.0000 0.64020  0.52900  0.71690  Biso   1.000  C
  H53      1.0000 0.60460  0.56160  0.71650  Biso   1.000  H
  C70      1.0000 0.71810  0.53000  0.69670  Biso   1.000  C
  H54      1.0000 0.73370  0.56340  0.68230  Biso   1.000  H
  C71      1.0000 0.74750  0.43890  0.71620  Biso   1.000  C
  H55      1.0000 0.78480  0.40720  0.71610  Biso   1.000  H
  C72      1.0000 0.67080  0.43370  0.73650  Biso   1.000  C
  H56      1.0000 0.65610  0.39900  0.74950  Biso   1.000  H
  C73      1.0000 0.78050  0.36740  0.00090  Biso   1.000  C
  C74      1.0000 0.86260  0.38670  0.01060  Biso   1.000  C
  H57      1.0000 0.90950  0.37350  0.99490  Biso   1.000  H
  C75      1.0000 0.87680  0.42440  0.04200  Biso   1.000  C
  H58      1.0000 0.93200  0.43970  0.04630  Biso   1.000  H
  C76      1.0000 0.80910  0.44000  0.06770  Biso   1.000  C
  H59      1.0000 0.81950  0.46340  0.09080  Biso   1.000  H
  C77      1.0000 0.72640  0.42120  0.05950  Biso   1.000  C
  C78      1.0000 0.71210  0.38560  0.02560  Biso   1.000  C
  H60      1.0000 0.65600  0.37370  0.01930  Biso   1.000  H
  C79      1.0000 0.76690  0.32600  0.96610  Biso   1.000  C
  C80      1.0000 0.65520  0.44010  0.08750  Biso   1.000  C
  Ni5      1.0000 0.86198  0.23954  0.91389  Biso   1.000  Ni
  N9       1.0000 0.89290  0.16390  0.88268  Biso   1.000  N
  N10      1.0000 0.72800  0.01400  0.69652  Biso   1.000  N
  O17      1.0000 0.80720  0.19496  0.96158  Biso   1.000  O
  O18      1.0000 0.67050  0.18335  0.94229  Biso   1.000  O
  O19      1.0000 0.92150  0.06860  0.07709  Biso   1.000  O
  O20      1.0000 0.82230  0.03518  0.11977  Biso   1.000  O
  H61      1.0000 0.73000  0.22400  0.86520  Biso   1.000  H
  C81      1.0000 0.97060  0.15630  0.86580  Biso   1.000  C
  H62      1.0000 0.01190  0.18540  0.86940  Biso   1.000  H
  C82      1.0000 0.99320  0.10880  0.84360  Biso   1.000  C
  H63      1.0000 0.04890  0.10580  0.83260  Biso   1.000  H
  C83      1.0000 0.93470  0.06530  0.83726  Biso   1.000  C
  C84      1.0000 0.85390  0.07180  0.85450  Biso   1.000  C
  H64      1.0000 0.81190  0.04320  0.85120  Biso   1.000  H
  C85      1.0000 0.83560  0.12180  0.87680  Biso   1.000  C
  H65      1.0000 0.78050  0.12600  0.88830  Biso   1.000  H
  C86      1.0000 0.95450  0.01310  0.81090  Biso   1.000  C
  H66      1.0000 0.91120  0.98280  0.81580  Biso   1.000  H
  C87      1.0000 0.96520  0.02360  0.76322  Biso   1.000  C
  H67      1.0000 0.99260  0.06140  0.75860  Biso   1.000  H
  C88      1.0000 0.88560  0.01960  0.73790  Biso   1.000  C
  C89      1.0000 0.85980  0.97100  0.71690  Biso   1.000  C
  H68      1.0000 0.89540  0.93840  0.71650  Biso   1.000  H
  C90      1.0000 0.78190  0.97000  0.69670  Biso   1.000  C
  H69      1.0000 0.76630  0.93660  0.68230  Biso   1.000  H
  C91      1.0000 0.75250  0.06110  0.71620  Biso   1.000  C
  H70      1.0000 0.71520  0.09280  0.71610  Biso   1.000  H
  C92      1.0000 0.82920  0.06630  0.73650  Biso   1.000  C
  H71      1.0000 0.84390  0.10100  0.74950  Biso   1.000  H
  C93      1.0000 0.71950  0.13260  0.00090  Biso   1.000  C
  C94      1.0000 0.63740  0.11330  0.01060  Biso   1.000  C
  H72      1.0000 0.59050  0.12650  0.99490  Biso   1.000  H
  C95      1.0000 0.62320  0.07560  0.04200  Biso   1.000  C
  H73      1.0000 0.56800  0.06030  0.04630  Biso   1.000  H
  C96      1.0000 0.69090  0.06000  0.06770  Biso   1.000  C
  H74      1.0000 0.68050  0.03660  0.09080  Biso   1.000  H
  C97      1.0000 0.77360  0.07880  0.05950  Biso   1.000  C
  C98      1.0000 0.78790  0.11440  0.02560  Biso   1.000  C
  H75      1.0000 0.84400  0.12630  0.01930  Biso   1.000  H
  C99      1.0000 0.73310  0.17400  0.96610  Biso   1.000  C
  C100     1.0000 0.84480  0.05990  0.08750  Biso   1.000  C
  Ni6      1.0000 0.86198  0.73954  0.41389  Biso   1.000  Ni
  N11      1.0000 0.89290  0.66390  0.38268  Biso   1.000  N
  N12      1.0000 0.72800  0.51400  0.19652  Biso   1.000  N
  O21      1.0000 0.80720  0.69496  0.46158  Biso   1.000  O
  O22      1.0000 0.67050  0.68335  0.44229  Biso   1.000  O
  O23      1.0000 0.92150  0.56860  0.57709  Biso   1.000  O
  O24      1.0000 0.82230  0.53518  0.61977  Biso   1.000  O
  H76      1.0000 0.73000  0.72400  0.36520  Biso   1.000  H
  C101     1.0000 0.97060  0.65630  0.36580  Biso   1.000  C
  H77      1.0000 0.01190  0.68540  0.36940  Biso   1.000  H
  C102     1.0000 0.99320  0.60880  0.34360  Biso   1.000  C
  H78      1.0000 0.04890  0.60580  0.33260  Biso   1.000  H
  C103     1.0000 0.93470  0.56530  0.33726  Biso   1.000  C
  C104     1.0000 0.85390  0.57180  0.35450  Biso   1.000  C
  H79      1.0000 0.81190  0.54320  0.35120  Biso   1.000  H
  C105     1.0000 0.83560  0.62180  0.37680  Biso   1.000  C
  H80      1.0000 0.78050  0.62600  0.38830  Biso   1.000  H
  C106     1.0000 0.95450  0.51310  0.31090  Biso   1.000  C
  H81      1.0000 0.91120  0.48280  0.31580  Biso   1.000  H
  C107     1.0000 0.96520  0.52360  0.26322  Biso   1.000  C
  H82      1.0000 0.99260  0.56140  0.25860  Biso   1.000  H
  C108     1.0000 0.88560  0.51960  0.23790  Biso   1.000  C
  C109     1.0000 0.85980  0.47100  0.21690  Biso   1.000  C
  H83      1.0000 0.89540  0.43840  0.21650  Biso   1.000  H
  C110     1.0000 0.78190  0.47000  0.19670  Biso   1.000  C
  H84      1.0000 0.76630  0.43660  0.18230  Biso   1.000  H
  C111     1.0000 0.75250  0.56110  0.21620  Biso   1.000  C
  H85      1.0000 0.71520  0.59280  0.21610  Biso   1.000  H
  C112     1.0000 0.82920  0.56630  0.23650  Biso   1.000  C
  H86      1.0000 0.84390  0.60100  0.24950  Biso   1.000  H
  C113     1.0000 0.71950  0.63260  0.50090  Biso   1.000  C
  C114     1.0000 0.63740  0.61330  0.51060  Biso   1.000  C
  H87      1.0000 0.59050  0.62650  0.49490  Biso   1.000  H
  C115     1.0000 0.62320  0.57560  0.54200  Biso   1.000  C
  H88      1.0000 0.56800  0.56030  0.54630  Biso   1.000  H
  C116     1.0000 0.69090  0.56000  0.56770  Biso   1.000  C
  H89      1.0000 0.68050  0.53660  0.59080  Biso   1.000  H
  C117     1.0000 0.77360  0.57880  0.55950  Biso   1.000  C
  C118     1.0000 0.78790  0.61440  0.52560  Biso   1.000  C
  H90      1.0000 0.84400  0.62630  0.51930  Biso   1.000  H
  C119     1.0000 0.73310  0.67400  0.46610  Biso   1.000  C
  C120     1.0000 0.84480  0.55990  0.58750  Biso   1.000  C
  Ni7      1.0000 0.36198  0.23954  0.41389  Biso   1.000  Ni
  N13      1.0000 0.39290  0.16390  0.38268  Biso   1.000  N
  N14      1.0000 0.22800  0.01400  0.19652  Biso   1.000  N
  O25      1.0000 0.30720  0.19496  0.46158  Biso   1.000  O
  O26      1.0000 0.17050  0.18335  0.44229  Biso   1.000  O
  O27      1.0000 0.42150  0.06860  0.57709  Biso   1.000  O
  O28      1.0000 0.32230  0.03518  0.61977  Biso   1.000  O
  H91      1.0000 0.23000  0.22400  0.36520  Biso   1.000  H
  C121     1.0000 0.47060  0.15630  0.36580  Biso   1.000  C
  H92      1.0000 0.51190  0.18540  0.36940  Biso   1.000  H
  C122     1.0000 0.49320  0.10880  0.34360  Biso   1.000  C
  H93      1.0000 0.54890  0.10580  0.33260  Biso   1.000  H
  C123     1.0000 0.43470  0.06530  0.33726  Biso   1.000  C
  C124     1.0000 0.35390  0.07180  0.35450  Biso   1.000  C
  H94      1.0000 0.31190  0.04320  0.35120  Biso   1.000  H
  C125     1.0000 0.33560  0.12180  0.37680  Biso   1.000  C
  H95      1.0000 0.28050  0.12600  0.38830  Biso   1.000  H
  C126     1.0000 0.45450  0.01310  0.31090  Biso   1.000  C
  H96      1.0000 0.41120  0.98280  0.31580  Biso   1.000  H
  C127     1.0000 0.46520  0.02360  0.26322  Biso   1.000  C
  H97      1.0000 0.49260  0.06140  0.25860  Biso   1.000  H
  C128     1.0000 0.38560  0.01960  0.23790  Biso   1.000  C
  C129     1.0000 0.35980  0.97100  0.21690  Biso   1.000  C
  H98      1.0000 0.39540  0.93840  0.21650  Biso   1.000  H
  C130     1.0000 0.28190  0.97000  0.19670  Biso   1.000  C
  H99      1.0000 0.26630  0.93660  0.18230  Biso   1.000  H
  C131     1.0000 0.25250  0.06110  0.21620  Biso   1.000  C
  H100     1.0000 0.21520  0.09280  0.21610  Biso   1.000  H
  C132     1.0000 0.32920  0.06630  0.23650  Biso   1.000  C
  H101     1.0000 0.34390  0.10100  0.24950  Biso   1.000  H
  C133     1.0000 0.21950  0.13260  0.50090  Biso   1.000  C
  C134     1.0000 0.13740  0.11330  0.51060  Biso   1.000  C
  H102     1.0000 0.09050  0.12650  0.49490  Biso   1.000  H
  C135     1.0000 0.12320  0.07560  0.54200  Biso   1.000  C
  H103     1.0000 0.06800  0.06030  0.54630  Biso   1.000  H
  C136     1.0000 0.19090  0.06000  0.56770  Biso   1.000  C
  H104     1.0000 0.18050  0.03660  0.59080  Biso   1.000  H
  C137     1.0000 0.27360  0.07880  0.55950  Biso   1.000  C
  C138     1.0000 0.28790  0.11440  0.52560  Biso   1.000  C
  H105     1.0000 0.34400  0.12630  0.51930  Biso   1.000  H
  C139     1.0000 0.23310  0.17400  0.46610  Biso   1.000  C
  C140     1.0000 0.34480  0.05990  0.58750  Biso   1.000  C
  Ni8      1.0000 0.36198  0.73954  0.91389  Biso   1.000  Ni
  N15      1.0000 0.39290  0.66390  0.88268  Biso   1.000  N
  N16      1.0000 0.22800  0.51400  0.69652  Biso   1.000  N
  O29      1.0000 0.30720  0.69496  0.96158  Biso   1.000  O
  O30      1.0000 0.17050  0.68335  0.94229  Biso   1.000  O
  O31      1.0000 0.42150  0.56860  0.07709  Biso   1.000  O
  O32      1.0000 0.32230  0.53518  0.11977  Biso   1.000  O
  H106     1.0000 0.23000  0.72400  0.86520  Biso   1.000  H
  C141     1.0000 0.47060  0.65630  0.86580  Biso   1.000  C
  H107     1.0000 0.51190  0.68540  0.86940  Biso   1.000  H
  C142     1.0000 0.49320  0.60880  0.84360  Biso   1.000  C
  H108     1.0000 0.54890  0.60580  0.83260  Biso   1.000  H
  C143     1.0000 0.43470  0.56530  0.83726  Biso   1.000  C
  C144     1.0000 0.35390  0.57180  0.85450  Biso   1.000  C
  H109     1.0000 0.31190  0.54320  0.85120  Biso   1.000  H
  C145     1.0000 0.33560  0.62180  0.87680  Biso   1.000  C
  H110     1.0000 0.28050  0.62600  0.88830  Biso   1.000  H
  C146     1.0000 0.45450  0.51310  0.81090  Biso   1.000  C
  H111     1.0000 0.41120  0.48280  0.81580  Biso   1.000  H
  C147     1.0000 0.46520  0.52360  0.76322  Biso   1.000  C
  H112     1.0000 0.49260  0.56140  0.75860  Biso   1.000  H
  C148     1.0000 0.38560  0.51960  0.73790  Biso   1.000  C
  C149     1.0000 0.35980  0.47100  0.71690  Biso   1.000  C
  H113     1.0000 0.39540  0.43840  0.71650  Biso   1.000  H
  C150     1.0000 0.28190  0.47000  0.69670  Biso   1.000  C
  H114     1.0000 0.26630  0.43660  0.68230  Biso   1.000  H
  C151     1.0000 0.25250  0.56110  0.71620  Biso   1.000  C
  H115     1.0000 0.21520  0.59280  0.71610  Biso   1.000  H
  C152     1.0000 0.32920  0.56630  0.73650  Biso   1.000  C
  H116     1.0000 0.34390  0.60100  0.74950  Biso   1.000  H
  C153     1.0000 0.21950  0.63260  0.00090  Biso   1.000  C
  C154     1.0000 0.13740  0.61330  0.01060  Biso   1.000  C
  H117     1.0000 0.09050  0.62650  0.99490  Biso   1.000  H
  C155     1.0000 0.12320  0.57560  0.04200  Biso   1.000  C
  H118     1.0000 0.06800  0.56030  0.04630  Biso   1.000  H
  C156     1.0000 0.19090  0.56000  0.06770  Biso   1.000  C
  H119     1.0000 0.18050  0.53660  0.09080  Biso   1.000  H
  C157     1.0000 0.27360  0.57880  0.05950  Biso   1.000  C
  C158     1.0000 0.28790  0.61440  0.02560  Biso   1.000  C
  H120     1.0000 0.34400  0.62630  0.01930  Biso   1.000  H
  C159     1.0000 0.23310  0.67400  0.96610  Biso   1.000  C
  C160     1.0000 0.34480  0.55990  0.08750  Biso   1.000  C
  Ni9      1.0000 0.38802  0.48954  0.16389  Biso   1.000  Ni
  N17      1.0000 0.35710  0.41390  0.13268  Biso   1.000  N
  N18      1.0000 0.52200  0.26400  0.94652  Biso   1.000  N
  O33      1.0000 0.44280  0.44496  0.21158  Biso   1.000  O
  O34      1.0000 0.57950  0.43335  0.19229  Biso   1.000  O
  O35      1.0000 0.32850  0.31860  0.32709  Biso   1.000  O
  O36      1.0000 0.42770  0.28518  0.36977  Biso   1.000  O
  H121     1.0000 0.52000  0.47400  0.11520  Biso   1.000  H
  C161     1.0000 0.27940  0.40630  0.11580  Biso   1.000  C
  H122     1.0000 0.23810  0.43540  0.11940  Biso   1.000  H
  C162     1.0000 0.25680  0.35880  0.09360  Biso   1.000  C
  H123     1.0000 0.20110  0.35580  0.08260  Biso   1.000  H
  C163     1.0000 0.31530  0.31530  0.08726  Biso   1.000  C
  C164     1.0000 0.39610  0.32180  0.10450  Biso   1.000  C
  H124     1.0000 0.43810  0.29320  0.10120  Biso   1.000  H
  C165     1.0000 0.41440  0.37180  0.12680  Biso   1.000  C
  H125     1.0000 0.46950  0.37600  0.13830  Biso   1.000  H
  C166     1.0000 0.29550  0.26310  0.06090  Biso   1.000  C
  H126     1.0000 0.33880  0.23280  0.06580  Biso   1.000  H
  C167     1.0000 0.28480  0.27360  0.01322  Biso   1.000  C
  H127     1.0000 0.25740  0.31140  0.00860  Biso   1.000  H
  C168     1.0000 0.36440  0.26960  0.98790  Biso   1.000  C
  C169     1.0000 0.39020  0.22100  0.96690  Biso   1.000  C
  H128     1.0000 0.35460  0.18840  0.96650  Biso   1.000  H
  C170     1.0000 0.46810  0.22000  0.94670  Biso   1.000  C
  H129     1.0000 0.48370  0.18660  0.93230  Biso   1.000  H
  C171     1.0000 0.49750  0.31110  0.96620  Biso   1.000  C
  H130     1.0000 0.53480  0.34280  0.96610  Biso   1.000  H
  C172     1.0000 0.42080  0.31630  0.98650  Biso   1.000  C
  H131     1.0000 0.40610  0.35100  0.99950  Biso   1.000  H
  C173     1.0000 0.53050  0.38260  0.25090  Biso   1.000  C
  C174     1.0000 0.61260  0.36330  0.26060  Biso   1.000  C
  H132     1.0000 0.65950  0.37650  0.24490  Biso   1.000  H
  C175     1.0000 0.62680  0.32560  0.29200  Biso   1.000  C
  H133     1.0000 0.68200  0.31030  0.29630  Biso   1.000  H
  C176     1.0000 0.55910  0.31000  0.31770  Biso   1.000  C
  H134     1.0000 0.56950  0.28660  0.34080  Biso   1.000  H
  C177     1.0000 0.47640  0.32880  0.30950  Biso   1.000  C
  C178     1.0000 0.46210  0.36440  0.27560  Biso   1.000  C
  H135     1.0000 0.40600  0.37630  0.26930  Biso   1.000  H
  C179     1.0000 0.51690  0.42400  0.21610  Biso   1.000  C
  C180     1.0000 0.40520  0.30990  0.33750  Biso   1.000  C
  Ni10     1.0000 0.38802  0.98954  0.66389  Biso   1.000  Ni
  N19      1.0000 0.35710  0.91390  0.63268  Biso   1.000  N
  N20      1.0000 0.52200  0.76400  0.44652  Biso   1.000  N
  O37      1.0000 0.44280  0.94496  0.71158  Biso   1.000  O
  O38      1.0000 0.57950  0.93335  0.69229  Biso   1.000  O
  O39      1.0000 0.32850  0.81860  0.82709  Biso   1.000  O
  O40      1.0000 0.42770  0.78518  0.86977  Biso   1.000  O
  H136     1.0000 0.52000  0.97400  0.61520  Biso   1.000  H
  C181     1.0000 0.27940  0.90630  0.61580  Biso   1.000  C
  H137     1.0000 0.23810  0.93540  0.61940  Biso   1.000  H
  C182     1.0000 0.25680  0.85880  0.59360  Biso   1.000  C
  H138     1.0000 0.20110  0.85580  0.58260  Biso   1.000  H
  C183     1.0000 0.31530  0.81530  0.58726  Biso   1.000  C
  C184     1.0000 0.39610  0.82180  0.60450  Biso   1.000  C
  H139     1.0000 0.43810  0.79320  0.60120  Biso   1.000  H
  C185     1.0000 0.41440  0.87180  0.62680  Biso   1.000  C
  H140     1.0000 0.46950  0.87600  0.63830  Biso   1.000  H
  C186     1.0000 0.29550  0.76310  0.56090  Biso   1.000  C
  H141     1.0000 0.33880  0.73280  0.56580  Biso   1.000  H
  C187     1.0000 0.28480  0.77360  0.51322  Biso   1.000  C
  H142     1.0000 0.25740  0.81140  0.50860  Biso   1.000  H
  C188     1.0000 0.36440  0.76960  0.48790  Biso   1.000  C
  C189     1.0000 0.39020  0.72100  0.46690  Biso   1.000  C
  H143     1.0000 0.35460  0.68840  0.46650  Biso   1.000  H
  C190     1.0000 0.46810  0.72000  0.44670  Biso   1.000  C
  H144     1.0000 0.48370  0.68660  0.43230  Biso   1.000  H
  C191     1.0000 0.49750  0.81110  0.46620  Biso   1.000  C
  H145     1.0000 0.53480  0.84280  0.46610  Biso   1.000  H
  C192     1.0000 0.42080  0.81630  0.48650  Biso   1.000  C
  H146     1.0000 0.40610  0.85100  0.49950  Biso   1.000  H
  C193     1.0000 0.53050  0.88260  0.75090  Biso   1.000  C
  C194     1.0000 0.61260  0.86330  0.76060  Biso   1.000  C
  H147     1.0000 0.65950  0.87650  0.74490  Biso   1.000  H
  C195     1.0000 0.62680  0.82560  0.79200  Biso   1.000  C
  H148     1.0000 0.68200  0.81030  0.79630  Biso   1.000  H
  C196     1.0000 0.55910  0.81000  0.81770  Biso   1.000  C
  H149     1.0000 0.56950  0.78660  0.84080  Biso   1.000  H
  C197     1.0000 0.47640  0.82880  0.80950  Biso   1.000  C
  C198     1.0000 0.46210  0.86440  0.77560  Biso   1.000  C
  H150     1.0000 0.40600  0.87630  0.76930  Biso   1.000  H
  C199     1.0000 0.51690  0.92400  0.71610  Biso   1.000  C
  C200     1.0000 0.40520  0.80990  0.83750  Biso   1.000  C
  Ni11     1.0000 0.88802  0.48954  0.66389  Biso   1.000  Ni
  N21      1.0000 0.85710  0.41390  0.63268  Biso   1.000  N
  N22      1.0000 0.02200  0.26400  0.44652  Biso   1.000  N
  O41      1.0000 0.94280  0.44496  0.71158  Biso   1.000  O
  O42      1.0000 0.07950  0.43335  0.69229  Biso   1.000  O
  O43      1.0000 0.82850  0.31860  0.82709  Biso   1.000  O
  O44      1.0000 0.92770  0.28518  0.86977  Biso   1.000  O
  H151     1.0000 0.02000  0.47400  0.61520  Biso   1.000  H
  C201     1.0000 0.77940  0.40630  0.61580  Biso   1.000  C
  H152     1.0000 0.73810  0.43540  0.61940  Biso   1.000  H
  C202     1.0000 0.75680  0.35880  0.59360  Biso   1.000  C
  H153     1.0000 0.70110  0.35580  0.58260  Biso   1.000  H
  C203     1.0000 0.81530  0.31530  0.58726  Biso   1.000  C
  C204     1.0000 0.89610  0.32180  0.60450  Biso   1.000  C
  H154     1.0000 0.93810  0.29320  0.60120  Biso   1.000  H
  C205     1.0000 0.91440  0.37180  0.62680  Biso   1.000  C
  H155     1.0000 0.96950  0.37600  0.63830  Biso   1.000  H
  C206     1.0000 0.79550  0.26310  0.56090  Biso   1.000  C
  H156     1.0000 0.83880  0.23280  0.56580  Biso   1.000  H
  C207     1.0000 0.78480  0.27360  0.51322  Biso   1.000  C
  H157     1.0000 0.75740  0.31140  0.50860  Biso   1.000  H
  C208     1.0000 0.86440  0.26960  0.48790  Biso   1.000  C
  C209     1.0000 0.89020  0.22100  0.46690  Biso   1.000  C
  H158     1.0000 0.85460  0.18840  0.46650  Biso   1.000  H
  C210     1.0000 0.96810  0.22000  0.44670  Biso   1.000  C
  H159     1.0000 0.98370  0.18660  0.43230  Biso   1.000  H
  C211     1.0000 0.99750  0.31110  0.46620  Biso   1.000  C
  H160     1.0000 0.03480  0.34280  0.46610  Biso   1.000  H
  C212     1.0000 0.92080  0.31630  0.48650  Biso   1.000  C
  H161     1.0000 0.90610  0.35100  0.49950  Biso   1.000  H
  C213     1.0000 0.03050  0.38260  0.75090  Biso   1.000  C
  C214     1.0000 0.11260  0.36330  0.76060  Biso   1.000  C
  H162     1.0000 0.15950  0.37650  0.74490  Biso   1.000  H
  C215     1.0000 0.12680  0.32560  0.79200  Biso   1.000  C
  H163     1.0000 0.18200  0.31030  0.79630  Biso   1.000  H
  C216     1.0000 0.05910  0.31000  0.81770  Biso   1.000  C
  H164     1.0000 0.06950  0.28660  0.84080  Biso   1.000  H
  C217     1.0000 0.97640  0.32880  0.80950  Biso   1.000  C
  C218     1.0000 0.96210  0.36440  0.77560  Biso   1.000  C
  H165     1.0000 0.90600  0.37630  0.76930  Biso   1.000  H
  C219     1.0000 0.01690  0.42400  0.71610  Biso   1.000  C
  C220     1.0000 0.90520  0.30990  0.83750  Biso   1.000  C
  Ni12     1.0000 0.88802  0.98954  0.16389  Biso   1.000  Ni
  N23      1.0000 0.85710  0.91390  0.13268  Biso   1.000  N
  N24      1.0000 0.02200  0.76400  0.94652  Biso   1.000  N
  O45      1.0000 0.94280  0.94496  0.21158  Biso   1.000  O
  O46      1.0000 0.07950  0.93335  0.19229  Biso   1.000  O
  O47      1.0000 0.82850  0.81860  0.32709  Biso   1.000  O
  O48      1.0000 0.92770  0.78518  0.36977  Biso   1.000  O
  H166     1.0000 0.02000  0.97400  0.11520  Biso   1.000  H
  C221     1.0000 0.77940  0.90630  0.11580  Biso   1.000  C
  H167     1.0000 0.73810  0.93540  0.11940  Biso   1.000  H
  C222     1.0000 0.75680  0.85880  0.09360  Biso   1.000  C
  H168     1.0000 0.70110  0.85580  0.08260  Biso   1.000  H
  C223     1.0000 0.81530  0.81530  0.08726  Biso   1.000  C
  C224     1.0000 0.89610  0.82180  0.10450  Biso   1.000  C
  H169     1.0000 0.93810  0.79320  0.10120  Biso   1.000  H
  C225     1.0000 0.91440  0.87180  0.12680  Biso   1.000  C
  H170     1.0000 0.96950  0.87600  0.13830  Biso   1.000  H
  C226     1.0000 0.79550  0.76310  0.06090  Biso   1.000  C
  H171     1.0000 0.83880  0.73280  0.06580  Biso   1.000  H
  C227     1.0000 0.78480  0.77360  0.01322  Biso   1.000  C
  H172     1.0000 0.75740  0.81140  0.00860  Biso   1.000  H
  C228     1.0000 0.86440  0.76960  0.98790  Biso   1.000  C
  C229     1.0000 0.89020  0.72100  0.96690  Biso   1.000  C
  H173     1.0000 0.85460  0.68840  0.96650  Biso   1.000  H
  C230     1.0000 0.96810  0.72000  0.94670  Biso   1.000  C
  H174     1.0000 0.98370  0.68660  0.93230  Biso   1.000  H
  C231     1.0000 0.99750  0.81110  0.96620  Biso   1.000  C
  H175     1.0000 0.03480  0.84280  0.96610  Biso   1.000  H
  C232     1.0000 0.92080  0.81630  0.98650  Biso   1.000  C
  H176     1.0000 0.90610  0.85100  0.99950  Biso   1.000  H
  C233     1.0000 0.03050  0.88260  0.25090  Biso   1.000  C
  C234     1.0000 0.11260  0.86330  0.26060  Biso   1.000  C
  H177     1.0000 0.15950  0.87650  0.24490  Biso   1.000  H
  C235     1.0000 0.12680  0.82560  0.29200  Biso   1.000  C
  H178     1.0000 0.18200  0.81030  0.29630  Biso   1.000  H
  C236     1.0000 0.05910  0.81000  0.31770  Biso   1.000  C
  H179     1.0000 0.06950  0.78660  0.34080  Biso   1.000  H
  C237     1.0000 0.97640  0.82880  0.30950  Biso   1.000  C
  C238     1.0000 0.96210  0.86440  0.27560  Biso   1.000  C
  H180     1.0000 0.90600  0.87630  0.26930  Biso   1.000  H
  C239     1.0000 0.01690  0.92400  0.21610  Biso   1.000  C
  C240     1.0000 0.90520  0.80990  0.33750  Biso   1.000  C
  Ni13     1.0000 0.11198  0.01046  0.16389  Biso   1.000  Ni
  N25      1.0000 0.14290  0.08610  0.13268  Biso   1.000  N
  N26      1.0000 0.97800  0.23600  0.94652  Biso   1.000  N
  O49      1.0000 0.05720  0.05504  0.21158  Biso   1.000  O
  O50      1.0000 0.92050  0.06665  0.19229  Biso   1.000  O
  O51      1.0000 0.17150  0.18140  0.32709  Biso   1.000  O
  O52      1.0000 0.07230  0.21482  0.36977  Biso   1.000  O
  H181     1.0000 0.98000  0.02600  0.11520  Biso   1.000  H
  C241     1.0000 0.22060  0.09370  0.11580  Biso   1.000  C
  H182     1.0000 0.26190  0.06460  0.11940  Biso   1.000  H
  C242     1.0000 0.24320  0.14120  0.09360  Biso   1.000  C
  H183     1.0000 0.29890  0.14420  0.08260  Biso   1.000  H
  C243     1.0000 0.18470  0.18470  0.08726  Biso   1.000  C
  C244     1.0000 0.10390  0.17820  0.10450  Biso   1.000  C
  H184     1.0000 0.06190  0.20680  0.10120  Biso   1.000  H
  C245     1.0000 0.08560  0.12820  0.12680  Biso   1.000  C
  H185     1.0000 0.03050  0.12400  0.13830  Biso   1.000  H
  C246     1.0000 0.20450  0.23690  0.06090  Biso   1.000  C
  H186     1.0000 0.16120  0.26720  0.06580  Biso   1.000  H
  C247     1.0000 0.21520  0.22640  0.01322  Biso   1.000  C
  H187     1.0000 0.24260  0.18860  0.00860  Biso   1.000  H
  C248     1.0000 0.13560  0.23040  0.98790  Biso   1.000  C
  C249     1.0000 0.10980  0.27900  0.96690  Biso   1.000  C
  H188     1.0000 0.14540  0.31160  0.96650  Biso   1.000  H
  C250     1.0000 0.03190  0.28000  0.94670  Biso   1.000  C
  H189     1.0000 0.01630  0.31340  0.93230  Biso   1.000  H
  C251     1.0000 0.00250  0.18890  0.96620  Biso   1.000  C
  H190     1.0000 0.96520  0.15720  0.96610  Biso   1.000  H
  C252     1.0000 0.07920  0.18370  0.98650  Biso   1.000  C
  H191     1.0000 0.09390  0.14900  0.99950  Biso   1.000  H
  C253     1.0000 0.96950  0.11740  0.25090  Biso   1.000  C
  C254     1.0000 0.88740  0.13670  0.26060  Biso   1.000  C
  H192     1.0000 0.84050  0.12350  0.24490  Biso   1.000  H
  C255     1.0000 0.87320  0.17440  0.29200  Biso   1.000  C
  H193     1.0000 0.81800  0.18970  0.29630  Biso   1.000  H
  C256     1.0000 0.94090  0.19000  0.31770  Biso   1.000  C
  H194     1.0000 0.93050  0.21340  0.34080  Biso   1.000  H
  C257     1.0000 0.02360  0.17120  0.30950  Biso   1.000  C
  C258     1.0000 0.03790  0.13560  0.27560  Biso   1.000  C
  H195     1.0000 0.09400  0.12370  0.26930  Biso   1.000  H
  C259     1.0000 0.98310  0.07600  0.21610  Biso   1.000  C
  C260     1.0000 0.09480  0.19010  0.33750  Biso   1.000  C
  Ni14     1.0000 0.11198  0.51046  0.66389  Biso   1.000  Ni
  N27      1.0000 0.14290  0.58610  0.63268  Biso   1.000  N
  N28      1.0000 0.97800  0.73600  0.44652  Biso   1.000  N
  O53      1.0000 0.05720  0.55504  0.71158  Biso   1.000  O
  O54      1.0000 0.92050  0.56665  0.69229  Biso   1.000  O
  O55      1.0000 0.17150  0.68140  0.82709  Biso   1.000  O
  O56      1.0000 0.07230  0.71482  0.86977  Biso   1.000  O
  H196     1.0000 0.98000  0.52600  0.61520  Biso   1.000  H
  C261     1.0000 0.22060  0.59370  0.61580  Biso   1.000  C
  H197     1.0000 0.26190  0.56460  0.61940  Biso   1.000  H
  C262     1.0000 0.24320  0.64120  0.59360  Biso   1.000  C
  H198     1.0000 0.29890  0.64420  0.58260  Biso   1.000  H
  C263     1.0000 0.18470  0.68470  0.58726  Biso   1.000  C
  C264     1.0000 0.10390  0.67820  0.60450  Biso   1.000  C
  H199     1.0000 0.06190  0.70680  0.60120  Biso   1.000  H
  C265     1.0000 0.08560  0.62820  0.62680  Biso   1.000  C
  H200     1.0000 0.03050  0.62400  0.63830  Biso   1.000  H
  C266     1.0000 0.20450  0.73690  0.56090  Biso   1.000  C
  H201     1.0000 0.16120  0.76720  0.56580  Biso   1.000  H
  C267     1.0000 0.21520  0.72640  0.51322  Biso   1.000  C
  H202     1.0000 0.24260  0.68860  0.50860  Biso   1.000  H
  C268     1.0000 0.13560  0.73040  0.48790  Biso   1.000  C
  C269     1.0000 0.10980  0.77900  0.46690  Biso   1.000  C
  H203     1.0000 0.14540  0.81160  0.46650  Biso   1.000  H
  C270     1.0000 0.03190  0.78000  0.44670  Biso   1.000  C
  H204     1.0000 0.01630  0.81340  0.43230  Biso   1.000  H
  C271     1.0000 0.00250  0.68890  0.46620  Biso   1.000  C
  H205     1.0000 0.96520  0.65720  0.46610  Biso   1.000  H
  C272     1.0000 0.07920  0.68370  0.48650  Biso   1.000  C
  H206     1.0000 0.09390  0.64900  0.49950  Biso   1.000  H
  C273     1.0000 0.96950  0.61740  0.75090  Biso   1.000  C
  C274     1.0000 0.88740  0.63670  0.76060  Biso   1.000  C
  H207     1.0000 0.84050  0.62350  0.74490  Biso   1.000  H
  C275     1.0000 0.87320  0.67440  0.79200  Biso   1.000  C
  H208     1.0000 0.81800  0.68970  0.79630  Biso   1.000  H
  C276     1.0000 0.94090  0.69000  0.81770  Biso   1.000  C
  H209     1.0000 0.93050  0.71340  0.84080  Biso   1.000  H
  C277     1.0000 0.02360  0.67120  0.80950  Biso   1.000  C
  C278     1.0000 0.03790  0.63560  0.77560  Biso   1.000  C
  H210     1.0000 0.09400  0.62370  0.76930  Biso   1.000  H
  C279     1.0000 0.98310  0.57600  0.71610  Biso   1.000  C
  C280     1.0000 0.09480  0.69010  0.83750  Biso   1.000  C
  Ni15     1.0000 0.61198  0.01046  0.66389  Biso   1.000  Ni
  N29      1.0000 0.64290  0.08610  0.63268  Biso   1.000  N
  N30      1.0000 0.47800  0.23600  0.44652  Biso   1.000  N
  O57      1.0000 0.55720  0.05504  0.71158  Biso   1.000  O
  O58      1.0000 0.42050  0.06665  0.69229  Biso   1.000  O
  O59      1.0000 0.67150  0.18140  0.82709  Biso   1.000  O
  O60      1.0000 0.57230  0.21482  0.86977  Biso   1.000  O
  H211     1.0000 0.48000  0.02600  0.61520  Biso   1.000  H
  C281     1.0000 0.72060  0.09370  0.61580  Biso   1.000  C
  H212     1.0000 0.76190  0.06460  0.61940  Biso   1.000  H
  C282     1.0000 0.74320  0.14120  0.59360  Biso   1.000  C
  H213     1.0000 0.79890  0.14420  0.58260  Biso   1.000  H
  C283     1.0000 0.68470  0.18470  0.58726  Biso   1.000  C
  C284     1.0000 0.60390  0.17820  0.60450  Biso   1.000  C
  H214     1.0000 0.56190  0.20680  0.60120  Biso   1.000  H
  C285     1.0000 0.58560  0.12820  0.62680  Biso   1.000  C
  H215     1.0000 0.53050  0.12400  0.63830  Biso   1.000  H
  C286     1.0000 0.70450  0.23690  0.56090  Biso   1.000  C
  H216     1.0000 0.66120  0.26720  0.56580  Biso   1.000  H
  C287     1.0000 0.71520  0.22640  0.51322  Biso   1.000  C
  H217     1.0000 0.74260  0.18860  0.50860  Biso   1.000  H
  C288     1.0000 0.63560  0.23040  0.48790  Biso   1.000  C
  C289     1.0000 0.60980  0.27900  0.46690  Biso   1.000  C
  H218     1.0000 0.64540  0.31160  0.46650  Biso   1.000  H
  C290     1.0000 0.53190  0.28000  0.44670  Biso   1.000  C
  H219     1.0000 0.51630  0.31340  0.43230  Biso   1.000  H
  C291     1.0000 0.50250  0.18890  0.46620  Biso   1.000  C
  H220     1.0000 0.46520  0.15720  0.46610  Biso   1.000  H
  C292     1.0000 0.57920  0.18370  0.48650  Biso   1.000  C
  H221     1.0000 0.59390  0.14900  0.49950  Biso   1.000  H
  C293     1.0000 0.46950  0.11740  0.75090  Biso   1.000  C
  C294     1.0000 0.38740  0.13670  0.76060  Biso   1.000  C
  H222     1.0000 0.34050  0.12350  0.74490  Biso   1.000  H
  C295     1.0000 0.37320  0.17440  0.79200  Biso   1.000  C
  H223     1.0000 0.31800  0.18970  0.79630  Biso   1.000  H
  C296     1.0000 0.44090  0.19000  0.81770  Biso   1.000  C
  H224     1.0000 0.43050  0.21340  0.84080  Biso   1.000  H
  C297     1.0000 0.52360  0.17120  0.80950  Biso   1.000  C
  C298     1.0000 0.53790  0.13560  0.77560  Biso   1.000  C
  H225     1.0000 0.59400  0.12370  0.76930  Biso   1.000  H
  C299     1.0000 0.48310  0.07600  0.71610  Biso   1.000  C
  C300     1.0000 0.59480  0.19010  0.83750  Biso   1.000  C
  Ni16     1.0000 0.61198  0.51046  0.16389  Biso   1.000  Ni
  N31      1.0000 0.64290  0.58610  0.13268  Biso   1.000  N
  N32      1.0000 0.47800  0.73600  0.94652  Biso   1.000  N
  O61      1.0000 0.55720  0.55504  0.21158  Biso   1.000  O
  O62      1.0000 0.42050  0.56665  0.19229  Biso   1.000  O
  O63      1.0000 0.67150  0.68140  0.32709  Biso   1.000  O
  O64      1.0000 0.57230  0.71482  0.36977  Biso   1.000  O
  H226     1.0000 0.48000  0.52600  0.11520  Biso   1.000  H
  C301     1.0000 0.72060  0.59370  0.11580  Biso   1.000  C
  H227     1.0000 0.76190  0.56460  0.11940  Biso   1.000  H
  C302     1.0000 0.74320  0.64120  0.09360  Biso   1.000  C
  H228     1.0000 0.79890  0.64420  0.08260  Biso   1.000  H
  C303     1.0000 0.68470  0.68470  0.08726  Biso   1.000  C
  C304     1.0000 0.60390  0.67820  0.10450  Biso   1.000  C
  H229     1.0000 0.56190  0.70680  0.10120  Biso   1.000  H
  C305     1.0000 0.58560  0.62820  0.12680  Biso   1.000  C
  H230     1.0000 0.53050  0.62400  0.13830  Biso   1.000  H
  C306     1.0000 0.70450  0.73690  0.06090  Biso   1.000  C
  H231     1.0000 0.66120  0.76720  0.06580  Biso   1.000  H
  C307     1.0000 0.71520  0.72640  0.01322  Biso   1.000  C
  H232     1.0000 0.74260  0.68860  0.00860  Biso   1.000  H
  C308     1.0000 0.63560  0.73040  0.98790  Biso   1.000  C
  C309     1.0000 0.60980  0.77900  0.96690  Biso   1.000  C
  H233     1.0000 0.64540  0.81160  0.96650  Biso   1.000  H
  C310     1.0000 0.53190  0.78000  0.94670  Biso   1.000  C
  H234     1.0000 0.51630  0.81340  0.93230  Biso   1.000  H
  C311     1.0000 0.50250  0.68890  0.96620  Biso   1.000  C
  H235     1.0000 0.46520  0.65720  0.96610  Biso   1.000  H
  C312     1.0000 0.57920  0.68370  0.98650  Biso   1.000  C
  H236     1.0000 0.59390  0.64900  0.99950  Biso   1.000  H
  C313     1.0000 0.46950  0.61740  0.25090  Biso   1.000  C
  C314     1.0000 0.38740  0.63670  0.26060  Biso   1.000  C
  H237     1.0000 0.34050  0.62350  0.24490  Biso   1.000  H
  C315     1.0000 0.37320  0.67440  0.29200  Biso   1.000  C
  H238     1.0000 0.31800  0.68970  0.29630  Biso   1.000  H
  C316     1.0000 0.44090  0.69000  0.31770  Biso   1.000  C
  H239     1.0000 0.43050  0.71340  0.34080  Biso   1.000  H
  C317     1.0000 0.52360  0.67120  0.30950  Biso   1.000  C
  C318     1.0000 0.53790  0.63560  0.27560  Biso   1.000  C
  H240     1.0000 0.59400  0.62370  0.26930  Biso   1.000  H
  C319     1.0000 0.48310  0.57600  0.21610  Biso   1.000  C
  C320     1.0000 0.59480  0.69010  0.33750  Biso   1.000  C
  O65      1.0000 0.25000  0.75000  0.87800  Biso   1.000  O
  O66      1.0000 0.25000  0.25000  0.37800  Biso   1.000  O
  O67      1.0000 0.75000  0.25000  0.87800  Biso   1.000  O
  O68      1.0000 0.75000  0.75000  0.37800  Biso   1.000  O
  O69      1.0000 0.50000  0.50000  0.12800  Biso   1.000  O
  O70      1.0000 0.50000  0.00000  0.62800  Biso   1.000  O
  O71      1.0000 0.00000  0.00000  0.12800  Biso   1.000  O
  O72      1.0000 0.00000  0.50000  0.62800  Biso   1.000  O
