data_image0
_cell_length_a       30.6411
_cell_length_b       30.6411
_cell_length_c       22.9614
_cell_angle_alpha    90
_cell_angle_beta     90
_cell_angle_gamma    90

_symmetry_space_group_name_H-M    "P 1"
_symmetry_int_tables_number       1

loop_
  _symmetry_equiv_pos_as_xyz
  'x, y, z'

loop_
  _atom_site_label
  _atom_site_occupancy
  _atom_site_fract_x
  _atom_site_fract_y
  _atom_site_fract_z
  _atom_site_thermal_displace_type
  _atom_site_B_iso_or_equiv
  _atom_site_type_symbol
  C1       1.0000 0.30107  0.08193  0.13600  Biso   1.000  C
  C2       1.0000 0.34040  0.08858  0.16500  Biso   1.000  C
  H1       1.0000 0.36680  0.07690  0.15000  Biso   1.000  H
  C3       1.0000 0.34016  0.11284  0.21670  Biso   1.000  C
  C4       1.0000 0.30148  0.12913  0.23850  Biso   1.000  C
  H2       1.0000 0.30160  0.14620  0.27310  Biso   1.000  H
  C5       1.0000 0.26177  0.12057  0.20980  Biso   1.000  C
  C6       1.0000 0.26187  0.09658  0.15870  Biso   1.000  C
  H3       1.0000 0.23520  0.09020  0.13940  Biso   1.000  H
  C7       1.0000 0.30143  0.05355  0.08103  Biso   1.000  C
  C8       1.0000 0.22014  0.13420  0.23840  Biso   1.000  C
  C9       1.0000 0.17961  0.03933  0.37430  Biso   1.000  C
  C10      1.0000 0.20798  0.03926  0.42260  Biso   1.000  C
  H4       1.0000 0.21770  0.06610  0.43880  Biso   1.000  H
  C11      1.0000 0.16673  0.08161  0.34610  Biso   1.000  C
  O1       1.0000 0.33794  0.04398  0.06069  Biso   1.000  O
  O2       1.0000 0.26526  0.04402  0.06077  Biso   1.000  O
  O3       1.0000 0.22249  0.15789  0.28243  Biso   1.000  O
  O4       1.0000 0.18534  0.12136  0.21352  Biso   1.000  O
  O5       1.0000 0.18030  0.11585  0.36924  Biso   1.000  O
  O6       1.0000 0.14287  0.07890  0.30220  Biso   1.000  O
  C12      1.0000 0.80107  0.58193  0.63600  Biso   1.000  C
  C13      1.0000 0.84040  0.58858  0.66500  Biso   1.000  C
  H5       1.0000 0.86680  0.57690  0.65000  Biso   1.000  H
  C14      1.0000 0.84016  0.61284  0.71670  Biso   1.000  C
  C15      1.0000 0.80148  0.62913  0.73850  Biso   1.000  C
  H6       1.0000 0.80160  0.64620  0.77310  Biso   1.000  H
  C16      1.0000 0.76177  0.62057  0.70980  Biso   1.000  C
  C17      1.0000 0.76187  0.59658  0.65870  Biso   1.000  C
  H7       1.0000 0.73520  0.59020  0.63940  Biso   1.000  H
  C18      1.0000 0.80143  0.55355  0.58103  Biso   1.000  C
  C19      1.0000 0.72014  0.63420  0.73840  Biso   1.000  C
  C20      1.0000 0.67961  0.53933  0.87430  Biso   1.000  C
  C21      1.0000 0.70798  0.53926  0.92260  Biso   1.000  C
  H8       1.0000 0.71770  0.56610  0.93880  Biso   1.000  H
  C22      1.0000 0.66673  0.58161  0.84610  Biso   1.000  C
  O7       1.0000 0.83794  0.54398  0.56069  Biso   1.000  O
  O8       1.0000 0.76526  0.54402  0.56077  Biso   1.000  O
  O9       1.0000 0.72249  0.65789  0.78243  Biso   1.000  O
  O10      1.0000 0.68534  0.62136  0.71352  Biso   1.000  O
  O11      1.0000 0.68030  0.61585  0.86924  Biso   1.000  O
  O12      1.0000 0.64287  0.57890  0.80220  Biso   1.000  O
  C23      1.0000 0.69893  0.91807  0.13600  Biso   1.000  C
  C24      1.0000 0.65960  0.91142  0.16500  Biso   1.000  C
  H9       1.0000 0.63320  0.92310  0.15000  Biso   1.000  H
  C25      1.0000 0.65984  0.88716  0.21670  Biso   1.000  C
  C26      1.0000 0.69852  0.87087  0.23850  Biso   1.000  C
  H10      1.0000 0.69840  0.85380  0.27310  Biso   1.000  H
  C27      1.0000 0.73823  0.87943  0.20980  Biso   1.000  C
  C28      1.0000 0.73813  0.90342  0.15870  Biso   1.000  C
  H11      1.0000 0.76480  0.90980  0.13940  Biso   1.000  H
  C29      1.0000 0.69857  0.94645  0.08103  Biso   1.000  C
  C30      1.0000 0.77986  0.86580  0.23840  Biso   1.000  C
  C31      1.0000 0.82039  0.96067  0.37430  Biso   1.000  C
  C32      1.0000 0.79202  0.96074  0.42260  Biso   1.000  C
  H12      1.0000 0.78230  0.93390  0.43880  Biso   1.000  H
  C33      1.0000 0.83327  0.91839  0.34610  Biso   1.000  C
  O13      1.0000 0.66206  0.95602  0.06069  Biso   1.000  O
  O14      1.0000 0.73474  0.95598  0.06077  Biso   1.000  O
  O15      1.0000 0.77751  0.84211  0.28243  Biso   1.000  O
  O16      1.0000 0.81466  0.87864  0.21352  Biso   1.000  O
  O17      1.0000 0.81970  0.88415  0.36924  Biso   1.000  O
  O18      1.0000 0.85713  0.92110  0.30220  Biso   1.000  O
  C34      1.0000 0.19893  0.41807  0.63600  Biso   1.000  C
  C35      1.0000 0.15960  0.41142  0.66500  Biso   1.000  C
  H13      1.0000 0.13320  0.42310  0.65000  Biso   1.000  H
  C36      1.0000 0.15984  0.38716  0.71670  Biso   1.000  C
  C37      1.0000 0.19852  0.37087  0.73850  Biso   1.000  C
  H14      1.0000 0.19840  0.35380  0.77310  Biso   1.000  H
  C38      1.0000 0.23823  0.37943  0.70980  Biso   1.000  C
  C39      1.0000 0.23813  0.40342  0.65870  Biso   1.000  C
  H15      1.0000 0.26480  0.40980  0.63940  Biso   1.000  H
  C40      1.0000 0.19857  0.44645  0.58103  Biso   1.000  C
  C41      1.0000 0.27986  0.36580  0.73840  Biso   1.000  C
  C42      1.0000 0.32039  0.46067  0.87430  Biso   1.000  C
  C43      1.0000 0.29202  0.46074  0.92260  Biso   1.000  C
  H16      1.0000 0.28230  0.43390  0.93880  Biso   1.000  H
  C44      1.0000 0.33327  0.41839  0.84610  Biso   1.000  C
  O19      1.0000 0.16206  0.45602  0.56069  Biso   1.000  O
  O20      1.0000 0.23474  0.45598  0.56077  Biso   1.000  O
  O21      1.0000 0.27751  0.34211  0.78243  Biso   1.000  O
  O22      1.0000 0.31466  0.37864  0.71352  Biso   1.000  O
  O23      1.0000 0.31970  0.38415  0.86924  Biso   1.000  O
  O24      1.0000 0.35713  0.42110  0.80220  Biso   1.000  O
  C45      1.0000 0.91807  0.30107  0.13600  Biso   1.000  C
  C46      1.0000 0.91142  0.34040  0.16500  Biso   1.000  C
  H17      1.0000 0.92310  0.36680  0.15000  Biso   1.000  H
  C47      1.0000 0.88716  0.34016  0.21670  Biso   1.000  C
  C48      1.0000 0.87087  0.30148  0.23850  Biso   1.000  C
  H18      1.0000 0.85380  0.30160  0.27310  Biso   1.000  H
  C49      1.0000 0.87943  0.26177  0.20980  Biso   1.000  C
  C50      1.0000 0.90342  0.26187  0.15870  Biso   1.000  C
  H19      1.0000 0.90980  0.23520  0.13940  Biso   1.000  H
  C51      1.0000 0.94645  0.30143  0.08103  Biso   1.000  C
  C52      1.0000 0.86580  0.22014  0.23840  Biso   1.000  C
  C53      1.0000 0.96067  0.17961  0.37430  Biso   1.000  C
  C54      1.0000 0.96074  0.20798  0.42260  Biso   1.000  C
  H20      1.0000 0.93390  0.21770  0.43880  Biso   1.000  H
  C55      1.0000 0.91839  0.16673  0.34610  Biso   1.000  C
  O25      1.0000 0.95602  0.33794  0.06069  Biso   1.000  O
  O26      1.0000 0.95598  0.26526  0.06077  Biso   1.000  O
  O27      1.0000 0.84211  0.22249  0.28243  Biso   1.000  O
  O28      1.0000 0.87864  0.18534  0.21352  Biso   1.000  O
  O29      1.0000 0.88415  0.18030  0.36924  Biso   1.000  O
  O30      1.0000 0.92110  0.14287  0.30220  Biso   1.000  O
  C56      1.0000 0.41807  0.80107  0.63600  Biso   1.000  C
  C57      1.0000 0.41142  0.84040  0.66500  Biso   1.000  C
  H21      1.0000 0.42310  0.86680  0.65000  Biso   1.000  H
  C58      1.0000 0.38716  0.84016  0.71670  Biso   1.000  C
  C59      1.0000 0.37087  0.80148  0.73850  Biso   1.000  C
  H22      1.0000 0.35380  0.80160  0.77310  Biso   1.000  H
  C60      1.0000 0.37943  0.76177  0.70980  Biso   1.000  C
  C61      1.0000 0.40342  0.76187  0.65870  Biso   1.000  C
  H23      1.0000 0.40980  0.73520  0.63940  Biso   1.000  H
  C62      1.0000 0.44645  0.80143  0.58103  Biso   1.000  C
  C63      1.0000 0.36580  0.72014  0.73840  Biso   1.000  C
  C64      1.0000 0.46067  0.67961  0.87430  Biso   1.000  C
  C65      1.0000 0.46074  0.70798  0.92260  Biso   1.000  C
  H24      1.0000 0.43390  0.71770  0.93880  Biso   1.000  H
  C66      1.0000 0.41839  0.66673  0.84610  Biso   1.000  C
  O31      1.0000 0.45602  0.83794  0.56069  Biso   1.000  O
  O32      1.0000 0.45598  0.76526  0.56077  Biso   1.000  O
  O33      1.0000 0.34211  0.72249  0.78243  Biso   1.000  O
  O34      1.0000 0.37864  0.68534  0.71352  Biso   1.000  O
  O35      1.0000 0.38415  0.68030  0.86924  Biso   1.000  O
  O36      1.0000 0.42110  0.64287  0.80220  Biso   1.000  O
  C67      1.0000 0.08193  0.69893  0.13600  Biso   1.000  C
  C68      1.0000 0.08858  0.65960  0.16500  Biso   1.000  C
  H25      1.0000 0.07690  0.63320  0.15000  Biso   1.000  H
  C69      1.0000 0.11284  0.65984  0.21670  Biso   1.000  C
  C70      1.0000 0.12913  0.69852  0.23850  Biso   1.000  C
  H26      1.0000 0.14620  0.69840  0.27310  Biso   1.000  H
  C71      1.0000 0.12057  0.73823  0.20980  Biso   1.000  C
  C72      1.0000 0.09658  0.73813  0.15870  Biso   1.000  C
  H27      1.0000 0.09020  0.76480  0.13940  Biso   1.000  H
  C73      1.0000 0.05355  0.69857  0.08103  Biso   1.000  C
  C74      1.0000 0.13420  0.77986  0.23840  Biso   1.000  C
  C75      1.0000 0.03933  0.82039  0.37430  Biso   1.000  C
  C76      1.0000 0.03926  0.79202  0.42260  Biso   1.000  C
  H28      1.0000 0.06610  0.78230  0.43880  Biso   1.000  H
  C77      1.0000 0.08161  0.83327  0.34610  Biso   1.000  C
  O37      1.0000 0.04398  0.66206  0.06069  Biso   1.000  O
  O38      1.0000 0.04402  0.73474  0.06077  Biso   1.000  O
  O39      1.0000 0.15789  0.77751  0.28243  Biso   1.000  O
  O40      1.0000 0.12136  0.81466  0.21352  Biso   1.000  O
  O41      1.0000 0.11585  0.81970  0.36924  Biso   1.000  O
  O42      1.0000 0.07890  0.85713  0.30220  Biso   1.000  O
  C78      1.0000 0.58193  0.19893  0.63600  Biso   1.000  C
  C79      1.0000 0.58858  0.15960  0.66500  Biso   1.000  C
  H29      1.0000 0.57690  0.13320  0.65000  Biso   1.000  H
  C80      1.0000 0.61284  0.15984  0.71670  Biso   1.000  C
  C81      1.0000 0.62913  0.19852  0.73850  Biso   1.000  C
  H30      1.0000 0.64620  0.19840  0.77310  Biso   1.000  H
  C82      1.0000 0.62057  0.23823  0.70980  Biso   1.000  C
  C83      1.0000 0.59658  0.23813  0.65870  Biso   1.000  C
  H31      1.0000 0.59020  0.26480  0.63940  Biso   1.000  H
  C84      1.0000 0.55355  0.19857  0.58103  Biso   1.000  C
  C85      1.0000 0.63420  0.27986  0.73840  Biso   1.000  C
  C86      1.0000 0.53933  0.32039  0.87430  Biso   1.000  C
  C87      1.0000 0.53926  0.29202  0.92260  Biso   1.000  C
  H32      1.0000 0.56610  0.28230  0.93880  Biso   1.000  H
  C88      1.0000 0.58161  0.33327  0.84610  Biso   1.000  C
  O43      1.0000 0.54398  0.16206  0.56069  Biso   1.000  O
  O44      1.0000 0.54402  0.23474  0.56077  Biso   1.000  O
  O45      1.0000 0.65789  0.27751  0.78243  Biso   1.000  O
  O46      1.0000 0.62136  0.31466  0.71352  Biso   1.000  O
  O47      1.0000 0.61585  0.31970  0.86924  Biso   1.000  O
  O48      1.0000 0.57890  0.35713  0.80220  Biso   1.000  O
  C89      1.0000 0.69893  0.08193  0.86400  Biso   1.000  C
  C90      1.0000 0.65960  0.08858  0.83500  Biso   1.000  C
  H33      1.0000 0.63320  0.07690  0.85000  Biso   1.000  H
  C91      1.0000 0.65984  0.11284  0.78330  Biso   1.000  C
  C92      1.0000 0.69852  0.12913  0.76150  Biso   1.000  C
  H34      1.0000 0.69840  0.14620  0.72690  Biso   1.000  H
  C93      1.0000 0.73823  0.12057  0.79020  Biso   1.000  C
  C94      1.0000 0.73813  0.09658  0.84130  Biso   1.000  C
  H35      1.0000 0.76480  0.09020  0.86060  Biso   1.000  H
  C95      1.0000 0.69857  0.05355  0.91897  Biso   1.000  C
  C96      1.0000 0.77986  0.13420  0.76160  Biso   1.000  C
  C97      1.0000 0.82039  0.03933  0.62570  Biso   1.000  C
  C98      1.0000 0.79202  0.03926  0.57740  Biso   1.000  C
  H36      1.0000 0.78230  0.06610  0.56120  Biso   1.000  H
  C99      1.0000 0.83327  0.08161  0.65390  Biso   1.000  C
  O49      1.0000 0.66206  0.04398  0.93931  Biso   1.000  O
  O50      1.0000 0.73474  0.04402  0.93923  Biso   1.000  O
  O51      1.0000 0.77751  0.15789  0.71757  Biso   1.000  O
  O52      1.0000 0.81466  0.12136  0.78648  Biso   1.000  O
  O53      1.0000 0.81970  0.11585  0.63076  Biso   1.000  O
  O54      1.0000 0.85713  0.07890  0.69780  Biso   1.000  O
  C100     1.0000 0.19893  0.58193  0.36400  Biso   1.000  C
  C101     1.0000 0.15960  0.58858  0.33500  Biso   1.000  C
  H37      1.0000 0.13320  0.57690  0.35000  Biso   1.000  H
  C102     1.0000 0.15984  0.61284  0.28330  Biso   1.000  C
  C103     1.0000 0.19852  0.62913  0.26150  Biso   1.000  C
  H38      1.0000 0.19840  0.64620  0.22690  Biso   1.000  H
  C104     1.0000 0.23823  0.62057  0.29020  Biso   1.000  C
  C105     1.0000 0.23813  0.59658  0.34130  Biso   1.000  C
  H39      1.0000 0.26480  0.59020  0.36060  Biso   1.000  H
  C106     1.0000 0.19857  0.55355  0.41897  Biso   1.000  C
  C107     1.0000 0.27986  0.63420  0.26160  Biso   1.000  C
  C108     1.0000 0.32039  0.53933  0.12570  Biso   1.000  C
  C109     1.0000 0.29202  0.53926  0.07740  Biso   1.000  C
  H40      1.0000 0.28230  0.56610  0.06120  Biso   1.000  H
  C110     1.0000 0.33327  0.58161  0.15390  Biso   1.000  C
  O55      1.0000 0.16206  0.54398  0.43931  Biso   1.000  O
  O56      1.0000 0.23474  0.54402  0.43923  Biso   1.000  O
  O57      1.0000 0.27751  0.65789  0.21757  Biso   1.000  O
  O58      1.0000 0.31466  0.62136  0.28648  Biso   1.000  O
  O59      1.0000 0.31970  0.61585  0.13076  Biso   1.000  O
  O60      1.0000 0.35713  0.57890  0.19780  Biso   1.000  O
  C111     1.0000 0.30107  0.91807  0.86400  Biso   1.000  C
  C112     1.0000 0.34040  0.91142  0.83500  Biso   1.000  C
  H41      1.0000 0.36680  0.92310  0.85000  Biso   1.000  H
  C113     1.0000 0.34016  0.88716  0.78330  Biso   1.000  C
  C114     1.0000 0.30148  0.87087  0.76150  Biso   1.000  C
  H42      1.0000 0.30160  0.85380  0.72690  Biso   1.000  H
  C115     1.0000 0.26177  0.87943  0.79020  Biso   1.000  C
  C116     1.0000 0.26187  0.90342  0.84130  Biso   1.000  C
  H43      1.0000 0.23520  0.90980  0.86060  Biso   1.000  H
  C117     1.0000 0.30143  0.94645  0.91897  Biso   1.000  C
  C118     1.0000 0.22014  0.86580  0.76160  Biso   1.000  C
  C119     1.0000 0.17961  0.96067  0.62570  Biso   1.000  C
  C120     1.0000 0.20798  0.96074  0.57740  Biso   1.000  C
  H44      1.0000 0.21770  0.93390  0.56120  Biso   1.000  H
  C121     1.0000 0.16673  0.91839  0.65390  Biso   1.000  C
  O61      1.0000 0.33794  0.95602  0.93931  Biso   1.000  O
  O62      1.0000 0.26526  0.95598  0.93923  Biso   1.000  O
  O63      1.0000 0.22249  0.84211  0.71757  Biso   1.000  O
  O64      1.0000 0.18534  0.87864  0.78648  Biso   1.000  O
  O65      1.0000 0.18030  0.88415  0.63076  Biso   1.000  O
  O66      1.0000 0.14287  0.92110  0.69780  Biso   1.000  O
  C122     1.0000 0.80107  0.41807  0.36400  Biso   1.000  C
  C123     1.0000 0.84040  0.41142  0.33500  Biso   1.000  C
  H45      1.0000 0.86680  0.42310  0.35000  Biso   1.000  H
  C124     1.0000 0.84016  0.38716  0.28330  Biso   1.000  C
  C125     1.0000 0.80148  0.37087  0.26150  Biso   1.000  C
  H46      1.0000 0.80160  0.35380  0.22690  Biso   1.000  H
  C126     1.0000 0.76177  0.37943  0.29020  Biso   1.000  C
  C127     1.0000 0.76187  0.40342  0.34130  Biso   1.000  C
  H47      1.0000 0.73520  0.40980  0.36060  Biso   1.000  H
  C128     1.0000 0.80143  0.44645  0.41897  Biso   1.000  C
  C129     1.0000 0.72014  0.36580  0.26160  Biso   1.000  C
  C130     1.0000 0.67961  0.46067  0.12570  Biso   1.000  C
  C131     1.0000 0.70798  0.46074  0.07740  Biso   1.000  C
  H48      1.0000 0.71770  0.43390  0.06120  Biso   1.000  H
  C132     1.0000 0.66673  0.41839  0.15390  Biso   1.000  C
  O67      1.0000 0.83794  0.45602  0.43931  Biso   1.000  O
  O68      1.0000 0.76526  0.45598  0.43923  Biso   1.000  O
  O69      1.0000 0.72249  0.34211  0.21757  Biso   1.000  O
  O70      1.0000 0.68534  0.37864  0.28648  Biso   1.000  O
  O71      1.0000 0.68030  0.38415  0.13076  Biso   1.000  O
  O72      1.0000 0.64287  0.42110  0.19780  Biso   1.000  O
  C133     1.0000 0.08193  0.30107  0.86400  Biso   1.000  C
  C134     1.0000 0.08858  0.34040  0.83500  Biso   1.000  C
  H49      1.0000 0.07690  0.36680  0.85000  Biso   1.000  H
  C135     1.0000 0.11284  0.34016  0.78330  Biso   1.000  C
  C136     1.0000 0.12913  0.30148  0.76150  Biso   1.000  C
  H50      1.0000 0.14620  0.30160  0.72690  Biso   1.000  H
  C137     1.0000 0.12057  0.26177  0.79020  Biso   1.000  C
  C138     1.0000 0.09658  0.26187  0.84130  Biso   1.000  C
  H51      1.0000 0.09020  0.23520  0.86060  Biso   1.000  H
  C139     1.0000 0.05355  0.30143  0.91897  Biso   1.000  C
  C140     1.0000 0.13420  0.22014  0.76160  Biso   1.000  C
  C141     1.0000 0.03933  0.17961  0.62570  Biso   1.000  C
  C142     1.0000 0.03926  0.20798  0.57740  Biso   1.000  C
  H52      1.0000 0.06610  0.21770  0.56120  Biso   1.000  H
  C143     1.0000 0.08161  0.16673  0.65390  Biso   1.000  C
  O73      1.0000 0.04398  0.33794  0.93931  Biso   1.000  O
  O74      1.0000 0.04402  0.26526  0.93923  Biso   1.000  O
  O75      1.0000 0.15789  0.22249  0.71757  Biso   1.000  O
  O76      1.0000 0.12136  0.18534  0.78648  Biso   1.000  O
  O77      1.0000 0.11585  0.18030  0.63076  Biso   1.000  O
  O78      1.0000 0.07890  0.14287  0.69780  Biso   1.000  O
  C144     1.0000 0.58193  0.80107  0.36400  Biso   1.000  C
  C145     1.0000 0.58858  0.84040  0.33500  Biso   1.000  C
  H53      1.0000 0.57690  0.86680  0.35000  Biso   1.000  H
  C146     1.0000 0.61284  0.84016  0.28330  Biso   1.000  C
  C147     1.0000 0.62913  0.80148  0.26150  Biso   1.000  C
  H54      1.0000 0.64620  0.80160  0.22690  Biso   1.000  H
  C148     1.0000 0.62057  0.76177  0.29020  Biso   1.000  C
  C149     1.0000 0.59658  0.76187  0.34130  Biso   1.000  C
  H55      1.0000 0.59020  0.73520  0.36060  Biso   1.000  H
  C150     1.0000 0.55355  0.80143  0.41897  Biso   1.000  C
  C151     1.0000 0.63420  0.72014  0.26160  Biso   1.000  C
  C152     1.0000 0.53933  0.67961  0.12570  Biso   1.000  C
  C153     1.0000 0.53926  0.70798  0.07740  Biso   1.000  C
  H56      1.0000 0.56610  0.71770  0.06120  Biso   1.000  H
  C154     1.0000 0.58161  0.66673  0.15390  Biso   1.000  C
  O79      1.0000 0.54398  0.83794  0.43931  Biso   1.000  O
  O80      1.0000 0.54402  0.76526  0.43923  Biso   1.000  O
  O81      1.0000 0.65789  0.72249  0.21757  Biso   1.000  O
  O82      1.0000 0.62136  0.68534  0.28648  Biso   1.000  O
  O83      1.0000 0.61585  0.68030  0.13076  Biso   1.000  O
  O84      1.0000 0.57890  0.64287  0.19780  Biso   1.000  O
  C155     1.0000 0.91807  0.69893  0.86400  Biso   1.000  C
  C156     1.0000 0.91142  0.65960  0.83500  Biso   1.000  C
  H57      1.0000 0.92310  0.63320  0.85000  Biso   1.000  H
  C157     1.0000 0.88716  0.65984  0.78330  Biso   1.000  C
  C158     1.0000 0.87087  0.69852  0.76150  Biso   1.000  C
  H58      1.0000 0.85380  0.69840  0.72690  Biso   1.000  H
  C159     1.0000 0.87943  0.73823  0.79020  Biso   1.000  C
  C160     1.0000 0.90342  0.73813  0.84130  Biso   1.000  C
  H59      1.0000 0.90980  0.76480  0.86060  Biso   1.000  H
  C161     1.0000 0.94645  0.69857  0.91897  Biso   1.000  C
  C162     1.0000 0.86580  0.77986  0.76160  Biso   1.000  C
  C163     1.0000 0.96067  0.82039  0.62570  Biso   1.000  C
  C164     1.0000 0.96074  0.79202  0.57740  Biso   1.000  C
  H60      1.0000 0.93390  0.78230  0.56120  Biso   1.000  H
  C165     1.0000 0.91839  0.83327  0.65390  Biso   1.000  C
  O85      1.0000 0.95602  0.66206  0.93931  Biso   1.000  O
  O86      1.0000 0.95598  0.73474  0.93923  Biso   1.000  O
  O87      1.0000 0.84211  0.77751  0.71757  Biso   1.000  O
  O88      1.0000 0.87864  0.81466  0.78648  Biso   1.000  O
  O89      1.0000 0.88415  0.81970  0.63076  Biso   1.000  O
  O90      1.0000 0.92110  0.85713  0.69780  Biso   1.000  O
  C166     1.0000 0.41807  0.19893  0.36400  Biso   1.000  C
  C167     1.0000 0.41142  0.15960  0.33500  Biso   1.000  C
  H61      1.0000 0.42310  0.13320  0.35000  Biso   1.000  H
  C168     1.0000 0.38716  0.15984  0.28330  Biso   1.000  C
  C169     1.0000 0.37087  0.19852  0.26150  Biso   1.000  C
  H62      1.0000 0.35380  0.19840  0.22690  Biso   1.000  H
  C170     1.0000 0.37943  0.23823  0.29020  Biso   1.000  C
  C171     1.0000 0.40342  0.23813  0.34130  Biso   1.000  C
  H63      1.0000 0.40980  0.26480  0.36060  Biso   1.000  H
  C172     1.0000 0.44645  0.19857  0.41897  Biso   1.000  C
  C173     1.0000 0.36580  0.27986  0.26160  Biso   1.000  C
  C174     1.0000 0.46067  0.32039  0.12570  Biso   1.000  C
  C175     1.0000 0.46074  0.29202  0.07740  Biso   1.000  C
  H64      1.0000 0.43390  0.28230  0.06120  Biso   1.000  H
  C176     1.0000 0.41839  0.33327  0.15390  Biso   1.000  C
  O91      1.0000 0.45602  0.16206  0.43931  Biso   1.000  O
  O92      1.0000 0.45598  0.23474  0.43923  Biso   1.000  O
  O93      1.0000 0.34211  0.27751  0.21757  Biso   1.000  O
  O94      1.0000 0.37864  0.31466  0.28648  Biso   1.000  O
  O95      1.0000 0.38415  0.31970  0.13076  Biso   1.000  O
  O96      1.0000 0.42110  0.35713  0.19780  Biso   1.000  O
  C177     1.0000 0.69893  0.91807  0.86400  Biso   1.000  C
  C178     1.0000 0.65960  0.91142  0.83500  Biso   1.000  C
  H65      1.0000 0.63320  0.92310  0.85000  Biso   1.000  H
  C179     1.0000 0.65984  0.88716  0.78330  Biso   1.000  C
  C180     1.0000 0.69852  0.87087  0.76150  Biso   1.000  C
  H66      1.0000 0.69840  0.85380  0.72690  Biso   1.000  H
  C181     1.0000 0.73823  0.87943  0.79020  Biso   1.000  C
  C182     1.0000 0.73813  0.90342  0.84130  Biso   1.000  C
  H67      1.0000 0.76480  0.90980  0.86060  Biso   1.000  H
  C183     1.0000 0.69857  0.94645  0.91897  Biso   1.000  C
  C184     1.0000 0.77986  0.86580  0.76160  Biso   1.000  C
  C185     1.0000 0.82039  0.96067  0.62570  Biso   1.000  C
  C186     1.0000 0.79202  0.96074  0.57740  Biso   1.000  C
  H68      1.0000 0.78230  0.93390  0.56120  Biso   1.000  H
  C187     1.0000 0.83327  0.91839  0.65390  Biso   1.000  C
  O97      1.0000 0.66206  0.95602  0.93931  Biso   1.000  O
  O98      1.0000 0.73474  0.95598  0.93923  Biso   1.000  O
  O99      1.0000 0.77751  0.84211  0.71757  Biso   1.000  O
  O100     1.0000 0.81466  0.87864  0.78648  Biso   1.000  O
  O101     1.0000 0.81970  0.88415  0.63076  Biso   1.000  O
  O102     1.0000 0.85713  0.92110  0.69780  Biso   1.000  O
  C188     1.0000 0.19893  0.41807  0.36400  Biso   1.000  C
  C189     1.0000 0.15960  0.41142  0.33500  Biso   1.000  C
  H69      1.0000 0.13320  0.42310  0.35000  Biso   1.000  H
  C190     1.0000 0.15984  0.38716  0.28330  Biso   1.000  C
  C191     1.0000 0.19852  0.37087  0.26150  Biso   1.000  C
  H70      1.0000 0.19840  0.35380  0.22690  Biso   1.000  H
  C192     1.0000 0.23823  0.37943  0.29020  Biso   1.000  C
  C193     1.0000 0.23813  0.40342  0.34130  Biso   1.000  C
  H71      1.0000 0.26480  0.40980  0.36060  Biso   1.000  H
  C194     1.0000 0.19857  0.44645  0.41897  Biso   1.000  C
  C195     1.0000 0.27986  0.36580  0.26160  Biso   1.000  C
  C196     1.0000 0.32039  0.46067  0.12570  Biso   1.000  C
  C197     1.0000 0.29202  0.46074  0.07740  Biso   1.000  C
  H72      1.0000 0.28230  0.43390  0.06120  Biso   1.000  H
  C198     1.0000 0.33327  0.41839  0.15390  Biso   1.000  C
  O103     1.0000 0.16206  0.45602  0.43931  Biso   1.000  O
  O104     1.0000 0.23474  0.45598  0.43923  Biso   1.000  O
  O105     1.0000 0.27751  0.34211  0.21757  Biso   1.000  O
  O106     1.0000 0.31466  0.37864  0.28648  Biso   1.000  O
  O107     1.0000 0.31970  0.38415  0.13076  Biso   1.000  O
  O108     1.0000 0.35713  0.42110  0.19780  Biso   1.000  O
  C199     1.0000 0.30107  0.08193  0.86400  Biso   1.000  C
  C200     1.0000 0.34040  0.08858  0.83500  Biso   1.000  C
  H73      1.0000 0.36680  0.07690  0.85000  Biso   1.000  H
  C201     1.0000 0.34016  0.11284  0.78330  Biso   1.000  C
  C202     1.0000 0.30148  0.12913  0.76150  Biso   1.000  C
  H74      1.0000 0.30160  0.14620  0.72690  Biso   1.000  H
  C203     1.0000 0.26177  0.12057  0.79020  Biso   1.000  C
  C204     1.0000 0.26187  0.09658  0.84130  Biso   1.000  C
  H75      1.0000 0.23520  0.09020  0.86060  Biso   1.000  H
  C205     1.0000 0.30143  0.05355  0.91897  Biso   1.000  C
  C206     1.0000 0.22014  0.13420  0.76160  Biso   1.000  C
  C207     1.0000 0.17961  0.03933  0.62570  Biso   1.000  C
  C208     1.0000 0.20798  0.03926  0.57740  Biso   1.000  C
  H76      1.0000 0.21770  0.06610  0.56120  Biso   1.000  H
  C209     1.0000 0.16673  0.08161  0.65390  Biso   1.000  C
  O109     1.0000 0.33794  0.04398  0.93931  Biso   1.000  O
  O110     1.0000 0.26526  0.04402  0.93923  Biso   1.000  O
  O111     1.0000 0.22249  0.15789  0.71757  Biso   1.000  O
  O112     1.0000 0.18534  0.12136  0.78648  Biso   1.000  O
  O113     1.0000 0.18030  0.11585  0.63076  Biso   1.000  O
  O114     1.0000 0.14287  0.07890  0.69780  Biso   1.000  O
  C210     1.0000 0.80107  0.58193  0.36400  Biso   1.000  C
  C211     1.0000 0.84040  0.58858  0.33500  Biso   1.000  C
  H77      1.0000 0.86680  0.57690  0.35000  Biso   1.000  H
  C212     1.0000 0.84016  0.61284  0.28330  Biso   1.000  C
  C213     1.0000 0.80148  0.62913  0.26150  Biso   1.000  C
  H78      1.0000 0.80160  0.64620  0.22690  Biso   1.000  H
  C214     1.0000 0.76177  0.62057  0.29020  Biso   1.000  C
  C215     1.0000 0.76187  0.59658  0.34130  Biso   1.000  C
  H79      1.0000 0.73520  0.59020  0.36060  Biso   1.000  H
  C216     1.0000 0.80143  0.55355  0.41897  Biso   1.000  C
  C217     1.0000 0.72014  0.63420  0.26160  Biso   1.000  C
  C218     1.0000 0.67961  0.53933  0.12570  Biso   1.000  C
  C219     1.0000 0.70798  0.53926  0.07740  Biso   1.000  C
  H80      1.0000 0.71770  0.56610  0.06120  Biso   1.000  H
  C220     1.0000 0.66673  0.58161  0.15390  Biso   1.000  C
  O115     1.0000 0.83794  0.54398  0.43931  Biso   1.000  O
  O116     1.0000 0.76526  0.54402  0.43923  Biso   1.000  O
  O117     1.0000 0.72249  0.65789  0.21757  Biso   1.000  O
  O118     1.0000 0.68534  0.62136  0.28648  Biso   1.000  O
  O119     1.0000 0.68030  0.61585  0.13076  Biso   1.000  O
  O120     1.0000 0.64287  0.57890  0.19780  Biso   1.000  O
  C221     1.0000 0.08193  0.69893  0.86400  Biso   1.000  C
  C222     1.0000 0.08858  0.65960  0.83500  Biso   1.000  C
  H81      1.0000 0.07690  0.63320  0.85000  Biso   1.000  H
  C223     1.0000 0.11284  0.65984  0.78330  Biso   1.000  C
  C224     1.0000 0.12913  0.69852  0.76150  Biso   1.000  C
  H82      1.0000 0.14620  0.69840  0.72690  Biso   1.000  H
  C225     1.0000 0.12057  0.73823  0.79020  Biso   1.000  C
  C226     1.0000 0.09658  0.73813  0.84130  Biso   1.000  C
  H83      1.0000 0.09020  0.76480  0.86060  Biso   1.000  H
  C227     1.0000 0.05355  0.69857  0.91897  Biso   1.000  C
  C228     1.0000 0.13420  0.77986  0.76160  Biso   1.000  C
  C229     1.0000 0.03933  0.82039  0.62570  Biso   1.000  C
  C230     1.0000 0.03926  0.79202  0.57740  Biso   1.000  C
  H84      1.0000 0.06610  0.78230  0.56120  Biso   1.000  H
  C231     1.0000 0.08161  0.83327  0.65390  Biso   1.000  C
  O121     1.0000 0.04398  0.66206  0.93931  Biso   1.000  O
  O122     1.0000 0.04402  0.73474  0.93923  Biso   1.000  O
  O123     1.0000 0.15789  0.77751  0.71757  Biso   1.000  O
  O124     1.0000 0.12136  0.81466  0.78648  Biso   1.000  O
  O125     1.0000 0.11585  0.81970  0.63076  Biso   1.000  O
  O126     1.0000 0.07890  0.85713  0.69780  Biso   1.000  O
  C232     1.0000 0.58193  0.19893  0.36400  Biso   1.000  C
  C233     1.0000 0.58858  0.15960  0.33500  Biso   1.000  C
  H85      1.0000 0.57690  0.13320  0.35000  Biso   1.000  H
  C234     1.0000 0.61284  0.15984  0.28330  Biso   1.000  C
  C235     1.0000 0.62913  0.19852  0.26150  Biso   1.000  C
  H86      1.0000 0.64620  0.19840  0.22690  Biso   1.000  H
  C236     1.0000 0.62057  0.23823  0.29020  Biso   1.000  C
  C237     1.0000 0.59658  0.23813  0.34130  Biso   1.000  C
  H87      1.0000 0.59020  0.26480  0.36060  Biso   1.000  H
  C238     1.0000 0.55355  0.19857  0.41897  Biso   1.000  C
  C239     1.0000 0.63420  0.27986  0.26160  Biso   1.000  C
  C240     1.0000 0.53933  0.32039  0.12570  Biso   1.000  C
  C241     1.0000 0.53926  0.29202  0.07740  Biso   1.000  C
  H88      1.0000 0.56610  0.28230  0.06120  Biso   1.000  H
  C242     1.0000 0.58161  0.33327  0.15390  Biso   1.000  C
  O127     1.0000 0.54398  0.16206  0.43931  Biso   1.000  O
  O128     1.0000 0.54402  0.23474  0.43923  Biso   1.000  O
  O129     1.0000 0.65789  0.27751  0.21757  Biso   1.000  O
  O130     1.0000 0.62136  0.31466  0.28648  Biso   1.000  O
  O131     1.0000 0.61585  0.31970  0.13076  Biso   1.000  O
  O132     1.0000 0.57890  0.35713  0.19780  Biso   1.000  O
  C243     1.0000 0.91807  0.30107  0.86400  Biso   1.000  C
  C244     1.0000 0.91142  0.34040  0.83500  Biso   1.000  C
  H89      1.0000 0.92310  0.36680  0.85000  Biso   1.000  H
  C245     1.0000 0.88716  0.34016  0.78330  Biso   1.000  C
  C246     1.0000 0.87087  0.30148  0.76150  Biso   1.000  C
  H90      1.0000 0.85380  0.30160  0.72690  Biso   1.000  H
  C247     1.0000 0.87943  0.26177  0.79020  Biso   1.000  C
  C248     1.0000 0.90342  0.26187  0.84130  Biso   1.000  C
  H91      1.0000 0.90980  0.23520  0.86060  Biso   1.000  H
  C249     1.0000 0.94645  0.30143  0.91897  Biso   1.000  C
  C250     1.0000 0.86580  0.22014  0.76160  Biso   1.000  C
  C251     1.0000 0.96067  0.17961  0.62570  Biso   1.000  C
  C252     1.0000 0.96074  0.20798  0.57740  Biso   1.000  C
  H92      1.0000 0.93390  0.21770  0.56120  Biso   1.000  H
  C253     1.0000 0.91839  0.16673  0.65390  Biso   1.000  C
  O133     1.0000 0.95602  0.33794  0.93931  Biso   1.000  O
  O134     1.0000 0.95598  0.26526  0.93923  Biso   1.000  O
  O135     1.0000 0.84211  0.22249  0.71757  Biso   1.000  O
  O136     1.0000 0.87864  0.18534  0.78648  Biso   1.000  O
  O137     1.0000 0.88415  0.18030  0.63076  Biso   1.000  O
  O138     1.0000 0.92110  0.14287  0.69780  Biso   1.000  O
  C254     1.0000 0.41807  0.80107  0.36400  Biso   1.000  C
  C255     1.0000 0.41142  0.84040  0.33500  Biso   1.000  C
  H93      1.0000 0.42310  0.86680  0.35000  Biso   1.000  H
  C256     1.0000 0.38716  0.84016  0.28330  Biso   1.000  C
  C257     1.0000 0.37087  0.80148  0.26150  Biso   1.000  C
  H94      1.0000 0.35380  0.80160  0.22690  Biso   1.000  H
  C258     1.0000 0.37943  0.76177  0.29020  Biso   1.000  C
  C259     1.0000 0.40342  0.76187  0.34130  Biso   1.000  C
  H95      1.0000 0.40980  0.73520  0.36060  Biso   1.000  H
  C260     1.0000 0.44645  0.80143  0.41897  Biso   1.000  C
  C261     1.0000 0.36580  0.72014  0.26160  Biso   1.000  C
  C262     1.0000 0.46067  0.67961  0.12570  Biso   1.000  C
  C263     1.0000 0.46074  0.70798  0.07740  Biso   1.000  C
  H96      1.0000 0.43390  0.71770  0.06120  Biso   1.000  H
  C264     1.0000 0.41839  0.66673  0.15390  Biso   1.000  C
  O139     1.0000 0.45602  0.83794  0.43931  Biso   1.000  O
  O140     1.0000 0.45598  0.76526  0.43923  Biso   1.000  O
  O141     1.0000 0.34211  0.72249  0.21757  Biso   1.000  O
  O142     1.0000 0.37864  0.68534  0.28648  Biso   1.000  O
  O143     1.0000 0.38415  0.68030  0.13076  Biso   1.000  O
  O144     1.0000 0.42110  0.64287  0.19780  Biso   1.000  O
  C265     1.0000 0.30107  0.91807  0.13600  Biso   1.000  C
  C266     1.0000 0.34040  0.91142  0.16500  Biso   1.000  C
  H97      1.0000 0.36680  0.92310  0.15000  Biso   1.000  H
  C267     1.0000 0.34016  0.88716  0.21670  Biso   1.000  C
  C268     1.0000 0.30148  0.87087  0.23850  Biso   1.000  C
  H98      1.0000 0.30160  0.85380  0.27310  Biso   1.000  H
  C269     1.0000 0.26177  0.87943  0.20980  Biso   1.000  C
  C270     1.0000 0.26187  0.90342  0.15870  Biso   1.000  C
  H99      1.0000 0.23520  0.90980  0.13940  Biso   1.000  H
  C271     1.0000 0.30143  0.94645  0.08103  Biso   1.000  C
  C272     1.0000 0.22014  0.86580  0.23840  Biso   1.000  C
  C273     1.0000 0.17961  0.96067  0.37430  Biso   1.000  C
  C274     1.0000 0.20798  0.96074  0.42260  Biso   1.000  C
  H100     1.0000 0.21770  0.93390  0.43880  Biso   1.000  H
  C275     1.0000 0.16673  0.91839  0.34610  Biso   1.000  C
  O145     1.0000 0.33794  0.95602  0.06069  Biso   1.000  O
  O146     1.0000 0.26526  0.95598  0.06077  Biso   1.000  O
  O147     1.0000 0.22249  0.84211  0.28243  Biso   1.000  O
  O148     1.0000 0.18534  0.87864  0.21352  Biso   1.000  O
  O149     1.0000 0.18030  0.88415  0.36924  Biso   1.000  O
  O150     1.0000 0.14287  0.92110  0.30220  Biso   1.000  O
  C276     1.0000 0.80107  0.41807  0.63600  Biso   1.000  C
  C277     1.0000 0.84040  0.41142  0.66500  Biso   1.000  C
  H101     1.0000 0.86680  0.42310  0.65000  Biso   1.000  H
  C278     1.0000 0.84016  0.38716  0.71670  Biso   1.000  C
  C279     1.0000 0.80148  0.37087  0.73850  Biso   1.000  C
  H102     1.0000 0.80160  0.35380  0.77310  Biso   1.000  H
  C280     1.0000 0.76177  0.37943  0.70980  Biso   1.000  C
  C281     1.0000 0.76187  0.40342  0.65870  Biso   1.000  C
  H103     1.0000 0.73520  0.40980  0.63940  Biso   1.000  H
  C282     1.0000 0.80143  0.44645  0.58103  Biso   1.000  C
  C283     1.0000 0.72014  0.36580  0.73840  Biso   1.000  C
  C284     1.0000 0.67961  0.46067  0.87430  Biso   1.000  C
  C285     1.0000 0.70798  0.46074  0.92260  Biso   1.000  C
  H104     1.0000 0.71770  0.43390  0.93880  Biso   1.000  H
  C286     1.0000 0.66673  0.41839  0.84610  Biso   1.000  C
  O151     1.0000 0.83794  0.45602  0.56069  Biso   1.000  O
  O152     1.0000 0.76526  0.45598  0.56077  Biso   1.000  O
  O153     1.0000 0.72249  0.34211  0.78243  Biso   1.000  O
  O154     1.0000 0.68534  0.37864  0.71352  Biso   1.000  O
  O155     1.0000 0.68030  0.38415  0.86924  Biso   1.000  O
  O156     1.0000 0.64287  0.42110  0.80220  Biso   1.000  O
  C287     1.0000 0.69893  0.08193  0.13600  Biso   1.000  C
  C288     1.0000 0.65960  0.08858  0.16500  Biso   1.000  C
  H105     1.0000 0.63320  0.07690  0.15000  Biso   1.000  H
  C289     1.0000 0.65984  0.11284  0.21670  Biso   1.000  C
  C290     1.0000 0.69852  0.12913  0.23850  Biso   1.000  C
  H106     1.0000 0.69840  0.14620  0.27310  Biso   1.000  H
  C291     1.0000 0.73823  0.12057  0.20980  Biso   1.000  C
  C292     1.0000 0.73813  0.09658  0.15870  Biso   1.000  C
  H107     1.0000 0.76480  0.09020  0.13940  Biso   1.000  H
  C293     1.0000 0.69857  0.05355  0.08103  Biso   1.000  C
  C294     1.0000 0.77986  0.13420  0.23840  Biso   1.000  C
  C295     1.0000 0.82039  0.03933  0.37430  Biso   1.000  C
  C296     1.0000 0.79202  0.03926  0.42260  Biso   1.000  C
  H108     1.0000 0.78230  0.06610  0.43880  Biso   1.000  H
  C297     1.0000 0.83327  0.08161  0.34610  Biso   1.000  C
  O157     1.0000 0.66206  0.04398  0.06069  Biso   1.000  O
  O158     1.0000 0.73474  0.04402  0.06077  Biso   1.000  O
  O159     1.0000 0.77751  0.15789  0.28243  Biso   1.000  O
  O160     1.0000 0.81466  0.12136  0.21352  Biso   1.000  O
  O161     1.0000 0.81970  0.11585  0.36924  Biso   1.000  O
  O162     1.0000 0.85713  0.07890  0.30220  Biso   1.000  O
  C298     1.0000 0.19893  0.58193  0.63600  Biso   1.000  C
  C299     1.0000 0.15960  0.58858  0.66500  Biso   1.000  C
  H109     1.0000 0.13320  0.57690  0.65000  Biso   1.000  H
  C300     1.0000 0.15984  0.61284  0.71670  Biso   1.000  C
  C301     1.0000 0.19852  0.62913  0.73850  Biso   1.000  C
  H110     1.0000 0.19840  0.64620  0.77310  Biso   1.000  H
  C302     1.0000 0.23823  0.62057  0.70980  Biso   1.000  C
  C303     1.0000 0.23813  0.59658  0.65870  Biso   1.000  C
  H111     1.0000 0.26480  0.59020  0.63940  Biso   1.000  H
  C304     1.0000 0.19857  0.55355  0.58103  Biso   1.000  C
  C305     1.0000 0.27986  0.63420  0.73840  Biso   1.000  C
  C306     1.0000 0.32039  0.53933  0.87430  Biso   1.000  C
  C307     1.0000 0.29202  0.53926  0.92260  Biso   1.000  C
  H112     1.0000 0.28230  0.56610  0.93880  Biso   1.000  H
  C308     1.0000 0.33327  0.58161  0.84610  Biso   1.000  C
  O163     1.0000 0.16206  0.54398  0.56069  Biso   1.000  O
  O164     1.0000 0.23474  0.54402  0.56077  Biso   1.000  O
  O165     1.0000 0.27751  0.65789  0.78243  Biso   1.000  O
  O166     1.0000 0.31466  0.62136  0.71352  Biso   1.000  O
  O167     1.0000 0.31970  0.61585  0.86924  Biso   1.000  O
  O168     1.0000 0.35713  0.57890  0.80220  Biso   1.000  O
  C309     1.0000 0.91807  0.69893  0.13600  Biso   1.000  C
  C310     1.0000 0.91142  0.65960  0.16500  Biso   1.000  C
  H113     1.0000 0.92310  0.63320  0.15000  Biso   1.000  H
  C311     1.0000 0.88716  0.65984  0.21670  Biso   1.000  C
  C312     1.0000 0.87087  0.69852  0.23850  Biso   1.000  C
  H114     1.0000 0.85380  0.69840  0.27310  Biso   1.000  H
  C313     1.0000 0.87943  0.73823  0.20980  Biso   1.000  C
  C314     1.0000 0.90342  0.73813  0.15870  Biso   1.000  C
  H115     1.0000 0.90980  0.76480  0.13940  Biso   1.000  H
  C315     1.0000 0.94645  0.69857  0.08103  Biso   1.000  C
  C316     1.0000 0.86580  0.77986  0.23840  Biso   1.000  C
  C317     1.0000 0.96067  0.82039  0.37430  Biso   1.000  C
  C318     1.0000 0.96074  0.79202  0.42260  Biso   1.000  C
  H116     1.0000 0.93390  0.78230  0.43880  Biso   1.000  H
  C319     1.0000 0.91839  0.83327  0.34610  Biso   1.000  C
  O169     1.0000 0.95602  0.66206  0.06069  Biso   1.000  O
  O170     1.0000 0.95598  0.73474  0.06077  Biso   1.000  O
  O171     1.0000 0.84211  0.77751  0.28243  Biso   1.000  O
  O172     1.0000 0.87864  0.81466  0.21352  Biso   1.000  O
  O173     1.0000 0.88415  0.81970  0.36924  Biso   1.000  O
  O174     1.0000 0.92110  0.85713  0.30220  Biso   1.000  O
  C320     1.0000 0.41807  0.19893  0.63600  Biso   1.000  C
  C321     1.0000 0.41142  0.15960  0.66500  Biso   1.000  C
  H117     1.0000 0.42310  0.13320  0.65000  Biso   1.000  H
  C322     1.0000 0.38716  0.15984  0.71670  Biso   1.000  C
  C323     1.0000 0.37087  0.19852  0.73850  Biso   1.000  C
  H118     1.0000 0.35380  0.19840  0.77310  Biso   1.000  H
  C324     1.0000 0.37943  0.23823  0.70980  Biso   1.000  C
  C325     1.0000 0.40342  0.23813  0.65870  Biso   1.000  C
  H119     1.0000 0.40980  0.26480  0.63940  Biso   1.000  H
  C326     1.0000 0.44645  0.19857  0.58103  Biso   1.000  C
  C327     1.0000 0.36580  0.27986  0.73840  Biso   1.000  C
  C328     1.0000 0.46067  0.32039  0.87430  Biso   1.000  C
  C329     1.0000 0.46074  0.29202  0.92260  Biso   1.000  C
  H120     1.0000 0.43390  0.28230  0.93880  Biso   1.000  H
  C330     1.0000 0.41839  0.33327  0.84610  Biso   1.000  C
  O175     1.0000 0.45602  0.16206  0.56069  Biso   1.000  O
  O176     1.0000 0.45598  0.23474  0.56077  Biso   1.000  O
  O177     1.0000 0.34211  0.27751  0.78243  Biso   1.000  O
  O178     1.0000 0.37864  0.31466  0.71352  Biso   1.000  O
  O179     1.0000 0.38415  0.31970  0.86924  Biso   1.000  O
  O180     1.0000 0.42110  0.35713  0.80220  Biso   1.000  O
  C331     1.0000 0.08193  0.30107  0.13600  Biso   1.000  C
  C332     1.0000 0.08858  0.34040  0.16500  Biso   1.000  C
  H121     1.0000 0.07690  0.36680  0.15000  Biso   1.000  H
  C333     1.0000 0.11284  0.34016  0.21670  Biso   1.000  C
  C334     1.0000 0.12913  0.30148  0.23850  Biso   1.000  C
  H122     1.0000 0.14620  0.30160  0.27310  Biso   1.000  H
  C335     1.0000 0.12057  0.26177  0.20980  Biso   1.000  C
  C336     1.0000 0.09658  0.26187  0.15870  Biso   1.000  C
  H123     1.0000 0.09020  0.23520  0.13940  Biso   1.000  H
  C337     1.0000 0.05355  0.30143  0.08103  Biso   1.000  C
  C338     1.0000 0.13420  0.22014  0.23840  Biso   1.000  C
  C339     1.0000 0.03933  0.17961  0.37430  Biso   1.000  C
  C340     1.0000 0.03926  0.20798  0.42260  Biso   1.000  C
  H124     1.0000 0.06610  0.21770  0.43880  Biso   1.000  H
  C341     1.0000 0.08161  0.16673  0.34610  Biso   1.000  C
  O181     1.0000 0.04398  0.33794  0.06069  Biso   1.000  O
  O182     1.0000 0.04402  0.26526  0.06077  Biso   1.000  O
  O183     1.0000 0.15789  0.22249  0.28243  Biso   1.000  O
  O184     1.0000 0.12136  0.18534  0.21352  Biso   1.000  O
  O185     1.0000 0.11585  0.18030  0.36924  Biso   1.000  O
  O186     1.0000 0.07890  0.14287  0.30220  Biso   1.000  O
  C342     1.0000 0.58193  0.80107  0.63600  Biso   1.000  C
  C343     1.0000 0.58858  0.84040  0.66500  Biso   1.000  C
  H125     1.0000 0.57690  0.86680  0.65000  Biso   1.000  H
  C344     1.0000 0.61284  0.84016  0.71670  Biso   1.000  C
  C345     1.0000 0.62913  0.80148  0.73850  Biso   1.000  C
  H126     1.0000 0.64620  0.80160  0.77310  Biso   1.000  H
  C346     1.0000 0.62057  0.76177  0.70980  Biso   1.000  C
  C347     1.0000 0.59658  0.76187  0.65870  Biso   1.000  C
  H127     1.0000 0.59020  0.73520  0.63940  Biso   1.000  H
  C348     1.0000 0.55355  0.80143  0.58103  Biso   1.000  C
  C349     1.0000 0.63420  0.72014  0.73840  Biso   1.000  C
  C350     1.0000 0.53933  0.67961  0.87430  Biso   1.000  C
  C351     1.0000 0.53926  0.70798  0.92260  Biso   1.000  C
  H128     1.0000 0.56610  0.71770  0.93880  Biso   1.000  H
  C352     1.0000 0.58161  0.66673  0.84610  Biso   1.000  C
  O187     1.0000 0.54398  0.83794  0.56069  Biso   1.000  O
  O188     1.0000 0.54402  0.76526  0.56077  Biso   1.000  O
  O189     1.0000 0.65789  0.72249  0.78243  Biso   1.000  O
  O190     1.0000 0.62136  0.68534  0.71352  Biso   1.000  O
  O191     1.0000 0.61585  0.68030  0.86924  Biso   1.000  O
  O192     1.0000 0.57890  0.64287  0.80220  Biso   1.000  O
  Cu1      1.0000 0.34514  0.00000  0.00000  Biso   1.000  Cu
  Cu2      1.0000 0.25826  0.00000  0.00000  Biso   1.000  Cu
  Cu3      1.0000 0.84514  0.50000  0.50000  Biso   1.000  Cu
  Cu4      1.0000 0.75826  0.50000  0.50000  Biso   1.000  Cu
  Cu5      1.0000 0.65486  0.00000  0.00000  Biso   1.000  Cu
  Cu6      1.0000 0.74174  0.00000  0.00000  Biso   1.000  Cu
  Cu7      1.0000 0.15486  0.50000  0.50000  Biso   1.000  Cu
  Cu8      1.0000 0.24174  0.50000  0.50000  Biso   1.000  Cu
  Cu9      1.0000 0.00000  0.34514  0.00000  Biso   1.000  Cu
  Cu10     1.0000 0.00000  0.25826  0.00000  Biso   1.000  Cu
  Cu11     1.0000 0.50000  0.84514  0.50000  Biso   1.000  Cu
  Cu12     1.0000 0.50000  0.75826  0.50000  Biso   1.000  Cu
  Cu13     1.0000 0.00000  0.65486  0.00000  Biso   1.000  Cu
  Cu14     1.0000 0.00000  0.74174  0.00000  Biso   1.000  Cu
  Cu15     1.0000 0.50000  0.15486  0.50000  Biso   1.000  Cu
  Cu16     1.0000 0.50000  0.24174  0.50000  Biso   1.000  Cu
  Cu17     1.0000 0.17274  0.17274  0.33196  Biso   1.000  Cu
  Cu18     1.0000 0.12843  0.12843  0.25204  Biso   1.000  Cu
  Cu19     1.0000 0.67274  0.67274  0.83196  Biso   1.000  Cu
  Cu20     1.0000 0.62843  0.62843  0.75204  Biso   1.000  Cu
  Cu21     1.0000 0.82726  0.82726  0.33196  Biso   1.000  Cu
  Cu22     1.0000 0.87157  0.87157  0.25204  Biso   1.000  Cu
  Cu23     1.0000 0.32726  0.32726  0.83196  Biso   1.000  Cu
  Cu24     1.0000 0.37157  0.37157  0.75204  Biso   1.000  Cu
  Cu25     1.0000 0.82726  0.17274  0.33196  Biso   1.000  Cu
  Cu26     1.0000 0.87157  0.12843  0.25204  Biso   1.000  Cu
  Cu27     1.0000 0.32726  0.67274  0.83196  Biso   1.000  Cu
  Cu28     1.0000 0.37157  0.62843  0.75204  Biso   1.000  Cu
  Cu29     1.0000 0.17274  0.82726  0.33196  Biso   1.000  Cu
  Cu30     1.0000 0.12843  0.87157  0.25204  Biso   1.000  Cu
  Cu31     1.0000 0.67274  0.32726  0.83196  Biso   1.000  Cu
  Cu32     1.0000 0.62843  0.37157  0.75204  Biso   1.000  Cu
  Cu33     1.0000 0.82726  0.17274  0.66804  Biso   1.000  Cu
  Cu34     1.0000 0.87157  0.12843  0.74796  Biso   1.000  Cu
  Cu35     1.0000 0.32726  0.67274  0.16804  Biso   1.000  Cu
  Cu36     1.0000 0.37157  0.62843  0.24796  Biso   1.000  Cu
  Cu37     1.0000 0.17274  0.82726  0.66804  Biso   1.000  Cu
  Cu38     1.0000 0.12843  0.87157  0.74796  Biso   1.000  Cu
  Cu39     1.0000 0.67274  0.32726  0.16804  Biso   1.000  Cu
  Cu40     1.0000 0.62843  0.37157  0.24796  Biso   1.000  Cu
  Cu41     1.0000 0.17274  0.17274  0.66804  Biso   1.000  Cu
  Cu42     1.0000 0.12843  0.12843  0.74796  Biso   1.000  Cu
  Cu43     1.0000 0.67274  0.67274  0.16804  Biso   1.000  Cu
  Cu44     1.0000 0.62843  0.62843  0.24796  Biso   1.000  Cu
  Cu45     1.0000 0.82726  0.82726  0.66804  Biso   1.000  Cu
  Cu46     1.0000 0.87157  0.87157  0.74796  Biso   1.000  Cu
  Cu47     1.0000 0.32726  0.32726  0.16804  Biso   1.000  Cu
  Cu48     1.0000 0.37157  0.37157  0.24796  Biso   1.000  Cu
  C353     1.0000 0.38190  0.11810  0.25000  Biso   1.000  C
  O193     1.0000 0.40993  0.09007  0.25000  Biso   1.000  O
  C354     1.0000 0.61810  0.88190  0.25000  Biso   1.000  C
  O194     1.0000 0.59007  0.90993  0.25000  Biso   1.000  O
  C355     1.0000 0.88190  0.38190  0.25000  Biso   1.000  C
  O195     1.0000 0.90993  0.40993  0.25000  Biso   1.000  O
  C356     1.0000 0.11810  0.61810  0.25000  Biso   1.000  C
  O196     1.0000 0.09007  0.59007  0.25000  Biso   1.000  O
  C357     1.0000 0.61810  0.11810  0.75000  Biso   1.000  C
  O197     1.0000 0.59007  0.09007  0.75000  Biso   1.000  O
  C358     1.0000 0.38190  0.88190  0.75000  Biso   1.000  C
  O198     1.0000 0.40993  0.90993  0.75000  Biso   1.000  O
  C359     1.0000 0.11810  0.38190  0.75000  Biso   1.000  C
  O199     1.0000 0.09007  0.40993  0.75000  Biso   1.000  O
  C360     1.0000 0.88190  0.61810  0.75000  Biso   1.000  C
  O200     1.0000 0.90993  0.59007  0.75000  Biso   1.000  O
  C361     1.0000 0.61810  0.88190  0.75000  Biso   1.000  C
  O201     1.0000 0.59007  0.90993  0.75000  Biso   1.000  O
  C362     1.0000 0.11810  0.38190  0.25000  Biso   1.000  C
  O202     1.0000 0.09007  0.40993  0.25000  Biso   1.000  O
  C363     1.0000 0.38190  0.11810  0.75000  Biso   1.000  C
  O203     1.0000 0.40993  0.09007  0.75000  Biso   1.000  O
  C364     1.0000 0.11810  0.61810  0.75000  Biso   1.000  C
  O204     1.0000 0.09007  0.59007  0.75000  Biso   1.000  O
  C365     1.0000 0.88190  0.38190  0.75000  Biso   1.000  C
  O205     1.0000 0.90993  0.40993  0.75000  Biso   1.000  O
  C366     1.0000 0.38190  0.88190  0.25000  Biso   1.000  C
  O206     1.0000 0.40993  0.90993  0.25000  Biso   1.000  O
  C367     1.0000 0.61810  0.11810  0.25000  Biso   1.000  C
  O207     1.0000 0.59007  0.09007  0.25000  Biso   1.000  O
  C368     1.0000 0.88190  0.61810  0.25000  Biso   1.000  C
  O208     1.0000 0.90993  0.59007  0.25000  Biso   1.000  O
  C369     1.0000 0.22180  0.00000  0.44660  Biso   1.000  C
  C370     1.0000 0.16550  0.00000  0.35040  Biso   1.000  C
  H129     1.0000 0.14640  0.00000  0.31790  Biso   1.000  H
  C371     1.0000 0.72180  0.50000  0.94660  Biso   1.000  C
  C372     1.0000 0.66550  0.50000  0.85040  Biso   1.000  C
  H130     1.0000 0.64640  0.50000  0.81790  Biso   1.000  H
  C373     1.0000 0.77820  0.00000  0.44660  Biso   1.000  C
  C374     1.0000 0.83450  0.00000  0.35040  Biso   1.000  C
  H131     1.0000 0.85360  0.00000  0.31790  Biso   1.000  H
  C375     1.0000 0.27820  0.50000  0.94660  Biso   1.000  C
  C376     1.0000 0.33450  0.50000  0.85040  Biso   1.000  C
  H132     1.0000 0.35360  0.50000  0.81790  Biso   1.000  H
  C377     1.0000 0.00000  0.22180  0.44660  Biso   1.000  C
  C378     1.0000 0.00000  0.16550  0.35040  Biso   1.000  C
  H133     1.0000 0.00000  0.14640  0.31790  Biso   1.000  H
  C379     1.0000 0.50000  0.72180  0.94660  Biso   1.000  C
  C380     1.0000 0.50000  0.66550  0.85040  Biso   1.000  C
  H134     1.0000 0.50000  0.64640  0.81790  Biso   1.000  H
  C381     1.0000 0.00000  0.77820  0.44660  Biso   1.000  C
  C382     1.0000 0.00000  0.83450  0.35040  Biso   1.000  C
  H135     1.0000 0.00000  0.85360  0.31790  Biso   1.000  H
  C383     1.0000 0.50000  0.27820  0.94660  Biso   1.000  C
  C384     1.0000 0.50000  0.33450  0.85040  Biso   1.000  C
  H136     1.0000 0.50000  0.35360  0.81790  Biso   1.000  H
  C385     1.0000 0.77820  0.00000  0.55340  Biso   1.000  C
  C386     1.0000 0.83450  0.00000  0.64960  Biso   1.000  C
  H137     1.0000 0.85360  0.00000  0.68210  Biso   1.000  H
  C387     1.0000 0.27820  0.50000  0.05340  Biso   1.000  C
  C388     1.0000 0.33450  0.50000  0.14960  Biso   1.000  C
  H138     1.0000 0.35360  0.50000  0.18210  Biso   1.000  H
  C389     1.0000 0.22180  0.00000  0.55340  Biso   1.000  C
  C390     1.0000 0.16550  0.00000  0.64960  Biso   1.000  C
  H139     1.0000 0.14640  0.00000  0.68210  Biso   1.000  H
  C391     1.0000 0.72180  0.50000  0.05340  Biso   1.000  C
  C392     1.0000 0.66550  0.50000  0.14960  Biso   1.000  C
  H140     1.0000 0.64640  0.50000  0.18210  Biso   1.000  H
  C393     1.0000 0.00000  0.22180  0.55340  Biso   1.000  C
  C394     1.0000 0.00000  0.16550  0.64960  Biso   1.000  C
  H141     1.0000 0.00000  0.14640  0.68210  Biso   1.000  H
  C395     1.0000 0.50000  0.72180  0.05340  Biso   1.000  C
  C396     1.0000 0.50000  0.66550  0.14960  Biso   1.000  C
  H142     1.0000 0.50000  0.64640  0.18210  Biso   1.000  H
  C397     1.0000 0.00000  0.77820  0.55340  Biso   1.000  C
  C398     1.0000 0.00000  0.83450  0.64960  Biso   1.000  C
  H143     1.0000 0.00000  0.85360  0.68210  Biso   1.000  H
  C399     1.0000 0.50000  0.27820  0.05340  Biso   1.000  C
  C400     1.0000 0.50000  0.33450  0.14960  Biso   1.000  C
  H144     1.0000 0.50000  0.35360  0.18210  Biso   1.000  H
  C401     1.0000 0.25240  0.00000  0.50000  Biso   1.000  C
  C402     1.0000 0.75240  0.50000  0.00000  Biso   1.000  C
  C403     1.0000 0.74760  0.00000  0.50000  Biso   1.000  C
  C404     1.0000 0.24760  0.50000  0.00000  Biso   1.000  C
  C405     1.0000 0.00000  0.25240  0.50000  Biso   1.000  C
  C406     1.0000 0.50000  0.75240  0.00000  Biso   1.000  C
  C407     1.0000 0.00000  0.74760  0.50000  Biso   1.000  C
  C408     1.0000 0.50000  0.24760  0.00000  Biso   1.000  C
  O209     1.0000 0.27740  0.03760  0.50000  Biso   1.000  O
  O210     1.0000 0.77740  0.53760  0.00000  Biso   1.000  O
  O211     1.0000 0.72260  0.96240  0.50000  Biso   1.000  O
  O212     1.0000 0.22260  0.46240  0.00000  Biso   1.000  O
  O213     1.0000 0.96240  0.27740  0.50000  Biso   1.000  O
  O214     1.0000 0.46240  0.77740  0.00000  Biso   1.000  O
  O215     1.0000 0.03760  0.72260  0.50000  Biso   1.000  O
  O216     1.0000 0.53760  0.22260  0.00000  Biso   1.000  O
  O217     1.0000 0.72260  0.03760  0.50000  Biso   1.000  O
  O218     1.0000 0.22260  0.53760  0.00000  Biso   1.000  O
  O219     1.0000 0.27740  0.96240  0.50000  Biso   1.000  O
  O220     1.0000 0.77740  0.46240  0.00000  Biso   1.000  O
  O221     1.0000 0.03760  0.27740  0.50000  Biso   1.000  O
  O222     1.0000 0.53760  0.77740  0.00000  Biso   1.000  O
  O223     1.0000 0.96240  0.72260  0.50000  Biso   1.000  O
  O224     1.0000 0.46240  0.22260  0.00000  Biso   1.000  O
