data_image0
_cell_length_a       26.865
_cell_length_b       26.865
_cell_length_c       26.865
_cell_angle_alpha    90
_cell_angle_beta     90
_cell_angle_gamma    90

_symmetry_space_group_name_H-M    "P 1"
_symmetry_int_tables_number       1

loop_
  _symmetry_equiv_pos_as_xyz
  'x, y, z'

loop_
  _atom_site_label
  _atom_site_occupancy
  _atom_site_fract_x
  _atom_site_fract_y
  _atom_site_fract_z
  _atom_site_thermal_displace_type
  _atom_site_B_iso_or_equiv
  _atom_site_type_symbol
  O1       1.0000 0.94690  0.50110  0.08340  Biso   1.000  O
  O2       1.0000 0.02160  0.53020  0.08970  Biso   1.000  O
  O3       1.0000 0.97150  0.58340  0.34090  Biso   1.000  O
  O4       1.0000 0.89230  0.58020  0.32570  Biso   1.000  O
  C1       1.0000 0.98070  0.52320  0.10840  Biso   1.000  C
  C2       1.0000 0.96900  0.54030  0.15950  Biso   1.000  C
  C3       1.0000 0.00760  0.55140  0.19170  Biso   1.000  C
  C4       1.0000 0.99710  0.56480  0.24140  Biso   1.000  C
  C5       1.0000 0.94780  0.56800  0.25720  Biso   1.000  C
  C6       1.0000 0.90980  0.55760  0.22390  Biso   1.000  C
  C7       1.0000 0.92140  0.54390  0.17610  Biso   1.000  C
  H1       1.0000 0.89560  0.53670  0.15410  Biso   1.000  H
  C8       1.0000 0.93600  0.57780  0.31120  Biso   1.000  C
  N1       1.0000 0.03750  0.57860  0.26840  Biso   1.000  N
  H2       1.0000 0.03370  0.59050  0.29790  Biso   1.000  H
  H3       1.0000 0.06690  0.57550  0.25610  Biso   1.000  H
  N2       1.0000 0.05900  0.54420  0.18270  Biso   1.000  N
  H4       1.0000 0.06880  0.53180  0.15480  Biso   1.000  H
  H5       1.0000 0.08050  0.55220  0.20500  Biso   1.000  H
  N3       1.0000 0.86140  0.56110  0.23430  Biso   1.000  N
  H6       1.0000 0.83970  0.55480  0.21170  Biso   1.000  H
  H7       1.0000 0.85200  0.56960  0.26370  Biso   1.000  H
  O5       1.0000 0.44690  0.00110  0.58340  Biso   1.000  O
  O6       1.0000 0.52160  0.03020  0.58970  Biso   1.000  O
  O7       1.0000 0.47150  0.08340  0.84090  Biso   1.000  O
  O8       1.0000 0.39230  0.08020  0.82570  Biso   1.000  O
  C9       1.0000 0.48070  0.02320  0.60840  Biso   1.000  C
  C10      1.0000 0.46900  0.04030  0.65950  Biso   1.000  C
  C11      1.0000 0.50760  0.05140  0.69170  Biso   1.000  C
  C12      1.0000 0.49710  0.06480  0.74140  Biso   1.000  C
  C13      1.0000 0.44780  0.06800  0.75720  Biso   1.000  C
  C14      1.0000 0.40980  0.05760  0.72390  Biso   1.000  C
  C15      1.0000 0.42140  0.04390  0.67610  Biso   1.000  C
  H8       1.0000 0.39560  0.03670  0.65410  Biso   1.000  H
  C16      1.0000 0.43600  0.07780  0.81120  Biso   1.000  C
  N4       1.0000 0.53750  0.07860  0.76840  Biso   1.000  N
  H9       1.0000 0.53370  0.09050  0.79790  Biso   1.000  H
  H10      1.0000 0.56690  0.07550  0.75610  Biso   1.000  H
  N5       1.0000 0.55900  0.04420  0.68270  Biso   1.000  N
  H11      1.0000 0.56880  0.03180  0.65480  Biso   1.000  H
  H12      1.0000 0.58050  0.05220  0.70500  Biso   1.000  H
  N6       1.0000 0.36140  0.06110  0.73430  Biso   1.000  N
  H13      1.0000 0.33970  0.05480  0.71170  Biso   1.000  H
  H14      1.0000 0.35200  0.06960  0.76370  Biso   1.000  H
  O9       1.0000 0.55310  0.49890  0.58340  Biso   1.000  O
  O10      1.0000 0.47840  0.46980  0.58970  Biso   1.000  O
  O11      1.0000 0.52850  0.41660  0.84090  Biso   1.000  O
  O12      1.0000 0.60770  0.41980  0.82570  Biso   1.000  O
  C17      1.0000 0.51930  0.47680  0.60840  Biso   1.000  C
  C18      1.0000 0.53100  0.45970  0.65950  Biso   1.000  C
  C19      1.0000 0.49240  0.44860  0.69170  Biso   1.000  C
  C20      1.0000 0.50290  0.43520  0.74140  Biso   1.000  C
  C21      1.0000 0.55220  0.43200  0.75720  Biso   1.000  C
  C22      1.0000 0.59020  0.44240  0.72390  Biso   1.000  C
  C23      1.0000 0.57860  0.45610  0.67610  Biso   1.000  C
  H15      1.0000 0.60440  0.46330  0.65410  Biso   1.000  H
  C24      1.0000 0.56400  0.42220  0.81120  Biso   1.000  C
  N7       1.0000 0.46250  0.42140  0.76840  Biso   1.000  N
  H16      1.0000 0.46630  0.40950  0.79790  Biso   1.000  H
  H17      1.0000 0.43310  0.42450  0.75610  Biso   1.000  H
  N8       1.0000 0.44100  0.45580  0.68270  Biso   1.000  N
  H18      1.0000 0.43120  0.46820  0.65480  Biso   1.000  H
  H19      1.0000 0.41950  0.44780  0.70500  Biso   1.000  H
  N9       1.0000 0.63860  0.43890  0.73430  Biso   1.000  N
  H20      1.0000 0.66030  0.44520  0.71170  Biso   1.000  H
  H21      1.0000 0.64800  0.43040  0.76370  Biso   1.000  H
  O13      1.0000 0.05310  0.99890  0.08340  Biso   1.000  O
  O14      1.0000 0.97840  0.96980  0.08970  Biso   1.000  O
  O15      1.0000 0.02850  0.91660  0.34090  Biso   1.000  O
  O16      1.0000 0.10770  0.91980  0.32570  Biso   1.000  O
  C25      1.0000 0.01930  0.97680  0.10840  Biso   1.000  C
  C26      1.0000 0.03100  0.95970  0.15950  Biso   1.000  C
  C27      1.0000 0.99240  0.94860  0.19170  Biso   1.000  C
  C28      1.0000 0.00290  0.93520  0.24140  Biso   1.000  C
  C29      1.0000 0.05220  0.93200  0.25720  Biso   1.000  C
  C30      1.0000 0.09020  0.94240  0.22390  Biso   1.000  C
  C31      1.0000 0.07860  0.95610  0.17610  Biso   1.000  C
  H22      1.0000 0.10440  0.96330  0.15410  Biso   1.000  H
  C32      1.0000 0.06400  0.92220  0.31120  Biso   1.000  C
  N10      1.0000 0.96250  0.92140  0.26840  Biso   1.000  N
  H23      1.0000 0.96630  0.90950  0.29790  Biso   1.000  H
  H24      1.0000 0.93310  0.92450  0.25610  Biso   1.000  H
  N11      1.0000 0.94100  0.95580  0.18270  Biso   1.000  N
  H25      1.0000 0.93120  0.96820  0.15480  Biso   1.000  H
  H26      1.0000 0.91950  0.94780  0.20500  Biso   1.000  H
  N12      1.0000 0.13860  0.93890  0.23430  Biso   1.000  N
  H27      1.0000 0.16030  0.94520  0.21170  Biso   1.000  H
  H28      1.0000 0.14800  0.93040  0.26370  Biso   1.000  H
  O17      1.0000 0.05310  0.00110  0.41660  Biso   1.000  O
  O18      1.0000 0.97840  0.03020  0.41030  Biso   1.000  O
  O19      1.0000 0.02850  0.08340  0.15910  Biso   1.000  O
  O20      1.0000 0.10770  0.08020  0.17430  Biso   1.000  O
  C33      1.0000 0.01930  0.02320  0.39160  Biso   1.000  C
  C34      1.0000 0.03100  0.04030  0.34050  Biso   1.000  C
  C35      1.0000 0.99240  0.05140  0.30830  Biso   1.000  C
  C36      1.0000 0.00290  0.06480  0.25860  Biso   1.000  C
  C37      1.0000 0.05220  0.06800  0.24280  Biso   1.000  C
  C38      1.0000 0.09020  0.05760  0.27610  Biso   1.000  C
  C39      1.0000 0.07860  0.04390  0.32390  Biso   1.000  C
  H29      1.0000 0.10440  0.03670  0.34590  Biso   1.000  H
  C40      1.0000 0.06400  0.07780  0.18880  Biso   1.000  C
  N13      1.0000 0.96250  0.07860  0.23160  Biso   1.000  N
  H30      1.0000 0.96630  0.09050  0.20210  Biso   1.000  H
  H31      1.0000 0.93310  0.07550  0.24390  Biso   1.000  H
  N14      1.0000 0.94100  0.04420  0.31730  Biso   1.000  N
  H32      1.0000 0.93120  0.03180  0.34520  Biso   1.000  H
  H33      1.0000 0.91950  0.05220  0.29500  Biso   1.000  H
  N15      1.0000 0.13860  0.06110  0.26570  Biso   1.000  N
  H34      1.0000 0.16030  0.05480  0.28830  Biso   1.000  H
  H35      1.0000 0.14800  0.06960  0.23630  Biso   1.000  H
  O21      1.0000 0.55310  0.50110  0.91660  Biso   1.000  O
  O22      1.0000 0.47840  0.53020  0.91030  Biso   1.000  O
  O23      1.0000 0.52850  0.58340  0.65910  Biso   1.000  O
  O24      1.0000 0.60770  0.58020  0.67430  Biso   1.000  O
  C41      1.0000 0.51930  0.52320  0.89160  Biso   1.000  C
  C42      1.0000 0.53100  0.54030  0.84050  Biso   1.000  C
  C43      1.0000 0.49240  0.55140  0.80830  Biso   1.000  C
  C44      1.0000 0.50290  0.56480  0.75860  Biso   1.000  C
  C45      1.0000 0.55220  0.56800  0.74280  Biso   1.000  C
  C46      1.0000 0.59020  0.55760  0.77610  Biso   1.000  C
  C47      1.0000 0.57860  0.54390  0.82390  Biso   1.000  C
  H36      1.0000 0.60440  0.53670  0.84590  Biso   1.000  H
  C48      1.0000 0.56400  0.57780  0.68880  Biso   1.000  C
  N16      1.0000 0.46250  0.57860  0.73160  Biso   1.000  N
  H37      1.0000 0.46630  0.59050  0.70210  Biso   1.000  H
  H38      1.0000 0.43310  0.57550  0.74390  Biso   1.000  H
  N17      1.0000 0.44100  0.54420  0.81730  Biso   1.000  N
  H39      1.0000 0.43120  0.53180  0.84520  Biso   1.000  H
  H40      1.0000 0.41950  0.55220  0.79500  Biso   1.000  H
  N18      1.0000 0.63860  0.56110  0.76570  Biso   1.000  N
  H41      1.0000 0.66030  0.55480  0.78830  Biso   1.000  H
  H42      1.0000 0.64800  0.56960  0.73630  Biso   1.000  H
  O25      1.0000 0.44690  0.99890  0.91660  Biso   1.000  O
  O26      1.0000 0.52160  0.96980  0.91030  Biso   1.000  O
  O27      1.0000 0.47150  0.91660  0.65910  Biso   1.000  O
  O28      1.0000 0.39230  0.91980  0.67430  Biso   1.000  O
  C49      1.0000 0.48070  0.97680  0.89160  Biso   1.000  C
  C50      1.0000 0.46900  0.95970  0.84050  Biso   1.000  C
  C51      1.0000 0.50760  0.94860  0.80830  Biso   1.000  C
  C52      1.0000 0.49710  0.93520  0.75860  Biso   1.000  C
  C53      1.0000 0.44780  0.93200  0.74280  Biso   1.000  C
  C54      1.0000 0.40980  0.94240  0.77610  Biso   1.000  C
  C55      1.0000 0.42140  0.95610  0.82390  Biso   1.000  C
  H43      1.0000 0.39560  0.96330  0.84590  Biso   1.000  H
  C56      1.0000 0.43600  0.92220  0.68880  Biso   1.000  C
  N19      1.0000 0.53750  0.92140  0.73160  Biso   1.000  N
  H44      1.0000 0.53370  0.90950  0.70210  Biso   1.000  H
  H45      1.0000 0.56690  0.92450  0.74390  Biso   1.000  H
  N20      1.0000 0.55900  0.95580  0.81730  Biso   1.000  N
  H46      1.0000 0.56880  0.96820  0.84520  Biso   1.000  H
  H47      1.0000 0.58050  0.94780  0.79500  Biso   1.000  H
  N21      1.0000 0.36140  0.93890  0.76570  Biso   1.000  N
  H48      1.0000 0.33970  0.94520  0.78830  Biso   1.000  H
  H49      1.0000 0.35200  0.93040  0.73630  Biso   1.000  H
  O29      1.0000 0.94690  0.49890  0.41660  Biso   1.000  O
  O30      1.0000 0.02160  0.46980  0.41030  Biso   1.000  O
  O31      1.0000 0.97150  0.41660  0.15910  Biso   1.000  O
  O32      1.0000 0.89230  0.41980  0.17430  Biso   1.000  O
  C57      1.0000 0.98070  0.47680  0.39160  Biso   1.000  C
  C58      1.0000 0.96900  0.45970  0.34050  Biso   1.000  C
  C59      1.0000 0.00760  0.44860  0.30830  Biso   1.000  C
  C60      1.0000 0.99710  0.43520  0.25860  Biso   1.000  C
  C61      1.0000 0.94780  0.43200  0.24280  Biso   1.000  C
  C62      1.0000 0.90980  0.44240  0.27610  Biso   1.000  C
  C63      1.0000 0.92140  0.45610  0.32390  Biso   1.000  C
  H50      1.0000 0.89560  0.46330  0.34590  Biso   1.000  H
  C64      1.0000 0.93600  0.42220  0.18880  Biso   1.000  C
  N22      1.0000 0.03750  0.42140  0.23160  Biso   1.000  N
  H51      1.0000 0.03370  0.40950  0.20210  Biso   1.000  H
  H52      1.0000 0.06690  0.42450  0.24390  Biso   1.000  H
  N23      1.0000 0.05900  0.45580  0.31730  Biso   1.000  N
  H53      1.0000 0.06880  0.46820  0.34520  Biso   1.000  H
  H54      1.0000 0.08050  0.44780  0.29500  Biso   1.000  H
  N24      1.0000 0.86140  0.43890  0.26570  Biso   1.000  N
  H55      1.0000 0.83970  0.44520  0.28830  Biso   1.000  H
  H56      1.0000 0.85200  0.43040  0.23630  Biso   1.000  H
  O33      1.0000 0.08340  0.94690  0.50110  Biso   1.000  O
  O34      1.0000 0.08970  0.02160  0.53020  Biso   1.000  O
  O35      1.0000 0.34090  0.97150  0.58340  Biso   1.000  O
  O36      1.0000 0.32570  0.89230  0.58020  Biso   1.000  O
  C65      1.0000 0.10840  0.98070  0.52320  Biso   1.000  C
  C66      1.0000 0.15950  0.96900  0.54030  Biso   1.000  C
  C67      1.0000 0.19170  0.00760  0.55140  Biso   1.000  C
  C68      1.0000 0.24140  0.99710  0.56480  Biso   1.000  C
  C69      1.0000 0.25720  0.94780  0.56800  Biso   1.000  C
  C70      1.0000 0.22390  0.90980  0.55760  Biso   1.000  C
  C71      1.0000 0.17610  0.92140  0.54390  Biso   1.000  C
  H57      1.0000 0.15410  0.89560  0.53670  Biso   1.000  H
  C72      1.0000 0.31120  0.93600  0.57780  Biso   1.000  C
  N25      1.0000 0.26840  0.03750  0.57860  Biso   1.000  N
  H58      1.0000 0.29790  0.03370  0.59050  Biso   1.000  H
  H59      1.0000 0.25610  0.06690  0.57550  Biso   1.000  H
  N26      1.0000 0.18270  0.05900  0.54420  Biso   1.000  N
  H60      1.0000 0.15480  0.06880  0.53180  Biso   1.000  H
  H61      1.0000 0.20500  0.08050  0.55220  Biso   1.000  H
  N27      1.0000 0.23430  0.86140  0.56110  Biso   1.000  N
  H62      1.0000 0.21170  0.83970  0.55480  Biso   1.000  H
  H63      1.0000 0.26370  0.85200  0.56960  Biso   1.000  H
  O37      1.0000 0.58340  0.44690  0.00110  Biso   1.000  O
  O38      1.0000 0.58970  0.52160  0.03020  Biso   1.000  O
  O39      1.0000 0.84090  0.47150  0.08340  Biso   1.000  O
  O40      1.0000 0.82570  0.39230  0.08020  Biso   1.000  O
  C73      1.0000 0.60840  0.48070  0.02320  Biso   1.000  C
  C74      1.0000 0.65950  0.46900  0.04030  Biso   1.000  C
  C75      1.0000 0.69170  0.50760  0.05140  Biso   1.000  C
  C76      1.0000 0.74140  0.49710  0.06480  Biso   1.000  C
  C77      1.0000 0.75720  0.44780  0.06800  Biso   1.000  C
  C78      1.0000 0.72390  0.40980  0.05760  Biso   1.000  C
  C79      1.0000 0.67610  0.42140  0.04390  Biso   1.000  C
  H64      1.0000 0.65410  0.39560  0.03670  Biso   1.000  H
  C80      1.0000 0.81120  0.43600  0.07780  Biso   1.000  C
  N28      1.0000 0.76840  0.53750  0.07860  Biso   1.000  N
  H65      1.0000 0.79790  0.53370  0.09050  Biso   1.000  H
  H66      1.0000 0.75610  0.56690  0.07550  Biso   1.000  H
  N29      1.0000 0.68270  0.55900  0.04420  Biso   1.000  N
  H67      1.0000 0.65480  0.56880  0.03180  Biso   1.000  H
  H68      1.0000 0.70500  0.58050  0.05220  Biso   1.000  H
  N30      1.0000 0.73430  0.36140  0.06110  Biso   1.000  N
  H69      1.0000 0.71170  0.33970  0.05480  Biso   1.000  H
  H70      1.0000 0.76370  0.35200  0.06960  Biso   1.000  H
  O41      1.0000 0.58340  0.55310  0.49890  Biso   1.000  O
  O42      1.0000 0.58970  0.47840  0.46980  Biso   1.000  O
  O43      1.0000 0.84090  0.52850  0.41660  Biso   1.000  O
  O44      1.0000 0.82570  0.60770  0.41980  Biso   1.000  O
  C81      1.0000 0.60840  0.51930  0.47680  Biso   1.000  C
  C82      1.0000 0.65950  0.53100  0.45970  Biso   1.000  C
  C83      1.0000 0.69170  0.49240  0.44860  Biso   1.000  C
  C84      1.0000 0.74140  0.50290  0.43520  Biso   1.000  C
  C85      1.0000 0.75720  0.55220  0.43200  Biso   1.000  C
  C86      1.0000 0.72390  0.59020  0.44240  Biso   1.000  C
  C87      1.0000 0.67610  0.57860  0.45610  Biso   1.000  C
  H71      1.0000 0.65410  0.60440  0.46330  Biso   1.000  H
  C88      1.0000 0.81120  0.56400  0.42220  Biso   1.000  C
  N31      1.0000 0.76840  0.46250  0.42140  Biso   1.000  N
  H72      1.0000 0.79790  0.46630  0.40950  Biso   1.000  H
  H73      1.0000 0.75610  0.43310  0.42450  Biso   1.000  H
  N32      1.0000 0.68270  0.44100  0.45580  Biso   1.000  N
  H74      1.0000 0.65480  0.43120  0.46820  Biso   1.000  H
  H75      1.0000 0.70500  0.41950  0.44780  Biso   1.000  H
  N33      1.0000 0.73430  0.63860  0.43890  Biso   1.000  N
  H76      1.0000 0.71170  0.66030  0.44520  Biso   1.000  H
  H77      1.0000 0.76370  0.64800  0.43040  Biso   1.000  H
  O45      1.0000 0.08340  0.05310  0.99890  Biso   1.000  O
  O46      1.0000 0.08970  0.97840  0.96980  Biso   1.000  O
  O47      1.0000 0.34090  0.02850  0.91660  Biso   1.000  O
  O48      1.0000 0.32570  0.10770  0.91980  Biso   1.000  O
  C89      1.0000 0.10840  0.01930  0.97680  Biso   1.000  C
  C90      1.0000 0.15950  0.03100  0.95970  Biso   1.000  C
  C91      1.0000 0.19170  0.99240  0.94860  Biso   1.000  C
  C92      1.0000 0.24140  0.00290  0.93520  Biso   1.000  C
  C93      1.0000 0.25720  0.05220  0.93200  Biso   1.000  C
  C94      1.0000 0.22390  0.09020  0.94240  Biso   1.000  C
  C95      1.0000 0.17610  0.07860  0.95610  Biso   1.000  C
  H78      1.0000 0.15410  0.10440  0.96330  Biso   1.000  H
  C96      1.0000 0.31120  0.06400  0.92220  Biso   1.000  C
  N34      1.0000 0.26840  0.96250  0.92140  Biso   1.000  N
  H79      1.0000 0.29790  0.96630  0.90950  Biso   1.000  H
  H80      1.0000 0.25610  0.93310  0.92450  Biso   1.000  H
  N35      1.0000 0.18270  0.94100  0.95580  Biso   1.000  N
  H81      1.0000 0.15480  0.93120  0.96820  Biso   1.000  H
  H82      1.0000 0.20500  0.91950  0.94780  Biso   1.000  H
  N36      1.0000 0.23430  0.13860  0.93890  Biso   1.000  N
  H83      1.0000 0.21170  0.16030  0.94520  Biso   1.000  H
  H84      1.0000 0.26370  0.14800  0.93040  Biso   1.000  H
  O49      1.0000 0.41660  0.05310  0.00110  Biso   1.000  O
  O50      1.0000 0.41030  0.97840  0.03020  Biso   1.000  O
  O51      1.0000 0.15910  0.02850  0.08340  Biso   1.000  O
  O52      1.0000 0.17430  0.10770  0.08020  Biso   1.000  O
  C97      1.0000 0.39160  0.01930  0.02320  Biso   1.000  C
  C98      1.0000 0.34050  0.03100  0.04030  Biso   1.000  C
  C99      1.0000 0.30830  0.99240  0.05140  Biso   1.000  C
  C100     1.0000 0.25860  0.00290  0.06480  Biso   1.000  C
  C101     1.0000 0.24280  0.05220  0.06800  Biso   1.000  C
  C102     1.0000 0.27610  0.09020  0.05760  Biso   1.000  C
  C103     1.0000 0.32390  0.07860  0.04390  Biso   1.000  C
  H85      1.0000 0.34590  0.10440  0.03670  Biso   1.000  H
  C104     1.0000 0.18880  0.06400  0.07780  Biso   1.000  C
  N37      1.0000 0.23160  0.96250  0.07860  Biso   1.000  N
  H86      1.0000 0.20210  0.96630  0.09050  Biso   1.000  H
  H87      1.0000 0.24390  0.93310  0.07550  Biso   1.000  H
  N38      1.0000 0.31730  0.94100  0.04420  Biso   1.000  N
  H88      1.0000 0.34520  0.93120  0.03180  Biso   1.000  H
  H89      1.0000 0.29500  0.91950  0.05220  Biso   1.000  H
  N39      1.0000 0.26570  0.13860  0.06110  Biso   1.000  N
  H90      1.0000 0.28830  0.16030  0.05480  Biso   1.000  H
  H91      1.0000 0.23630  0.14800  0.06960  Biso   1.000  H
  O53      1.0000 0.91660  0.55310  0.50110  Biso   1.000  O
  O54      1.0000 0.91030  0.47840  0.53020  Biso   1.000  O
  O55      1.0000 0.65910  0.52850  0.58340  Biso   1.000  O
  O56      1.0000 0.67430  0.60770  0.58020  Biso   1.000  O
  C105     1.0000 0.89160  0.51930  0.52320  Biso   1.000  C
  C106     1.0000 0.84050  0.53100  0.54030  Biso   1.000  C
  C107     1.0000 0.80830  0.49240  0.55140  Biso   1.000  C
  C108     1.0000 0.75860  0.50290  0.56480  Biso   1.000  C
  C109     1.0000 0.74280  0.55220  0.56800  Biso   1.000  C
  C110     1.0000 0.77610  0.59020  0.55760  Biso   1.000  C
  C111     1.0000 0.82390  0.57860  0.54390  Biso   1.000  C
  H92      1.0000 0.84590  0.60440  0.53670  Biso   1.000  H
  C112     1.0000 0.68880  0.56400  0.57780  Biso   1.000  C
  N40      1.0000 0.73160  0.46250  0.57860  Biso   1.000  N
  H93      1.0000 0.70210  0.46630  0.59050  Biso   1.000  H
  H94      1.0000 0.74390  0.43310  0.57550  Biso   1.000  H
  N41      1.0000 0.81730  0.44100  0.54420  Biso   1.000  N
  H95      1.0000 0.84520  0.43120  0.53180  Biso   1.000  H
  H96      1.0000 0.79500  0.41950  0.55220  Biso   1.000  H
  N42      1.0000 0.76570  0.63860  0.56110  Biso   1.000  N
  H97      1.0000 0.78830  0.66030  0.55480  Biso   1.000  H
  H98      1.0000 0.73630  0.64800  0.56960  Biso   1.000  H
  O57      1.0000 0.91660  0.44690  0.99890  Biso   1.000  O
  O58      1.0000 0.91030  0.52160  0.96980  Biso   1.000  O
  O59      1.0000 0.65910  0.47150  0.91660  Biso   1.000  O
  O60      1.0000 0.67430  0.39230  0.91980  Biso   1.000  O
  C113     1.0000 0.89160  0.48070  0.97680  Biso   1.000  C
  C114     1.0000 0.84050  0.46900  0.95970  Biso   1.000  C
  C115     1.0000 0.80830  0.50760  0.94860  Biso   1.000  C
  C116     1.0000 0.75860  0.49710  0.93520  Biso   1.000  C
  C117     1.0000 0.74280  0.44780  0.93200  Biso   1.000  C
  C118     1.0000 0.77610  0.40980  0.94240  Biso   1.000  C
  C119     1.0000 0.82390  0.42140  0.95610  Biso   1.000  C
  H99      1.0000 0.84590  0.39560  0.96330  Biso   1.000  H
  C120     1.0000 0.68880  0.43600  0.92220  Biso   1.000  C
  N43      1.0000 0.73160  0.53750  0.92140  Biso   1.000  N
  H100     1.0000 0.70210  0.53370  0.90950  Biso   1.000  H
  H101     1.0000 0.74390  0.56690  0.92450  Biso   1.000  H
  N44      1.0000 0.81730  0.55900  0.95580  Biso   1.000  N
  H102     1.0000 0.84520  0.56880  0.96820  Biso   1.000  H
  H103     1.0000 0.79500  0.58050  0.94780  Biso   1.000  H
  N45      1.0000 0.76570  0.36140  0.93890  Biso   1.000  N
  H104     1.0000 0.78830  0.33970  0.94520  Biso   1.000  H
  H105     1.0000 0.73630  0.35200  0.93040  Biso   1.000  H
  O61      1.0000 0.41660  0.94690  0.49890  Biso   1.000  O
  O62      1.0000 0.41030  0.02160  0.46980  Biso   1.000  O
  O63      1.0000 0.15910  0.97150  0.41660  Biso   1.000  O
  O64      1.0000 0.17430  0.89230  0.41980  Biso   1.000  O
  C121     1.0000 0.39160  0.98070  0.47680  Biso   1.000  C
  C122     1.0000 0.34050  0.96900  0.45970  Biso   1.000  C
  C123     1.0000 0.30830  0.00760  0.44860  Biso   1.000  C
  C124     1.0000 0.25860  0.99710  0.43520  Biso   1.000  C
  C125     1.0000 0.24280  0.94780  0.43200  Biso   1.000  C
  C126     1.0000 0.27610  0.90980  0.44240  Biso   1.000  C
  C127     1.0000 0.32390  0.92140  0.45610  Biso   1.000  C
  H106     1.0000 0.34590  0.89560  0.46330  Biso   1.000  H
  C128     1.0000 0.18880  0.93600  0.42220  Biso   1.000  C
  N46      1.0000 0.23160  0.03750  0.42140  Biso   1.000  N
  H107     1.0000 0.20210  0.03370  0.40950  Biso   1.000  H
  H108     1.0000 0.24390  0.06690  0.42450  Biso   1.000  H
  N47      1.0000 0.31730  0.05900  0.45580  Biso   1.000  N
  H109     1.0000 0.34520  0.06880  0.46820  Biso   1.000  H
  H110     1.0000 0.29500  0.08050  0.44780  Biso   1.000  H
  N48      1.0000 0.26570  0.86140  0.43890  Biso   1.000  N
  H111     1.0000 0.28830  0.83970  0.44520  Biso   1.000  H
  H112     1.0000 0.23630  0.85200  0.43040  Biso   1.000  H
  O65      1.0000 0.50110  0.08340  0.94690  Biso   1.000  O
  O66      1.0000 0.53020  0.08970  0.02160  Biso   1.000  O
  O67      1.0000 0.58340  0.34090  0.97150  Biso   1.000  O
  O68      1.0000 0.58020  0.32570  0.89230  Biso   1.000  O
  C129     1.0000 0.52320  0.10840  0.98070  Biso   1.000  C
  C130     1.0000 0.54030  0.15950  0.96900  Biso   1.000  C
  C131     1.0000 0.55140  0.19170  0.00760  Biso   1.000  C
  C132     1.0000 0.56480  0.24140  0.99710  Biso   1.000  C
  C133     1.0000 0.56800  0.25720  0.94780  Biso   1.000  C
  C134     1.0000 0.55760  0.22390  0.90980  Biso   1.000  C
  C135     1.0000 0.54390  0.17610  0.92140  Biso   1.000  C
  H113     1.0000 0.53670  0.15410  0.89560  Biso   1.000  H
  C136     1.0000 0.57780  0.31120  0.93600  Biso   1.000  C
  N49      1.0000 0.57860  0.26840  0.03750  Biso   1.000  N
  H114     1.0000 0.59050  0.29790  0.03370  Biso   1.000  H
  H115     1.0000 0.57550  0.25610  0.06690  Biso   1.000  H
  N50      1.0000 0.54420  0.18270  0.05900  Biso   1.000  N
  H116     1.0000 0.53180  0.15480  0.06880  Biso   1.000  H
  H117     1.0000 0.55220  0.20500  0.08050  Biso   1.000  H
  N51      1.0000 0.56110  0.23430  0.86140  Biso   1.000  N
  H118     1.0000 0.55480  0.21170  0.83970  Biso   1.000  H
  H119     1.0000 0.56960  0.26370  0.85200  Biso   1.000  H
  O69      1.0000 0.00110  0.58340  0.44690  Biso   1.000  O
  O70      1.0000 0.03020  0.58970  0.52160  Biso   1.000  O
  O71      1.0000 0.08340  0.84090  0.47150  Biso   1.000  O
  O72      1.0000 0.08020  0.82570  0.39230  Biso   1.000  O
  C137     1.0000 0.02320  0.60840  0.48070  Biso   1.000  C
  C138     1.0000 0.04030  0.65950  0.46900  Biso   1.000  C
  C139     1.0000 0.05140  0.69170  0.50760  Biso   1.000  C
  C140     1.0000 0.06480  0.74140  0.49710  Biso   1.000  C
  C141     1.0000 0.06800  0.75720  0.44780  Biso   1.000  C
  C142     1.0000 0.05760  0.72390  0.40980  Biso   1.000  C
  C143     1.0000 0.04390  0.67610  0.42140  Biso   1.000  C
  H120     1.0000 0.03670  0.65410  0.39560  Biso   1.000  H
  C144     1.0000 0.07780  0.81120  0.43600  Biso   1.000  C
  N52      1.0000 0.07860  0.76840  0.53750  Biso   1.000  N
  H121     1.0000 0.09050  0.79790  0.53370  Biso   1.000  H
  H122     1.0000 0.07550  0.75610  0.56690  Biso   1.000  H
  N53      1.0000 0.04420  0.68270  0.55900  Biso   1.000  N
  H123     1.0000 0.03180  0.65480  0.56880  Biso   1.000  H
  H124     1.0000 0.05220  0.70500  0.58050  Biso   1.000  H
  N54      1.0000 0.06110  0.73430  0.36140  Biso   1.000  N
  H125     1.0000 0.05480  0.71170  0.33970  Biso   1.000  H
  H126     1.0000 0.06960  0.76370  0.35200  Biso   1.000  H
  O73      1.0000 0.49890  0.58340  0.55310  Biso   1.000  O
  O74      1.0000 0.46980  0.58970  0.47840  Biso   1.000  O
  O75      1.0000 0.41660  0.84090  0.52850  Biso   1.000  O
  O76      1.0000 0.41980  0.82570  0.60770  Biso   1.000  O
  C145     1.0000 0.47680  0.60840  0.51930  Biso   1.000  C
  C146     1.0000 0.45970  0.65950  0.53100  Biso   1.000  C
  C147     1.0000 0.44860  0.69170  0.49240  Biso   1.000  C
  C148     1.0000 0.43520  0.74140  0.50290  Biso   1.000  C
  C149     1.0000 0.43200  0.75720  0.55220  Biso   1.000  C
  C150     1.0000 0.44240  0.72390  0.59020  Biso   1.000  C
  C151     1.0000 0.45610  0.67610  0.57860  Biso   1.000  C
  H127     1.0000 0.46330  0.65410  0.60440  Biso   1.000  H
  C152     1.0000 0.42220  0.81120  0.56400  Biso   1.000  C
  N55      1.0000 0.42140  0.76840  0.46250  Biso   1.000  N
  H128     1.0000 0.40950  0.79790  0.46630  Biso   1.000  H
  H129     1.0000 0.42450  0.75610  0.43310  Biso   1.000  H
  N56      1.0000 0.45580  0.68270  0.44100  Biso   1.000  N
  H130     1.0000 0.46820  0.65480  0.43120  Biso   1.000  H
  H131     1.0000 0.44780  0.70500  0.41950  Biso   1.000  H
  N57      1.0000 0.43890  0.73430  0.63860  Biso   1.000  N
  H132     1.0000 0.44520  0.71170  0.66030  Biso   1.000  H
  H133     1.0000 0.43040  0.76370  0.64800  Biso   1.000  H
  O77      1.0000 0.99890  0.08340  0.05310  Biso   1.000  O
  O78      1.0000 0.96980  0.08970  0.97840  Biso   1.000  O
  O79      1.0000 0.91660  0.34090  0.02850  Biso   1.000  O
  O80      1.0000 0.91980  0.32570  0.10770  Biso   1.000  O
  C153     1.0000 0.97680  0.10840  0.01930  Biso   1.000  C
  C154     1.0000 0.95970  0.15950  0.03100  Biso   1.000  C
  C155     1.0000 0.94860  0.19170  0.99240  Biso   1.000  C
  C156     1.0000 0.93520  0.24140  0.00290  Biso   1.000  C
  C157     1.0000 0.93200  0.25720  0.05220  Biso   1.000  C
  C158     1.0000 0.94240  0.22390  0.09020  Biso   1.000  C
  C159     1.0000 0.95610  0.17610  0.07860  Biso   1.000  C
  H134     1.0000 0.96330  0.15410  0.10440  Biso   1.000  H
  C160     1.0000 0.92220  0.31120  0.06400  Biso   1.000  C
  N58      1.0000 0.92140  0.26840  0.96250  Biso   1.000  N
  H135     1.0000 0.90950  0.29790  0.96630  Biso   1.000  H
  H136     1.0000 0.92450  0.25610  0.93310  Biso   1.000  H
  N59      1.0000 0.95580  0.18270  0.94100  Biso   1.000  N
  H137     1.0000 0.96820  0.15480  0.93120  Biso   1.000  H
  H138     1.0000 0.94780  0.20500  0.91950  Biso   1.000  H
  N60      1.0000 0.93890  0.23430  0.13860  Biso   1.000  N
  H139     1.0000 0.94520  0.21170  0.16030  Biso   1.000  H
  H140     1.0000 0.93040  0.26370  0.14800  Biso   1.000  H
  O81      1.0000 0.00110  0.41660  0.05310  Biso   1.000  O
  O82      1.0000 0.03020  0.41030  0.97840  Biso   1.000  O
  O83      1.0000 0.08340  0.15910  0.02850  Biso   1.000  O
  O84      1.0000 0.08020  0.17430  0.10770  Biso   1.000  O
  C161     1.0000 0.02320  0.39160  0.01930  Biso   1.000  C
  C162     1.0000 0.04030  0.34050  0.03100  Biso   1.000  C
  C163     1.0000 0.05140  0.30830  0.99240  Biso   1.000  C
  C164     1.0000 0.06480  0.25860  0.00290  Biso   1.000  C
  C165     1.0000 0.06800  0.24280  0.05220  Biso   1.000  C
  C166     1.0000 0.05760  0.27610  0.09020  Biso   1.000  C
  C167     1.0000 0.04390  0.32390  0.07860  Biso   1.000  C
  H141     1.0000 0.03670  0.34590  0.10440  Biso   1.000  H
  C168     1.0000 0.07780  0.18880  0.06400  Biso   1.000  C
  N61      1.0000 0.07860  0.23160  0.96250  Biso   1.000  N
  H142     1.0000 0.09050  0.20210  0.96630  Biso   1.000  H
  H143     1.0000 0.07550  0.24390  0.93310  Biso   1.000  H
  N62      1.0000 0.04420  0.31730  0.94100  Biso   1.000  N
  H144     1.0000 0.03180  0.34520  0.93120  Biso   1.000  H
  H145     1.0000 0.05220  0.29500  0.91950  Biso   1.000  H
  N63      1.0000 0.06110  0.26570  0.13860  Biso   1.000  N
  H146     1.0000 0.05480  0.28830  0.16030  Biso   1.000  H
  H147     1.0000 0.06960  0.23630  0.14800  Biso   1.000  H
  O85      1.0000 0.50110  0.91660  0.55310  Biso   1.000  O
  O86      1.0000 0.53020  0.91030  0.47840  Biso   1.000  O
  O87      1.0000 0.58340  0.65910  0.52850  Biso   1.000  O
  O88      1.0000 0.58020  0.67430  0.60770  Biso   1.000  O
  C169     1.0000 0.52320  0.89160  0.51930  Biso   1.000  C
  C170     1.0000 0.54030  0.84050  0.53100  Biso   1.000  C
  C171     1.0000 0.55140  0.80830  0.49240  Biso   1.000  C
  C172     1.0000 0.56480  0.75860  0.50290  Biso   1.000  C
  C173     1.0000 0.56800  0.74280  0.55220  Biso   1.000  C
  C174     1.0000 0.55760  0.77610  0.59020  Biso   1.000  C
  C175     1.0000 0.54390  0.82390  0.57860  Biso   1.000  C
  H148     1.0000 0.53670  0.84590  0.60440  Biso   1.000  H
  C176     1.0000 0.57780  0.68880  0.56400  Biso   1.000  C
  N64      1.0000 0.57860  0.73160  0.46250  Biso   1.000  N
  H149     1.0000 0.59050  0.70210  0.46630  Biso   1.000  H
  H150     1.0000 0.57550  0.74390  0.43310  Biso   1.000  H
  N65      1.0000 0.54420  0.81730  0.44100  Biso   1.000  N
  H151     1.0000 0.53180  0.84520  0.43120  Biso   1.000  H
  H152     1.0000 0.55220  0.79500  0.41950  Biso   1.000  H
  N66      1.0000 0.56110  0.76570  0.63860  Biso   1.000  N
  H153     1.0000 0.55480  0.78830  0.66030  Biso   1.000  H
  H154     1.0000 0.56960  0.73630  0.64800  Biso   1.000  H
  O89      1.0000 0.99890  0.91660  0.44690  Biso   1.000  O
  O90      1.0000 0.96980  0.91030  0.52160  Biso   1.000  O
  O91      1.0000 0.91660  0.65910  0.47150  Biso   1.000  O
  O92      1.0000 0.91980  0.67430  0.39230  Biso   1.000  O
  C177     1.0000 0.97680  0.89160  0.48070  Biso   1.000  C
  C178     1.0000 0.95970  0.84050  0.46900  Biso   1.000  C
  C179     1.0000 0.94860  0.80830  0.50760  Biso   1.000  C
  C180     1.0000 0.93520  0.75860  0.49710  Biso   1.000  C
  C181     1.0000 0.93200  0.74280  0.44780  Biso   1.000  C
  C182     1.0000 0.94240  0.77610  0.40980  Biso   1.000  C
  C183     1.0000 0.95610  0.82390  0.42140  Biso   1.000  C
  H155     1.0000 0.96330  0.84590  0.39560  Biso   1.000  H
  C184     1.0000 0.92220  0.68880  0.43600  Biso   1.000  C
  N67      1.0000 0.92140  0.73160  0.53750  Biso   1.000  N
  H156     1.0000 0.90950  0.70210  0.53370  Biso   1.000  H
  H157     1.0000 0.92450  0.74390  0.56690  Biso   1.000  H
  N68      1.0000 0.95580  0.81730  0.55900  Biso   1.000  N
  H158     1.0000 0.96820  0.84520  0.56880  Biso   1.000  H
  H159     1.0000 0.94780  0.79500  0.58050  Biso   1.000  H
  N69      1.0000 0.93890  0.76570  0.36140  Biso   1.000  N
  H160     1.0000 0.94520  0.78830  0.33970  Biso   1.000  H
  H161     1.0000 0.93040  0.73630  0.35200  Biso   1.000  H
  O93      1.0000 0.49890  0.41660  0.94690  Biso   1.000  O
  O94      1.0000 0.46980  0.41030  0.02160  Biso   1.000  O
  O95      1.0000 0.41660  0.15910  0.97150  Biso   1.000  O
  O96      1.0000 0.41980  0.17430  0.89230  Biso   1.000  O
  C185     1.0000 0.47680  0.39160  0.98070  Biso   1.000  C
  C186     1.0000 0.45970  0.34050  0.96900  Biso   1.000  C
  C187     1.0000 0.44860  0.30830  0.00760  Biso   1.000  C
  C188     1.0000 0.43520  0.25860  0.99710  Biso   1.000  C
  C189     1.0000 0.43200  0.24280  0.94780  Biso   1.000  C
  C190     1.0000 0.44240  0.27610  0.90980  Biso   1.000  C
  C191     1.0000 0.45610  0.32390  0.92140  Biso   1.000  C
  H162     1.0000 0.46330  0.34590  0.89560  Biso   1.000  H
  C192     1.0000 0.42220  0.18880  0.93600  Biso   1.000  C
  N70      1.0000 0.42140  0.23160  0.03750  Biso   1.000  N
  H163     1.0000 0.40950  0.20210  0.03370  Biso   1.000  H
  H164     1.0000 0.42450  0.24390  0.06690  Biso   1.000  H
  N71      1.0000 0.45580  0.31730  0.05900  Biso   1.000  N
  H165     1.0000 0.46820  0.34520  0.06880  Biso   1.000  H
  H166     1.0000 0.44780  0.29500  0.08050  Biso   1.000  H
  N72      1.0000 0.43890  0.26570  0.86140  Biso   1.000  N
  H167     1.0000 0.44520  0.28830  0.83970  Biso   1.000  H
  H168     1.0000 0.43040  0.23630  0.85200  Biso   1.000  H
  O97      1.0000 0.05310  0.49890  0.91660  Biso   1.000  O
  O98      1.0000 0.97840  0.46980  0.91030  Biso   1.000  O
  O99      1.0000 0.02850  0.41660  0.65910  Biso   1.000  O
  O100     1.0000 0.10770  0.41980  0.67430  Biso   1.000  O
  C193     1.0000 0.01930  0.47680  0.89160  Biso   1.000  C
  C194     1.0000 0.03100  0.45970  0.84050  Biso   1.000  C
  C195     1.0000 0.99240  0.44860  0.80830  Biso   1.000  C
  C196     1.0000 0.00290  0.43520  0.75860  Biso   1.000  C
  C197     1.0000 0.05220  0.43200  0.74280  Biso   1.000  C
  C198     1.0000 0.09020  0.44240  0.77610  Biso   1.000  C
  C199     1.0000 0.07860  0.45610  0.82390  Biso   1.000  C
  H169     1.0000 0.10440  0.46330  0.84590  Biso   1.000  H
  C200     1.0000 0.06400  0.42220  0.68880  Biso   1.000  C
  N73      1.0000 0.96250  0.42140  0.73160  Biso   1.000  N
  H170     1.0000 0.96630  0.40950  0.70210  Biso   1.000  H
  H171     1.0000 0.93310  0.42450  0.74390  Biso   1.000  H
  N74      1.0000 0.94100  0.45580  0.81730  Biso   1.000  N
  H172     1.0000 0.93120  0.46820  0.84520  Biso   1.000  H
  H173     1.0000 0.91950  0.44780  0.79500  Biso   1.000  H
  N75      1.0000 0.13860  0.43890  0.76570  Biso   1.000  N
  H174     1.0000 0.16030  0.44520  0.78830  Biso   1.000  H
  H175     1.0000 0.14800  0.43040  0.73630  Biso   1.000  H
  O101     1.0000 0.55310  0.99890  0.41660  Biso   1.000  O
  O102     1.0000 0.47840  0.96980  0.41030  Biso   1.000  O
  O103     1.0000 0.52850  0.91660  0.15910  Biso   1.000  O
  O104     1.0000 0.60770  0.91980  0.17430  Biso   1.000  O
  C201     1.0000 0.51930  0.97680  0.39160  Biso   1.000  C
  C202     1.0000 0.53100  0.95970  0.34050  Biso   1.000  C
  C203     1.0000 0.49240  0.94860  0.30830  Biso   1.000  C
  C204     1.0000 0.50290  0.93520  0.25860  Biso   1.000  C
  C205     1.0000 0.55220  0.93200  0.24280  Biso   1.000  C
  C206     1.0000 0.59020  0.94240  0.27610  Biso   1.000  C
  C207     1.0000 0.57860  0.95610  0.32390  Biso   1.000  C
  H176     1.0000 0.60440  0.96330  0.34590  Biso   1.000  H
  C208     1.0000 0.56400  0.92220  0.18880  Biso   1.000  C
  N76      1.0000 0.46250  0.92140  0.23160  Biso   1.000  N
  H177     1.0000 0.46630  0.90950  0.20210  Biso   1.000  H
  H178     1.0000 0.43310  0.92450  0.24390  Biso   1.000  H
  N77      1.0000 0.44100  0.95580  0.31730  Biso   1.000  N
  H179     1.0000 0.43120  0.96820  0.34520  Biso   1.000  H
  H180     1.0000 0.41950  0.94780  0.29500  Biso   1.000  H
  N78      1.0000 0.63860  0.93890  0.26570  Biso   1.000  N
  H181     1.0000 0.66030  0.94520  0.28830  Biso   1.000  H
  H182     1.0000 0.64800  0.93040  0.23630  Biso   1.000  H
  O105     1.0000 0.44690  0.50110  0.41660  Biso   1.000  O
  O106     1.0000 0.52160  0.53020  0.41030  Biso   1.000  O
  O107     1.0000 0.47150  0.58340  0.15910  Biso   1.000  O
  O108     1.0000 0.39230  0.58020  0.17430  Biso   1.000  O
  C209     1.0000 0.48070  0.52320  0.39160  Biso   1.000  C
  C210     1.0000 0.46900  0.54030  0.34050  Biso   1.000  C
  C211     1.0000 0.50760  0.55140  0.30830  Biso   1.000  C
  C212     1.0000 0.49710  0.56480  0.25860  Biso   1.000  C
  C213     1.0000 0.44780  0.56800  0.24280  Biso   1.000  C
  C214     1.0000 0.40980  0.55760  0.27610  Biso   1.000  C
  C215     1.0000 0.42140  0.54390  0.32390  Biso   1.000  C
  H183     1.0000 0.39560  0.53670  0.34590  Biso   1.000  H
  C216     1.0000 0.43600  0.57780  0.18880  Biso   1.000  C
  N79      1.0000 0.53750  0.57860  0.23160  Biso   1.000  N
  H184     1.0000 0.53370  0.59050  0.20210  Biso   1.000  H
  H185     1.0000 0.56690  0.57550  0.24390  Biso   1.000  H
  N80      1.0000 0.55900  0.54420  0.31730  Biso   1.000  N
  H186     1.0000 0.56880  0.53180  0.34520  Biso   1.000  H
  H187     1.0000 0.58050  0.55220  0.29500  Biso   1.000  H
  N81      1.0000 0.36140  0.56110  0.26570  Biso   1.000  N
  H188     1.0000 0.33970  0.55480  0.28830  Biso   1.000  H
  H189     1.0000 0.35200  0.56960  0.23630  Biso   1.000  H
  O109     1.0000 0.94690  0.00110  0.91660  Biso   1.000  O
  O110     1.0000 0.02160  0.03020  0.91030  Biso   1.000  O
  O111     1.0000 0.97150  0.08340  0.65910  Biso   1.000  O
  O112     1.0000 0.89230  0.08020  0.67430  Biso   1.000  O
  C217     1.0000 0.98070  0.02320  0.89160  Biso   1.000  C
  C218     1.0000 0.96900  0.04030  0.84050  Biso   1.000  C
  C219     1.0000 0.00760  0.05140  0.80830  Biso   1.000  C
  C220     1.0000 0.99710  0.06480  0.75860  Biso   1.000  C
  C221     1.0000 0.94780  0.06800  0.74280  Biso   1.000  C
  C222     1.0000 0.90980  0.05760  0.77610  Biso   1.000  C
  C223     1.0000 0.92140  0.04390  0.82390  Biso   1.000  C
  H190     1.0000 0.89560  0.03670  0.84590  Biso   1.000  H
  C224     1.0000 0.93600  0.07780  0.68880  Biso   1.000  C
  N82      1.0000 0.03750  0.07860  0.73160  Biso   1.000  N
  H191     1.0000 0.03370  0.09050  0.70210  Biso   1.000  H
  H192     1.0000 0.06690  0.07550  0.74390  Biso   1.000  H
  N83      1.0000 0.05900  0.04420  0.81730  Biso   1.000  N
  H193     1.0000 0.06880  0.03180  0.84520  Biso   1.000  H
  H194     1.0000 0.08050  0.05220  0.79500  Biso   1.000  H
  N84      1.0000 0.86140  0.06110  0.76570  Biso   1.000  N
  H195     1.0000 0.83970  0.05480  0.78830  Biso   1.000  H
  H196     1.0000 0.85200  0.06960  0.73630  Biso   1.000  H
  O113     1.0000 0.94690  0.99890  0.58340  Biso   1.000  O
  O114     1.0000 0.02160  0.96980  0.58970  Biso   1.000  O
  O115     1.0000 0.97150  0.91660  0.84090  Biso   1.000  O
  O116     1.0000 0.89230  0.91980  0.82570  Biso   1.000  O
  C225     1.0000 0.98070  0.97680  0.60840  Biso   1.000  C
  C226     1.0000 0.96900  0.95970  0.65950  Biso   1.000  C
  C227     1.0000 0.00760  0.94860  0.69170  Biso   1.000  C
  C228     1.0000 0.99710  0.93520  0.74140  Biso   1.000  C
  C229     1.0000 0.94780  0.93200  0.75720  Biso   1.000  C
  C230     1.0000 0.90980  0.94240  0.72390  Biso   1.000  C
  C231     1.0000 0.92140  0.95610  0.67610  Biso   1.000  C
  H197     1.0000 0.89560  0.96330  0.65410  Biso   1.000  H
  C232     1.0000 0.93600  0.92220  0.81120  Biso   1.000  C
  N85      1.0000 0.03750  0.92140  0.76840  Biso   1.000  N
  H198     1.0000 0.03370  0.90950  0.79790  Biso   1.000  H
  H199     1.0000 0.06690  0.92450  0.75610  Biso   1.000  H
  N86      1.0000 0.05900  0.95580  0.68270  Biso   1.000  N
  H200     1.0000 0.06880  0.96820  0.65480  Biso   1.000  H
  H201     1.0000 0.08050  0.94780  0.70500  Biso   1.000  H
  N87      1.0000 0.86140  0.93890  0.73430  Biso   1.000  N
  H202     1.0000 0.83970  0.94520  0.71170  Biso   1.000  H
  H203     1.0000 0.85200  0.93040  0.76370  Biso   1.000  H
  O117     1.0000 0.44690  0.49890  0.08340  Biso   1.000  O
  O118     1.0000 0.52160  0.46980  0.08970  Biso   1.000  O
  O119     1.0000 0.47150  0.41660  0.34090  Biso   1.000  O
  O120     1.0000 0.39230  0.41980  0.32570  Biso   1.000  O
  C233     1.0000 0.48070  0.47680  0.10840  Biso   1.000  C
  C234     1.0000 0.46900  0.45970  0.15950  Biso   1.000  C
  C235     1.0000 0.50760  0.44860  0.19170  Biso   1.000  C
  C236     1.0000 0.49710  0.43520  0.24140  Biso   1.000  C
  C237     1.0000 0.44780  0.43200  0.25720  Biso   1.000  C
  C238     1.0000 0.40980  0.44240  0.22390  Biso   1.000  C
  C239     1.0000 0.42140  0.45610  0.17610  Biso   1.000  C
  H204     1.0000 0.39560  0.46330  0.15410  Biso   1.000  H
  C240     1.0000 0.43600  0.42220  0.31120  Biso   1.000  C
  N88      1.0000 0.53750  0.42140  0.26840  Biso   1.000  N
  H205     1.0000 0.53370  0.40950  0.29790  Biso   1.000  H
  H206     1.0000 0.56690  0.42450  0.25610  Biso   1.000  H
  N89      1.0000 0.55900  0.45580  0.18270  Biso   1.000  N
  H207     1.0000 0.56880  0.46820  0.15480  Biso   1.000  H
  H208     1.0000 0.58050  0.44780  0.20500  Biso   1.000  H
  N90      1.0000 0.36140  0.43890  0.23430  Biso   1.000  N
  H209     1.0000 0.33970  0.44520  0.21170  Biso   1.000  H
  H210     1.0000 0.35200  0.43040  0.26370  Biso   1.000  H
  O121     1.0000 0.55310  0.00110  0.08340  Biso   1.000  O
  O122     1.0000 0.47840  0.03020  0.08970  Biso   1.000  O
  O123     1.0000 0.52850  0.08340  0.34090  Biso   1.000  O
  O124     1.0000 0.60770  0.08020  0.32570  Biso   1.000  O
  C241     1.0000 0.51930  0.02320  0.10840  Biso   1.000  C
  C242     1.0000 0.53100  0.04030  0.15950  Biso   1.000  C
  C243     1.0000 0.49240  0.05140  0.19170  Biso   1.000  C
  C244     1.0000 0.50290  0.06480  0.24140  Biso   1.000  C
  C245     1.0000 0.55220  0.06800  0.25720  Biso   1.000  C
  C246     1.0000 0.59020  0.05760  0.22390  Biso   1.000  C
  C247     1.0000 0.57860  0.04390  0.17610  Biso   1.000  C
  H211     1.0000 0.60440  0.03670  0.15410  Biso   1.000  H
  C248     1.0000 0.56400  0.07780  0.31120  Biso   1.000  C
  N91      1.0000 0.46250  0.07860  0.26840  Biso   1.000  N
  H212     1.0000 0.46630  0.09050  0.29790  Biso   1.000  H
  H213     1.0000 0.43310  0.07550  0.25610  Biso   1.000  H
  N92      1.0000 0.44100  0.04420  0.18270  Biso   1.000  N
  H214     1.0000 0.43120  0.03180  0.15480  Biso   1.000  H
  H215     1.0000 0.41950  0.05220  0.20500  Biso   1.000  H
  N93      1.0000 0.63860  0.06110  0.23430  Biso   1.000  N
  H216     1.0000 0.66030  0.05480  0.21170  Biso   1.000  H
  H217     1.0000 0.64800  0.06960  0.26370  Biso   1.000  H
  O125     1.0000 0.05310  0.50110  0.58340  Biso   1.000  O
  O126     1.0000 0.97840  0.53020  0.58970  Biso   1.000  O
  O127     1.0000 0.02850  0.58340  0.84090  Biso   1.000  O
  O128     1.0000 0.10770  0.58020  0.82570  Biso   1.000  O
  C249     1.0000 0.01930  0.52320  0.60840  Biso   1.000  C
  C250     1.0000 0.03100  0.54030  0.65950  Biso   1.000  C
  C251     1.0000 0.99240  0.55140  0.69170  Biso   1.000  C
  C252     1.0000 0.00290  0.56480  0.74140  Biso   1.000  C
  C253     1.0000 0.05220  0.56800  0.75720  Biso   1.000  C
  C254     1.0000 0.09020  0.55760  0.72390  Biso   1.000  C
  C255     1.0000 0.07860  0.54390  0.67610  Biso   1.000  C
  H218     1.0000 0.10440  0.53670  0.65410  Biso   1.000  H
  C256     1.0000 0.06400  0.57780  0.81120  Biso   1.000  C
  N94      1.0000 0.96250  0.57860  0.76840  Biso   1.000  N
  H219     1.0000 0.96630  0.59050  0.79790  Biso   1.000  H
  H220     1.0000 0.93310  0.57550  0.75610  Biso   1.000  H
  N95      1.0000 0.94100  0.54420  0.68270  Biso   1.000  N
  H221     1.0000 0.93120  0.53180  0.65480  Biso   1.000  H
  H222     1.0000 0.91950  0.55220  0.70500  Biso   1.000  H
  N96      1.0000 0.13860  0.56110  0.73430  Biso   1.000  N
  H223     1.0000 0.16030  0.55480  0.71170  Biso   1.000  H
  H224     1.0000 0.14800  0.56960  0.76370  Biso   1.000  H
  O129     1.0000 0.91660  0.05310  0.49890  Biso   1.000  O
  O130     1.0000 0.91030  0.97840  0.46980  Biso   1.000  O
  O131     1.0000 0.65910  0.02850  0.41660  Biso   1.000  O
  O132     1.0000 0.67430  0.10770  0.41980  Biso   1.000  O
  C257     1.0000 0.89160  0.01930  0.47680  Biso   1.000  C
  C258     1.0000 0.84050  0.03100  0.45970  Biso   1.000  C
  C259     1.0000 0.80830  0.99240  0.44860  Biso   1.000  C
  C260     1.0000 0.75860  0.00290  0.43520  Biso   1.000  C
  C261     1.0000 0.74280  0.05220  0.43200  Biso   1.000  C
  C262     1.0000 0.77610  0.09020  0.44240  Biso   1.000  C
  C263     1.0000 0.82390  0.07860  0.45610  Biso   1.000  C
  H225     1.0000 0.84590  0.10440  0.46330  Biso   1.000  H
  C264     1.0000 0.68880  0.06400  0.42220  Biso   1.000  C
  N97      1.0000 0.73160  0.96250  0.42140  Biso   1.000  N
  H226     1.0000 0.70210  0.96630  0.40950  Biso   1.000  H
  H227     1.0000 0.74390  0.93310  0.42450  Biso   1.000  H
  N98      1.0000 0.81730  0.94100  0.45580  Biso   1.000  N
  H228     1.0000 0.84520  0.93120  0.46820  Biso   1.000  H
  H229     1.0000 0.79500  0.91950  0.44780  Biso   1.000  H
  N99      1.0000 0.76570  0.13860  0.43890  Biso   1.000  N
  H230     1.0000 0.78830  0.16030  0.44520  Biso   1.000  H
  H231     1.0000 0.73630  0.14800  0.43040  Biso   1.000  H
  O133     1.0000 0.41660  0.55310  0.99890  Biso   1.000  O
  O134     1.0000 0.41030  0.47840  0.96980  Biso   1.000  O
  O135     1.0000 0.15910  0.52850  0.91660  Biso   1.000  O
  O136     1.0000 0.17430  0.60770  0.91980  Biso   1.000  O
  C265     1.0000 0.39160  0.51930  0.97680  Biso   1.000  C
  C266     1.0000 0.34050  0.53100  0.95970  Biso   1.000  C
  C267     1.0000 0.30830  0.49240  0.94860  Biso   1.000  C
  C268     1.0000 0.25860  0.50290  0.93520  Biso   1.000  C
  C269     1.0000 0.24280  0.55220  0.93200  Biso   1.000  C
  C270     1.0000 0.27610  0.59020  0.94240  Biso   1.000  C
  C271     1.0000 0.32390  0.57860  0.95610  Biso   1.000  C
  H232     1.0000 0.34590  0.60440  0.96330  Biso   1.000  H
  C272     1.0000 0.18880  0.56400  0.92220  Biso   1.000  C
  N100     1.0000 0.23160  0.46250  0.92140  Biso   1.000  N
  H233     1.0000 0.20210  0.46630  0.90950  Biso   1.000  H
  H234     1.0000 0.24390  0.43310  0.92450  Biso   1.000  H
  N101     1.0000 0.31730  0.44100  0.95580  Biso   1.000  N
  H235     1.0000 0.34520  0.43120  0.96820  Biso   1.000  H
  H236     1.0000 0.29500  0.41950  0.94780  Biso   1.000  H
  N102     1.0000 0.26570  0.63860  0.93890  Biso   1.000  N
  H237     1.0000 0.28830  0.66030  0.94520  Biso   1.000  H
  H238     1.0000 0.23630  0.64800  0.93040  Biso   1.000  H
  O137     1.0000 0.41660  0.44690  0.50110  Biso   1.000  O
  O138     1.0000 0.41030  0.52160  0.53020  Biso   1.000  O
  O139     1.0000 0.15910  0.47150  0.58340  Biso   1.000  O
  O140     1.0000 0.17430  0.39230  0.58020  Biso   1.000  O
  C273     1.0000 0.39160  0.48070  0.52320  Biso   1.000  C
  C274     1.0000 0.34050  0.46900  0.54030  Biso   1.000  C
  C275     1.0000 0.30830  0.50760  0.55140  Biso   1.000  C
  C276     1.0000 0.25860  0.49710  0.56480  Biso   1.000  C
  C277     1.0000 0.24280  0.44780  0.56800  Biso   1.000  C
  C278     1.0000 0.27610  0.40980  0.55760  Biso   1.000  C
  C279     1.0000 0.32390  0.42140  0.54390  Biso   1.000  C
  H239     1.0000 0.34590  0.39560  0.53670  Biso   1.000  H
  C280     1.0000 0.18880  0.43600  0.57780  Biso   1.000  C
  N103     1.0000 0.23160  0.53750  0.57860  Biso   1.000  N
  H240     1.0000 0.20210  0.53370  0.59050  Biso   1.000  H
  H241     1.0000 0.24390  0.56690  0.57550  Biso   1.000  H
  N104     1.0000 0.31730  0.55900  0.54420  Biso   1.000  N
  H242     1.0000 0.34520  0.56880  0.53180  Biso   1.000  H
  H243     1.0000 0.29500  0.58050  0.55220  Biso   1.000  H
  N105     1.0000 0.26570  0.36140  0.56110  Biso   1.000  N
  H244     1.0000 0.28830  0.33970  0.55480  Biso   1.000  H
  H245     1.0000 0.23630  0.35200  0.56960  Biso   1.000  H
  O141     1.0000 0.91660  0.94690  0.00110  Biso   1.000  O
  O142     1.0000 0.91030  0.02160  0.03020  Biso   1.000  O
  O143     1.0000 0.65910  0.97150  0.08340  Biso   1.000  O
  O144     1.0000 0.67430  0.89230  0.08020  Biso   1.000  O
  C281     1.0000 0.89160  0.98070  0.02320  Biso   1.000  C
  C282     1.0000 0.84050  0.96900  0.04030  Biso   1.000  C
  C283     1.0000 0.80830  0.00760  0.05140  Biso   1.000  C
  C284     1.0000 0.75860  0.99710  0.06480  Biso   1.000  C
  C285     1.0000 0.74280  0.94780  0.06800  Biso   1.000  C
  C286     1.0000 0.77610  0.90980  0.05760  Biso   1.000  C
  C287     1.0000 0.82390  0.92140  0.04390  Biso   1.000  C
  H246     1.0000 0.84590  0.89560  0.03670  Biso   1.000  H
  C288     1.0000 0.68880  0.93600  0.07780  Biso   1.000  C
  N106     1.0000 0.73160  0.03750  0.07860  Biso   1.000  N
  H247     1.0000 0.70210  0.03370  0.09050  Biso   1.000  H
  H248     1.0000 0.74390  0.06690  0.07550  Biso   1.000  H
  N107     1.0000 0.81730  0.05900  0.04420  Biso   1.000  N
  H249     1.0000 0.84520  0.06880  0.03180  Biso   1.000  H
  H250     1.0000 0.79500  0.08050  0.05220  Biso   1.000  H
  N108     1.0000 0.76570  0.86140  0.06110  Biso   1.000  N
  H251     1.0000 0.78830  0.83970  0.05480  Biso   1.000  H
  H252     1.0000 0.73630  0.85200  0.06960  Biso   1.000  H
  O145     1.0000 0.58340  0.94690  0.99890  Biso   1.000  O
  O146     1.0000 0.58970  0.02160  0.96980  Biso   1.000  O
  O147     1.0000 0.84090  0.97150  0.91660  Biso   1.000  O
  O148     1.0000 0.82570  0.89230  0.91980  Biso   1.000  O
  C289     1.0000 0.60840  0.98070  0.97680  Biso   1.000  C
  C290     1.0000 0.65950  0.96900  0.95970  Biso   1.000  C
  C291     1.0000 0.69170  0.00760  0.94860  Biso   1.000  C
  C292     1.0000 0.74140  0.99710  0.93520  Biso   1.000  C
  C293     1.0000 0.75720  0.94780  0.93200  Biso   1.000  C
  C294     1.0000 0.72390  0.90980  0.94240  Biso   1.000  C
  C295     1.0000 0.67610  0.92140  0.95610  Biso   1.000  C
  H253     1.0000 0.65410  0.89560  0.96330  Biso   1.000  H
  C296     1.0000 0.81120  0.93600  0.92220  Biso   1.000  C
  N109     1.0000 0.76840  0.03750  0.92140  Biso   1.000  N
  H254     1.0000 0.79790  0.03370  0.90950  Biso   1.000  H
  H255     1.0000 0.75610  0.06690  0.92450  Biso   1.000  H
  N110     1.0000 0.68270  0.05900  0.95580  Biso   1.000  N
  H256     1.0000 0.65480  0.06880  0.96820  Biso   1.000  H
  H257     1.0000 0.70500  0.08050  0.94780  Biso   1.000  H
  N111     1.0000 0.73430  0.86140  0.93890  Biso   1.000  N
  H258     1.0000 0.71170  0.83970  0.94520  Biso   1.000  H
  H259     1.0000 0.76370  0.85200  0.93040  Biso   1.000  H
  O149     1.0000 0.08340  0.44690  0.49890  Biso   1.000  O
  O150     1.0000 0.08970  0.52160  0.46980  Biso   1.000  O
  O151     1.0000 0.34090  0.47150  0.41660  Biso   1.000  O
  O152     1.0000 0.32570  0.39230  0.41980  Biso   1.000  O
  C297     1.0000 0.10840  0.48070  0.47680  Biso   1.000  C
  C298     1.0000 0.15950  0.46900  0.45970  Biso   1.000  C
  C299     1.0000 0.19170  0.50760  0.44860  Biso   1.000  C
  C300     1.0000 0.24140  0.49710  0.43520  Biso   1.000  C
  C301     1.0000 0.25720  0.44780  0.43200  Biso   1.000  C
  C302     1.0000 0.22390  0.40980  0.44240  Biso   1.000  C
  C303     1.0000 0.17610  0.42140  0.45610  Biso   1.000  C
  H260     1.0000 0.15410  0.39560  0.46330  Biso   1.000  H
  C304     1.0000 0.31120  0.43600  0.42220  Biso   1.000  C
  N112     1.0000 0.26840  0.53750  0.42140  Biso   1.000  N
  H261     1.0000 0.29790  0.53370  0.40950  Biso   1.000  H
  H262     1.0000 0.25610  0.56690  0.42450  Biso   1.000  H
  N113     1.0000 0.18270  0.55900  0.45580  Biso   1.000  N
  H263     1.0000 0.15480  0.56880  0.46820  Biso   1.000  H
  H264     1.0000 0.20500  0.58050  0.44780  Biso   1.000  H
  N114     1.0000 0.23430  0.36140  0.43890  Biso   1.000  N
  H265     1.0000 0.21170  0.33970  0.44520  Biso   1.000  H
  H266     1.0000 0.26370  0.35200  0.43040  Biso   1.000  H
  O153     1.0000 0.08340  0.55310  0.00110  Biso   1.000  O
  O154     1.0000 0.08970  0.47840  0.03020  Biso   1.000  O
  O155     1.0000 0.34090  0.52850  0.08340  Biso   1.000  O
  O156     1.0000 0.32570  0.60770  0.08020  Biso   1.000  O
  C305     1.0000 0.10840  0.51930  0.02320  Biso   1.000  C
  C306     1.0000 0.15950  0.53100  0.04030  Biso   1.000  C
  C307     1.0000 0.19170  0.49240  0.05140  Biso   1.000  C
  C308     1.0000 0.24140  0.50290  0.06480  Biso   1.000  C
  C309     1.0000 0.25720  0.55220  0.06800  Biso   1.000  C
  C310     1.0000 0.22390  0.59020  0.05760  Biso   1.000  C
  C311     1.0000 0.17610  0.57860  0.04390  Biso   1.000  C
  H267     1.0000 0.15410  0.60440  0.03670  Biso   1.000  H
  C312     1.0000 0.31120  0.56400  0.07780  Biso   1.000  C
  N115     1.0000 0.26840  0.46250  0.07860  Biso   1.000  N
  H268     1.0000 0.29790  0.46630  0.09050  Biso   1.000  H
  H269     1.0000 0.25610  0.43310  0.07550  Biso   1.000  H
  N116     1.0000 0.18270  0.44100  0.04420  Biso   1.000  N
  H270     1.0000 0.15480  0.43120  0.03180  Biso   1.000  H
  H271     1.0000 0.20500  0.41950  0.05220  Biso   1.000  H
  N117     1.0000 0.23430  0.63860  0.06110  Biso   1.000  N
  H272     1.0000 0.21170  0.66030  0.05480  Biso   1.000  H
  H273     1.0000 0.26370  0.64800  0.06960  Biso   1.000  H
  O157     1.0000 0.58340  0.05310  0.50110  Biso   1.000  O
  O158     1.0000 0.58970  0.97840  0.53020  Biso   1.000  O
  O159     1.0000 0.84090  0.02850  0.58340  Biso   1.000  O
  O160     1.0000 0.82570  0.10770  0.58020  Biso   1.000  O
  C313     1.0000 0.60840  0.01930  0.52320  Biso   1.000  C
  C314     1.0000 0.65950  0.03100  0.54030  Biso   1.000  C
  C315     1.0000 0.69170  0.99240  0.55140  Biso   1.000  C
  C316     1.0000 0.74140  0.00290  0.56480  Biso   1.000  C
  C317     1.0000 0.75720  0.05220  0.56800  Biso   1.000  C
  C318     1.0000 0.72390  0.09020  0.55760  Biso   1.000  C
  C319     1.0000 0.67610  0.07860  0.54390  Biso   1.000  C
  H274     1.0000 0.65410  0.10440  0.53670  Biso   1.000  H
  C320     1.0000 0.81120  0.06400  0.57780  Biso   1.000  C
  N118     1.0000 0.76840  0.96250  0.57860  Biso   1.000  N
  H275     1.0000 0.79790  0.96630  0.59050  Biso   1.000  H
  H276     1.0000 0.75610  0.93310  0.57550  Biso   1.000  H
  N119     1.0000 0.68270  0.94100  0.54420  Biso   1.000  N
  H277     1.0000 0.65480  0.93120  0.53180  Biso   1.000  H
  H278     1.0000 0.70500  0.91950  0.55220  Biso   1.000  H
  N120     1.0000 0.73430  0.13860  0.56110  Biso   1.000  N
  H279     1.0000 0.71170  0.16030  0.55480  Biso   1.000  H
  H280     1.0000 0.76370  0.14800  0.56960  Biso   1.000  H
  O161     1.0000 0.49890  0.91660  0.05310  Biso   1.000  O
  O162     1.0000 0.46980  0.91030  0.97840  Biso   1.000  O
  O163     1.0000 0.41660  0.65910  0.02850  Biso   1.000  O
  O164     1.0000 0.41980  0.67430  0.10770  Biso   1.000  O
  C321     1.0000 0.47680  0.89160  0.01930  Biso   1.000  C
  C322     1.0000 0.45970  0.84050  0.03100  Biso   1.000  C
  C323     1.0000 0.44860  0.80830  0.99240  Biso   1.000  C
  C324     1.0000 0.43520  0.75860  0.00290  Biso   1.000  C
  C325     1.0000 0.43200  0.74280  0.05220  Biso   1.000  C
  C326     1.0000 0.44240  0.77610  0.09020  Biso   1.000  C
  C327     1.0000 0.45610  0.82390  0.07860  Biso   1.000  C
  H281     1.0000 0.46330  0.84590  0.10440  Biso   1.000  H
  C328     1.0000 0.42220  0.68880  0.06400  Biso   1.000  C
  N121     1.0000 0.42140  0.73160  0.96250  Biso   1.000  N
  H282     1.0000 0.40950  0.70210  0.96630  Biso   1.000  H
  H283     1.0000 0.42450  0.74390  0.93310  Biso   1.000  H
  N122     1.0000 0.45580  0.81730  0.94100  Biso   1.000  N
  H284     1.0000 0.46820  0.84520  0.93120  Biso   1.000  H
  H285     1.0000 0.44780  0.79500  0.91950  Biso   1.000  H
  N123     1.0000 0.43890  0.76570  0.13860  Biso   1.000  N
  H286     1.0000 0.44520  0.78830  0.16030  Biso   1.000  H
  H287     1.0000 0.43040  0.73630  0.14800  Biso   1.000  H
  O165     1.0000 0.99890  0.41660  0.55310  Biso   1.000  O
  O166     1.0000 0.96980  0.41030  0.47840  Biso   1.000  O
  O167     1.0000 0.91660  0.15910  0.52850  Biso   1.000  O
  O168     1.0000 0.91980  0.17430  0.60770  Biso   1.000  O
  C329     1.0000 0.97680  0.39160  0.51930  Biso   1.000  C
  C330     1.0000 0.95970  0.34050  0.53100  Biso   1.000  C
  C331     1.0000 0.94860  0.30830  0.49240  Biso   1.000  C
  C332     1.0000 0.93520  0.25860  0.50290  Biso   1.000  C
  C333     1.0000 0.93200  0.24280  0.55220  Biso   1.000  C
  C334     1.0000 0.94240  0.27610  0.59020  Biso   1.000  C
  C335     1.0000 0.95610  0.32390  0.57860  Biso   1.000  C
  H288     1.0000 0.96330  0.34590  0.60440  Biso   1.000  H
  C336     1.0000 0.92220  0.18880  0.56400  Biso   1.000  C
  N124     1.0000 0.92140  0.23160  0.46250  Biso   1.000  N
  H289     1.0000 0.90950  0.20210  0.46630  Biso   1.000  H
  H290     1.0000 0.92450  0.24390  0.43310  Biso   1.000  H
  N125     1.0000 0.95580  0.31730  0.44100  Biso   1.000  N
  H291     1.0000 0.96820  0.34520  0.43120  Biso   1.000  H
  H292     1.0000 0.94780  0.29500  0.41950  Biso   1.000  H
  N126     1.0000 0.93890  0.26570  0.63860  Biso   1.000  N
  H293     1.0000 0.94520  0.28830  0.66030  Biso   1.000  H
  H294     1.0000 0.93040  0.23630  0.64800  Biso   1.000  H
  O169     1.0000 0.50110  0.41660  0.44690  Biso   1.000  O
  O170     1.0000 0.53020  0.41030  0.52160  Biso   1.000  O
  O171     1.0000 0.58340  0.15910  0.47150  Biso   1.000  O
  O172     1.0000 0.58020  0.17430  0.39230  Biso   1.000  O
  C337     1.0000 0.52320  0.39160  0.48070  Biso   1.000  C
  C338     1.0000 0.54030  0.34050  0.46900  Biso   1.000  C
  C339     1.0000 0.55140  0.30830  0.50760  Biso   1.000  C
  C340     1.0000 0.56480  0.25860  0.49710  Biso   1.000  C
  C341     1.0000 0.56800  0.24280  0.44780  Biso   1.000  C
  C342     1.0000 0.55760  0.27610  0.40980  Biso   1.000  C
  C343     1.0000 0.54390  0.32390  0.42140  Biso   1.000  C
  H295     1.0000 0.53670  0.34590  0.39560  Biso   1.000  H
  C344     1.0000 0.57780  0.18880  0.43600  Biso   1.000  C
  N127     1.0000 0.57860  0.23160  0.53750  Biso   1.000  N
  H296     1.0000 0.59050  0.20210  0.53370  Biso   1.000  H
  H297     1.0000 0.57550  0.24390  0.56690  Biso   1.000  H
  N128     1.0000 0.54420  0.31730  0.55900  Biso   1.000  N
  H298     1.0000 0.53180  0.34520  0.56880  Biso   1.000  H
  H299     1.0000 0.55220  0.29500  0.58050  Biso   1.000  H
  N129     1.0000 0.56110  0.26570  0.36140  Biso   1.000  N
  H300     1.0000 0.55480  0.28830  0.33970  Biso   1.000  H
  H301     1.0000 0.56960  0.23630  0.35200  Biso   1.000  H
  O173     1.0000 0.00110  0.91660  0.94690  Biso   1.000  O
  O174     1.0000 0.03020  0.91030  0.02160  Biso   1.000  O
  O175     1.0000 0.08340  0.65910  0.97150  Biso   1.000  O
  O176     1.0000 0.08020  0.67430  0.89230  Biso   1.000  O
  C345     1.0000 0.02320  0.89160  0.98070  Biso   1.000  C
  C346     1.0000 0.04030  0.84050  0.96900  Biso   1.000  C
  C347     1.0000 0.05140  0.80830  0.00760  Biso   1.000  C
  C348     1.0000 0.06480  0.75860  0.99710  Biso   1.000  C
  C349     1.0000 0.06800  0.74280  0.94780  Biso   1.000  C
  C350     1.0000 0.05760  0.77610  0.90980  Biso   1.000  C
  C351     1.0000 0.04390  0.82390  0.92140  Biso   1.000  C
  H302     1.0000 0.03670  0.84590  0.89560  Biso   1.000  H
  C352     1.0000 0.07780  0.68880  0.93600  Biso   1.000  C
  N130     1.0000 0.07860  0.73160  0.03750  Biso   1.000  N
  H303     1.0000 0.09050  0.70210  0.03370  Biso   1.000  H
  H304     1.0000 0.07550  0.74390  0.06690  Biso   1.000  H
  N131     1.0000 0.04420  0.81730  0.05900  Biso   1.000  N
  H305     1.0000 0.03180  0.84520  0.06880  Biso   1.000  H
  H306     1.0000 0.05220  0.79500  0.08050  Biso   1.000  H
  N132     1.0000 0.06110  0.76570  0.86140  Biso   1.000  N
  H307     1.0000 0.05480  0.78830  0.83970  Biso   1.000  H
  H308     1.0000 0.06960  0.73630  0.85200  Biso   1.000  H
  O177     1.0000 0.99890  0.58340  0.94690  Biso   1.000  O
  O178     1.0000 0.96980  0.58970  0.02160  Biso   1.000  O
  O179     1.0000 0.91660  0.84090  0.97150  Biso   1.000  O
  O180     1.0000 0.91980  0.82570  0.89230  Biso   1.000  O
  C353     1.0000 0.97680  0.60840  0.98070  Biso   1.000  C
  C354     1.0000 0.95970  0.65950  0.96900  Biso   1.000  C
  C355     1.0000 0.94860  0.69170  0.00760  Biso   1.000  C
  C356     1.0000 0.93520  0.74140  0.99710  Biso   1.000  C
  C357     1.0000 0.93200  0.75720  0.94780  Biso   1.000  C
  C358     1.0000 0.94240  0.72390  0.90980  Biso   1.000  C
  C359     1.0000 0.95610  0.67610  0.92140  Biso   1.000  C
  H309     1.0000 0.96330  0.65410  0.89560  Biso   1.000  H
  C360     1.0000 0.92220  0.81120  0.93600  Biso   1.000  C
  N133     1.0000 0.92140  0.76840  0.03750  Biso   1.000  N
  H310     1.0000 0.90950  0.79790  0.03370  Biso   1.000  H
  H311     1.0000 0.92450  0.75610  0.06690  Biso   1.000  H
  N134     1.0000 0.95580  0.68270  0.05900  Biso   1.000  N
  H312     1.0000 0.96820  0.65480  0.06880  Biso   1.000  H
  H313     1.0000 0.94780  0.70500  0.08050  Biso   1.000  H
  N135     1.0000 0.93890  0.73430  0.86140  Biso   1.000  N
  H314     1.0000 0.94520  0.71170  0.83970  Biso   1.000  H
  H315     1.0000 0.93040  0.76370  0.85200  Biso   1.000  H
  O181     1.0000 0.49890  0.08340  0.44690  Biso   1.000  O
  O182     1.0000 0.46980  0.08970  0.52160  Biso   1.000  O
  O183     1.0000 0.41660  0.34090  0.47150  Biso   1.000  O
  O184     1.0000 0.41980  0.32570  0.39230  Biso   1.000  O
  C361     1.0000 0.47680  0.10840  0.48070  Biso   1.000  C
  C362     1.0000 0.45970  0.15950  0.46900  Biso   1.000  C
  C363     1.0000 0.44860  0.19170  0.50760  Biso   1.000  C
  C364     1.0000 0.43520  0.24140  0.49710  Biso   1.000  C
  C365     1.0000 0.43200  0.25720  0.44780  Biso   1.000  C
  C366     1.0000 0.44240  0.22390  0.40980  Biso   1.000  C
  C367     1.0000 0.45610  0.17610  0.42140  Biso   1.000  C
  H316     1.0000 0.46330  0.15410  0.39560  Biso   1.000  H
  C368     1.0000 0.42220  0.31120  0.43600  Biso   1.000  C
  N136     1.0000 0.42140  0.26840  0.53750  Biso   1.000  N
  H317     1.0000 0.40950  0.29790  0.53370  Biso   1.000  H
  H318     1.0000 0.42450  0.25610  0.56690  Biso   1.000  H
  N137     1.0000 0.45580  0.18270  0.55900  Biso   1.000  N
  H319     1.0000 0.46820  0.15480  0.56880  Biso   1.000  H
  H320     1.0000 0.44780  0.20500  0.58050  Biso   1.000  H
  N138     1.0000 0.43890  0.23430  0.36140  Biso   1.000  N
  H321     1.0000 0.44520  0.21170  0.33970  Biso   1.000  H
  H322     1.0000 0.43040  0.26370  0.35200  Biso   1.000  H
  O185     1.0000 0.00110  0.08340  0.55310  Biso   1.000  O
  O186     1.0000 0.03020  0.08970  0.47840  Biso   1.000  O
  O187     1.0000 0.08340  0.34090  0.52850  Biso   1.000  O
  O188     1.0000 0.08020  0.32570  0.60770  Biso   1.000  O
  C369     1.0000 0.02320  0.10840  0.51930  Biso   1.000  C
  C370     1.0000 0.04030  0.15950  0.53100  Biso   1.000  C
  C371     1.0000 0.05140  0.19170  0.49240  Biso   1.000  C
  C372     1.0000 0.06480  0.24140  0.50290  Biso   1.000  C
  C373     1.0000 0.06800  0.25720  0.55220  Biso   1.000  C
  C374     1.0000 0.05760  0.22390  0.59020  Biso   1.000  C
  C375     1.0000 0.04390  0.17610  0.57860  Biso   1.000  C
  H323     1.0000 0.03670  0.15410  0.60440  Biso   1.000  H
  C376     1.0000 0.07780  0.31120  0.56400  Biso   1.000  C
  N139     1.0000 0.07860  0.26840  0.46250  Biso   1.000  N
  H324     1.0000 0.09050  0.29790  0.46630  Biso   1.000  H
  H325     1.0000 0.07550  0.25610  0.43310  Biso   1.000  H
  N140     1.0000 0.04420  0.18270  0.44100  Biso   1.000  N
  H326     1.0000 0.03180  0.15480  0.43120  Biso   1.000  H
  H327     1.0000 0.05220  0.20500  0.41950  Biso   1.000  H
  N141     1.0000 0.06110  0.23430  0.63860  Biso   1.000  N
  H328     1.0000 0.05480  0.21170  0.66030  Biso   1.000  H
  H329     1.0000 0.06960  0.26370  0.64800  Biso   1.000  H
  O189     1.0000 0.50110  0.58340  0.05310  Biso   1.000  O
  O190     1.0000 0.53020  0.58970  0.97840  Biso   1.000  O
  O191     1.0000 0.58340  0.84090  0.02850  Biso   1.000  O
  O192     1.0000 0.58020  0.82570  0.10770  Biso   1.000  O
  C377     1.0000 0.52320  0.60840  0.01930  Biso   1.000  C
  C378     1.0000 0.54030  0.65950  0.03100  Biso   1.000  C
  C379     1.0000 0.55140  0.69170  0.99240  Biso   1.000  C
  C380     1.0000 0.56480  0.74140  0.00290  Biso   1.000  C
  C381     1.0000 0.56800  0.75720  0.05220  Biso   1.000  C
  C382     1.0000 0.55760  0.72390  0.09020  Biso   1.000  C
  C383     1.0000 0.54390  0.67610  0.07860  Biso   1.000  C
  H330     1.0000 0.53670  0.65410  0.10440  Biso   1.000  H
  C384     1.0000 0.57780  0.81120  0.06400  Biso   1.000  C
  N142     1.0000 0.57860  0.76840  0.96250  Biso   1.000  N
  H331     1.0000 0.59050  0.79790  0.96630  Biso   1.000  H
  H332     1.0000 0.57550  0.75610  0.93310  Biso   1.000  H
  N143     1.0000 0.54420  0.68270  0.94100  Biso   1.000  N
  H333     1.0000 0.53180  0.65480  0.93120  Biso   1.000  H
  H334     1.0000 0.55220  0.70500  0.91950  Biso   1.000  H
  N144     1.0000 0.56110  0.73430  0.13860  Biso   1.000  N
  H335     1.0000 0.55480  0.71170  0.16030  Biso   1.000  H
  H336     1.0000 0.56960  0.76370  0.14800  Biso   1.000  H
  Nd1      1.0000 0.91525  0.41525  0.08475  Biso   1.000  Nd
  Nd2      1.0000 0.41525  0.91525  0.58475  Biso   1.000  Nd
  Nd3      1.0000 0.58475  0.58475  0.58475  Biso   1.000  Nd
  Nd4      1.0000 0.08475  0.08475  0.08475  Biso   1.000  Nd
  Nd5      1.0000 0.08475  0.91525  0.41525  Biso   1.000  Nd
  Nd6      1.0000 0.58475  0.41525  0.91525  Biso   1.000  Nd
  Nd7      1.0000 0.41525  0.08475  0.91525  Biso   1.000  Nd
  Nd8      1.0000 0.91525  0.58475  0.41525  Biso   1.000  Nd
  Nd9      1.0000 0.08475  0.58475  0.91525  Biso   1.000  Nd
  Nd10     1.0000 0.58475  0.08475  0.41525  Biso   1.000  Nd
  Nd11     1.0000 0.41525  0.41525  0.41525  Biso   1.000  Nd
  Nd12     1.0000 0.91525  0.91525  0.91525  Biso   1.000  Nd
  Nd13     1.0000 0.91525  0.08475  0.58475  Biso   1.000  Nd
  Nd14     1.0000 0.41525  0.58475  0.08475  Biso   1.000  Nd
  Nd15     1.0000 0.58475  0.91525  0.08475  Biso   1.000  Nd
  Nd16     1.0000 0.08475  0.41525  0.58475  Biso   1.000  Nd
  Nd17     1.0000 0.00000  0.50000  0.00000  Biso   1.000  Nd
  Nd18     1.0000 0.50000  0.00000  0.50000  Biso   1.000  Nd
  Nd19     1.0000 0.50000  0.50000  0.50000  Biso   1.000  Nd
  Nd20     1.0000 0.00000  0.00000  0.00000  Biso   1.000  Nd
  Nd21     1.0000 0.00000  0.00000  0.50000  Biso   1.000  Nd
  Nd22     1.0000 0.50000  0.50000  0.00000  Biso   1.000  Nd
  Nd23     1.0000 0.50000  0.00000  0.00000  Biso   1.000  Nd
  Nd24     1.0000 0.00000  0.50000  0.50000  Biso   1.000  Nd
