data_image0
_cell_length_a       29.72
_cell_length_b       37.891
_cell_length_c       37.65
_cell_angle_alpha    90
_cell_angle_beta     90
_cell_angle_gamma    90

_symmetry_space_group_name_H-M    "P 1"
_symmetry_int_tables_number       1

loop_
  _symmetry_equiv_pos_as_xyz
  'x, y, z'

loop_
  _atom_site_label
  _atom_site_occupancy
  _atom_site_fract_x
  _atom_site_fract_y
  _atom_site_fract_z
  _atom_site_thermal_displace_type
  _atom_site_B_iso_or_equiv
  _atom_site_type_symbol
  Zn1      1.0000 0.53681  0.66911  0.78633  Biso   1.000  Zn
  Zn2      1.0000 0.60698  0.61645  0.84238  Biso   1.000  Zn
  Zn3      1.0000 0.67757  0.56404  0.89820  Biso   1.000  Zn
  O1       1.0000 0.39180  0.39360  0.28860  Biso   1.000  O
  O2       1.0000 0.53590  0.61710  0.84510  Biso   1.000  O
  O3       1.0000 0.11590  0.82980  0.15780  Biso   1.000  O
  O4       1.0000 0.38710  0.37420  0.39740  Biso   1.000  O
  O5       1.0000 0.82470  0.11240  0.66140  Biso   1.000  O
  O6       1.0000 0.50120  0.66570  0.82881  Biso   1.000  O
  O7       1.0000 0.36720  0.41820  0.43260  Biso   1.000  O
  O8       1.0000 0.60020  0.56250  0.85170  Biso   1.000  O
  O9       1.0000 0.66000  0.52880  0.86210  Biso   1.000  O
  O10      1.0000 0.44960  0.37200  0.25768  Biso   1.000  O
  O11      1.0000 0.08870  0.80110  0.20460  Biso   1.000  O
  O12      1.0000 0.78270  0.10370  0.61500  Biso   1.000  O
  C1       1.0000 0.50740  0.64120  0.85120  Biso   1.000  C
  C2       1.0000 0.47780  0.64000  0.88256  Biso   1.000  C
  C3       1.0000 0.44960  0.66800  0.89092  Biso   1.000  C
  H1       1.0000 0.44870  0.68780  0.87630  Biso   1.000  H
  C4       1.0000 0.42280  0.66660  0.92110  Biso   1.000  C
  H2       1.0000 0.40400  0.68540  0.92670  Biso   1.000  H
  C5       1.0000 0.42420  0.63700  0.94301  Biso   1.000  C
  C6       1.0000 0.45240  0.60900  0.93460  Biso   1.000  C
  H3       1.0000 0.45340  0.58920  0.94930  Biso   1.000  H
  C7       1.0000 0.47920  0.61040  0.90440  Biso   1.000  C
  H4       1.0000 0.49810  0.59160  0.89880  Biso   1.000  H
  N1       1.0000 0.39810  0.63470  0.97338  Biso   1.000  N
  C8       1.0000 0.40210  0.61720  0.00440  Biso   1.000  C
  H5       1.0000 0.42340  0.60000  0.00960  Biso   1.000  H
  C9       1.0000 0.36980  0.62900  0.02650  Biso   1.000  C
  N2       1.0000 0.34590  0.65390  0.00920  Biso   1.000  N
  N3       1.0000 0.36330  0.65730  0.97640  Biso   1.000  N
  C10      1.0000 0.35580  0.61770  0.06061  Biso   1.000  C
  C11      1.0000 0.37180  0.58640  0.07520  Biso   1.000  C
  H6       1.0000 0.39140  0.57220  0.06230  Biso   1.000  H
  C12      1.0000 0.35860  0.57640  0.10920  Biso   1.000  C
  C13      1.0000 0.32940  0.59770  0.12851  Biso   1.000  C
  H7       1.0000 0.32060  0.59100  0.15120  Biso   1.000  H
  C14      1.0000 0.31330  0.62890  0.11390  Biso   1.000  C
  C15      1.0000 0.32650  0.63890  0.07990  Biso   1.000  C
  H8       1.0000 0.31580  0.65980  0.07010  Biso   1.000  H
  C16      1.0000 0.37400  0.54090  0.12400  Biso   1.000  C
  N4       1.0000 0.40280  0.52100  0.10470  Biso   1.000  N
  N5       1.0000 0.41630  0.49360  0.12510  Biso   1.000  N
  N6       1.0000 0.39580  0.49660  0.15710  Biso   1.000  N
  C17      1.0000 0.36960  0.52580  0.15640  Biso   1.000  C
  H9       1.0000 0.35180  0.53400  0.17490  Biso   1.000  H
  C18      1.0000 0.40000  0.47120  0.18214  Biso   1.000  C
  C19      1.0000 0.43760  0.44930  0.18188  Biso   1.000  C
  H10      1.0000 0.45940  0.45200  0.16440  Biso   1.000  H
  C20      1.0000 0.44250  0.42350  0.20780  Biso   1.000  C
  H11      1.0000 0.46770  0.40890  0.20760  Biso   1.000  H
  C21      1.0000 0.41000  0.41950  0.23400  Biso   1.000  C
  C22      1.0000 0.37240  0.44140  0.23420  Biso   1.000  C
  H12      1.0000 0.35060  0.43870  0.25180  Biso   1.000  H
  C23      1.0000 0.36740  0.46720  0.20830  Biso   1.000  C
  H13      1.0000 0.34230  0.48180  0.20850  Biso   1.000  H
  C24      1.0000 0.41720  0.39430  0.26290  Biso   1.000  C
  C25      1.0000 0.28260  0.65100  0.13500  Biso   1.000  C
  C26      1.0000 0.26040  0.68220  0.12810  Biso   1.000  C
  H14      1.0000 0.26310  0.69570  0.10760  Biso   1.000  H
  N7       1.0000 0.23340  0.68970  0.15690  Biso   1.000  N
  N8       1.0000 0.23890  0.66320  0.18140  Biso   1.000  N
  N9       1.0000 0.26930  0.63930  0.16800  Biso   1.000  N
  C27      1.0000 0.20540  0.71750  0.16150  Biso   1.000  C
  C28      1.0000 0.18080  0.71850  0.19290  Biso   1.000  C
  H15      1.0000 0.18380  0.70050  0.20950  Biso   1.000  H
  C29      1.0000 0.15170  0.74650  0.19950  Biso   1.000  C
  H16      1.0000 0.13530  0.74720  0.22050  Biso   1.000  H
  C30      1.0000 0.14720  0.77340  0.17470  Biso   1.000  C
  C31      1.0000 0.17170  0.77240  0.14330  Biso   1.000  C
  H17      1.0000 0.16870  0.79040  0.12670  Biso   1.000  H
  C32      1.0000 0.20080  0.74440  0.13670  Biso   1.000  C
  H18      1.0000 0.21730  0.74370  0.11570  Biso   1.000  H
  C33      1.0000 0.11440  0.80290  0.17850  Biso   1.000  C
  C34      1.0000 0.62320  0.53530  0.84620  Biso   1.000  C
  C35      1.0000 0.61060  0.50990  0.81810  Biso   1.000  C
  C36      1.0000 0.64150  0.48480  0.80680  Biso   1.000  C
  H19      1.0000 0.66930  0.48290  0.81800  Biso   1.000  H
  C37      1.0000 0.63090  0.46250  0.77860  Biso   1.000  C
  H20      1.0000 0.65160  0.44570  0.77110  Biso   1.000  H
  C38      1.0000 0.58940  0.46530  0.76180  Biso   1.000  C
  C39      1.0000 0.55850  0.49050  0.77320  Biso   1.000  C
  H21      1.0000 0.53080  0.49240  0.76190  Biso   1.000  H
  C40      1.0000 0.56910  0.51270  0.80130  Biso   1.000  C
  H22      1.0000 0.54840  0.52950  0.80890  Biso   1.000  H
  N10      1.0000 0.57930  0.44080  0.73510  Biso   1.000  N
  C41      1.0000 0.59560  0.41060  0.72400  Biso   1.000  C
  H23      1.0000 0.61920  0.39820  0.73420  Biso   1.000  H
  C42      1.0000 0.57270  0.40100  0.69590  Biso   1.000  C
  N11      1.0000 0.54220  0.42520  0.68960  Biso   1.000  N
  N12      1.0000 0.54620  0.44990  0.71390  Biso   1.000  N
  C43      1.0000 0.57670  0.36930  0.67460  Biso   1.000  C
  C44      1.0000 0.60340  0.34130  0.68560  Biso   1.000  C
  H24      1.0000 0.61810  0.34230  0.70740  Biso   1.000  H
  C45      1.0000 0.60830  0.31170  0.66420  Biso   1.000  C
  C46      1.0000 0.58630  0.31010  0.63160  Biso   1.000  C
  H25      1.0000 0.58960  0.29030  0.61720  Biso   1.000  H
  C47      1.0000 0.55960  0.33810  0.62050  Biso   1.000  C
  C48      1.0000 0.55470  0.36770  0.64200  Biso   1.000  C
  H26      1.0000 0.53680  0.38640  0.63460  Biso   1.000  H
  N13      1.0000 0.65810  0.28020  0.70650  Biso   1.000  N
  N14      1.0000 0.68560  0.25140  0.70720  Biso   1.000  N
  N15      1.0000 0.68450  0.23610  0.67450  Biso   1.000  N
  C49      1.0000 0.65650  0.25540  0.65350  Biso   1.000  C
  H27      1.0000 0.64970  0.25080  0.62990  Biso   1.000  H
  C50      1.0000 0.64020  0.28270  0.67330  Biso   1.000  C
  C51      1.0000 0.70470  0.20350  0.66800  Biso   1.000  C
  C52      1.0000 0.70210  0.18560  0.63590  Biso   1.000  C
  H28      1.0000 0.68040  0.19200  0.61920  Biso   1.000  H
  C53      1.0000 0.73170  0.15820  0.62860  Biso   1.000  C
  H29      1.0000 0.73000  0.14620  0.60710  Biso   1.000  H
  C54      1.0000 0.76410  0.14860  0.65350  Biso   1.000  C
  C55      1.0000 0.76670  0.16660  0.68570  Biso   1.000  C
  H30      1.0000 0.78840  0.16020  0.70230  Biso   1.000  H
  C56      1.0000 0.73710  0.19400  0.69290  Biso   1.000  C
  H31      1.0000 0.73880  0.20600  0.71440  Biso   1.000  H
  C57      1.0000 0.78850  0.11590  0.64530  Biso   1.000  C
  C58      1.0000 0.53710  0.33540  0.58420  Biso   1.000  C
  C59      1.0000 0.51260  0.35770  0.56750  Biso   1.000  C
  H32      1.0000 0.50470  0.38010  0.57540  Biso   1.000  H
  N16      1.0000 0.50080  0.34360  0.53800  Biso   1.000  N
  N17      1.0000 0.51790  0.31260  0.53650  Biso   1.000  N
  N18      1.0000 0.54050  0.30760  0.56510  Biso   1.000  N
  C60      1.0000 0.47310  0.35480  0.50940  Biso   1.000  C
  C61      1.0000 0.46690  0.33370  0.47960  Biso   1.000  C
  H33      1.0000 0.48120  0.31190  0.47810  Biso   1.000  H
  C62      1.0000 0.43950  0.34510  0.45200  Biso   1.000  C
  H34      1.0000 0.43530  0.33100  0.43210  Biso   1.000  H
  C63      1.0000 0.41820  0.37770  0.45420  Biso   1.000  C
  C64      1.0000 0.42440  0.39890  0.48400  Biso   1.000  C
  H35      1.0000 0.41020  0.42070  0.48550  Biso   1.000  H
  C65      1.0000 0.45190  0.38740  0.51160  Biso   1.000  C
  H36      1.0000 0.45600  0.40150  0.53150  Biso   1.000  H
  C66      1.0000 0.39170  0.39120  0.42490  Biso   1.000  C
  Zn4      1.0000 0.03681  0.16911  0.78633  Biso   1.000  Zn
  Zn5      1.0000 0.10698  0.11645  0.84238  Biso   1.000  Zn
  Zn6      1.0000 0.17757  0.06404  0.89820  Biso   1.000  Zn
  O13      1.0000 0.89180  0.89360  0.28860  Biso   1.000  O
  O14      1.0000 0.03590  0.11710  0.84510  Biso   1.000  O
  O15      1.0000 0.61590  0.32980  0.15780  Biso   1.000  O
  O16      1.0000 0.88710  0.87420  0.39740  Biso   1.000  O
  O17      1.0000 0.32470  0.61240  0.66140  Biso   1.000  O
  O18      1.0000 0.00120  0.16570  0.82881  Biso   1.000  O
  O19      1.0000 0.86720  0.91820  0.43260  Biso   1.000  O
  O20      1.0000 0.10020  0.06250  0.85170  Biso   1.000  O
  O21      1.0000 0.16000  0.02880  0.86210  Biso   1.000  O
  O22      1.0000 0.94960  0.87200  0.25768  Biso   1.000  O
  O23      1.0000 0.58870  0.30110  0.20460  Biso   1.000  O
  O24      1.0000 0.28270  0.60370  0.61500  Biso   1.000  O
  C67      1.0000 0.00740  0.14120  0.85120  Biso   1.000  C
  C68      1.0000 0.97780  0.14000  0.88256  Biso   1.000  C
  C69      1.0000 0.94960  0.16800  0.89092  Biso   1.000  C
  H37      1.0000 0.94870  0.18780  0.87630  Biso   1.000  H
  C70      1.0000 0.92280  0.16660  0.92110  Biso   1.000  C
  H38      1.0000 0.90400  0.18540  0.92670  Biso   1.000  H
  C71      1.0000 0.92420  0.13700  0.94301  Biso   1.000  C
  C72      1.0000 0.95240  0.10900  0.93460  Biso   1.000  C
  H39      1.0000 0.95340  0.08920  0.94930  Biso   1.000  H
  C73      1.0000 0.97920  0.11040  0.90440  Biso   1.000  C
  H40      1.0000 0.99810  0.09160  0.89880  Biso   1.000  H
  N19      1.0000 0.89810  0.13470  0.97338  Biso   1.000  N
  C74      1.0000 0.90210  0.11720  0.00440  Biso   1.000  C
  H41      1.0000 0.92340  0.10000  0.00960  Biso   1.000  H
  C75      1.0000 0.86980  0.12900  0.02650  Biso   1.000  C
  N20      1.0000 0.84590  0.15390  0.00920  Biso   1.000  N
  N21      1.0000 0.86330  0.15730  0.97640  Biso   1.000  N
  C76      1.0000 0.85580  0.11770  0.06061  Biso   1.000  C
  C77      1.0000 0.87180  0.08640  0.07520  Biso   1.000  C
  H42      1.0000 0.89140  0.07220  0.06230  Biso   1.000  H
  C78      1.0000 0.85860  0.07640  0.10920  Biso   1.000  C
  C79      1.0000 0.82940  0.09770  0.12851  Biso   1.000  C
  H43      1.0000 0.82060  0.09100  0.15120  Biso   1.000  H
  C80      1.0000 0.81330  0.12890  0.11390  Biso   1.000  C
  C81      1.0000 0.82650  0.13890  0.07990  Biso   1.000  C
  H44      1.0000 0.81580  0.15980  0.07010  Biso   1.000  H
  C82      1.0000 0.87400  0.04090  0.12400  Biso   1.000  C
  N22      1.0000 0.90280  0.02100  0.10470  Biso   1.000  N
  N23      1.0000 0.91630  0.99360  0.12510  Biso   1.000  N
  N24      1.0000 0.89580  0.99660  0.15710  Biso   1.000  N
  C83      1.0000 0.86960  0.02580  0.15640  Biso   1.000  C
  H45      1.0000 0.85180  0.03400  0.17490  Biso   1.000  H
  C84      1.0000 0.90000  0.97120  0.18214  Biso   1.000  C
  C85      1.0000 0.93760  0.94930  0.18188  Biso   1.000  C
  H46      1.0000 0.95940  0.95200  0.16440  Biso   1.000  H
  C86      1.0000 0.94250  0.92350  0.20780  Biso   1.000  C
  H47      1.0000 0.96770  0.90890  0.20760  Biso   1.000  H
  C87      1.0000 0.91000  0.91950  0.23400  Biso   1.000  C
  C88      1.0000 0.87240  0.94140  0.23420  Biso   1.000  C
  H48      1.0000 0.85060  0.93870  0.25180  Biso   1.000  H
  C89      1.0000 0.86740  0.96720  0.20830  Biso   1.000  C
  H49      1.0000 0.84230  0.98180  0.20850  Biso   1.000  H
  C90      1.0000 0.91720  0.89430  0.26290  Biso   1.000  C
  C91      1.0000 0.78260  0.15100  0.13500  Biso   1.000  C
  C92      1.0000 0.76040  0.18220  0.12810  Biso   1.000  C
  H50      1.0000 0.76310  0.19570  0.10760  Biso   1.000  H
  N25      1.0000 0.73340  0.18970  0.15690  Biso   1.000  N
  N26      1.0000 0.73890  0.16320  0.18140  Biso   1.000  N
  N27      1.0000 0.76930  0.13930  0.16800  Biso   1.000  N
  C93      1.0000 0.70540  0.21750  0.16150  Biso   1.000  C
  C94      1.0000 0.68080  0.21850  0.19290  Biso   1.000  C
  H51      1.0000 0.68380  0.20050  0.20950  Biso   1.000  H
  C95      1.0000 0.65170  0.24650  0.19950  Biso   1.000  C
  H52      1.0000 0.63530  0.24720  0.22050  Biso   1.000  H
  C96      1.0000 0.64720  0.27340  0.17470  Biso   1.000  C
  C97      1.0000 0.67170  0.27240  0.14330  Biso   1.000  C
  H53      1.0000 0.66870  0.29040  0.12670  Biso   1.000  H
  C98      1.0000 0.70080  0.24440  0.13670  Biso   1.000  C
  H54      1.0000 0.71730  0.24370  0.11570  Biso   1.000  H
  C99      1.0000 0.61440  0.30290  0.17850  Biso   1.000  C
  C100     1.0000 0.12320  0.03530  0.84620  Biso   1.000  C
  C101     1.0000 0.11060  0.00990  0.81810  Biso   1.000  C
  C102     1.0000 0.14150  0.98480  0.80680  Biso   1.000  C
  H55      1.0000 0.16930  0.98290  0.81800  Biso   1.000  H
  C103     1.0000 0.13090  0.96250  0.77860  Biso   1.000  C
  H56      1.0000 0.15160  0.94570  0.77110  Biso   1.000  H
  C104     1.0000 0.08940  0.96530  0.76180  Biso   1.000  C
  C105     1.0000 0.05850  0.99050  0.77320  Biso   1.000  C
  H57      1.0000 0.03080  0.99240  0.76190  Biso   1.000  H
  C106     1.0000 0.06910  0.01270  0.80130  Biso   1.000  C
  H58      1.0000 0.04840  0.02950  0.80890  Biso   1.000  H
  N28      1.0000 0.07930  0.94080  0.73510  Biso   1.000  N
  C107     1.0000 0.09560  0.91060  0.72400  Biso   1.000  C
  H59      1.0000 0.11920  0.89820  0.73420  Biso   1.000  H
  C108     1.0000 0.07270  0.90100  0.69590  Biso   1.000  C
  N29      1.0000 0.04220  0.92520  0.68960  Biso   1.000  N
  N30      1.0000 0.04620  0.94990  0.71390  Biso   1.000  N
  C109     1.0000 0.07670  0.86930  0.67460  Biso   1.000  C
  C110     1.0000 0.10340  0.84130  0.68560  Biso   1.000  C
  H60      1.0000 0.11810  0.84230  0.70740  Biso   1.000  H
  C111     1.0000 0.10830  0.81170  0.66420  Biso   1.000  C
  C112     1.0000 0.08630  0.81010  0.63160  Biso   1.000  C
  H61      1.0000 0.08960  0.79030  0.61720  Biso   1.000  H
  C113     1.0000 0.05960  0.83810  0.62050  Biso   1.000  C
  C114     1.0000 0.05470  0.86770  0.64200  Biso   1.000  C
  H62      1.0000 0.03680  0.88640  0.63460  Biso   1.000  H
  N31      1.0000 0.15810  0.78020  0.70650  Biso   1.000  N
  N32      1.0000 0.18560  0.75140  0.70720  Biso   1.000  N
  N33      1.0000 0.18450  0.73610  0.67450  Biso   1.000  N
  C115     1.0000 0.15650  0.75540  0.65350  Biso   1.000  C
  H63      1.0000 0.14970  0.75080  0.62990  Biso   1.000  H
  C116     1.0000 0.14020  0.78270  0.67330  Biso   1.000  C
  C117     1.0000 0.20470  0.70350  0.66800  Biso   1.000  C
  C118     1.0000 0.20210  0.68560  0.63590  Biso   1.000  C
  H64      1.0000 0.18040  0.69200  0.61920  Biso   1.000  H
  C119     1.0000 0.23170  0.65820  0.62860  Biso   1.000  C
  H65      1.0000 0.23000  0.64620  0.60710  Biso   1.000  H
  C120     1.0000 0.26410  0.64860  0.65350  Biso   1.000  C
  C121     1.0000 0.26670  0.66660  0.68570  Biso   1.000  C
  H66      1.0000 0.28840  0.66020  0.70230  Biso   1.000  H
  C122     1.0000 0.23710  0.69400  0.69290  Biso   1.000  C
  H67      1.0000 0.23880  0.70600  0.71440  Biso   1.000  H
  C123     1.0000 0.28850  0.61590  0.64530  Biso   1.000  C
  C124     1.0000 0.03710  0.83540  0.58420  Biso   1.000  C
  C125     1.0000 0.01260  0.85770  0.56750  Biso   1.000  C
  H68      1.0000 0.00470  0.88010  0.57540  Biso   1.000  H
  N34      1.0000 0.00080  0.84360  0.53800  Biso   1.000  N
  N35      1.0000 0.01790  0.81260  0.53650  Biso   1.000  N
  N36      1.0000 0.04050  0.80760  0.56510  Biso   1.000  N
  C126     1.0000 0.97310  0.85480  0.50940  Biso   1.000  C
  C127     1.0000 0.96690  0.83370  0.47960  Biso   1.000  C
  H69      1.0000 0.98120  0.81190  0.47810  Biso   1.000  H
  C128     1.0000 0.93950  0.84510  0.45200  Biso   1.000  C
  H70      1.0000 0.93530  0.83100  0.43210  Biso   1.000  H
  C129     1.0000 0.91820  0.87770  0.45420  Biso   1.000  C
  C130     1.0000 0.92440  0.89890  0.48400  Biso   1.000  C
  H71      1.0000 0.91020  0.92070  0.48550  Biso   1.000  H
  C131     1.0000 0.95190  0.88740  0.51160  Biso   1.000  C
  H72      1.0000 0.95600  0.90150  0.53150  Biso   1.000  H
  C132     1.0000 0.89170  0.89120  0.42490  Biso   1.000  C
  Zn7      1.0000 0.46319  0.33089  0.28633  Biso   1.000  Zn
  Zn8      1.0000 0.39302  0.38355  0.34238  Biso   1.000  Zn
  Zn9      1.0000 0.32243  0.43596  0.39820  Biso   1.000  Zn
  O25      1.0000 0.60820  0.60640  0.78860  Biso   1.000  O
  O26      1.0000 0.46410  0.38290  0.34510  Biso   1.000  O
  O27      1.0000 0.88410  0.17020  0.65780  Biso   1.000  O
  O28      1.0000 0.61290  0.62580  0.89740  Biso   1.000  O
  O29      1.0000 0.17530  0.88760  0.16140  Biso   1.000  O
  O30      1.0000 0.49880  0.33430  0.32881  Biso   1.000  O
  O31      1.0000 0.63280  0.58180  0.93260  Biso   1.000  O
  O32      1.0000 0.39980  0.43750  0.35170  Biso   1.000  O
  O33      1.0000 0.34000  0.47120  0.36210  Biso   1.000  O
  O34      1.0000 0.55040  0.62800  0.75768  Biso   1.000  O
  O35      1.0000 0.91130  0.19890  0.70460  Biso   1.000  O
  O36      1.0000 0.21730  0.89630  0.11500  Biso   1.000  O
  C133     1.0000 0.49260  0.35880  0.35120  Biso   1.000  C
  C134     1.0000 0.52220  0.36000  0.38256  Biso   1.000  C
  C135     1.0000 0.55040  0.33200  0.39092  Biso   1.000  C
  H73      1.0000 0.55130  0.31220  0.37630  Biso   1.000  H
  C136     1.0000 0.57720  0.33340  0.42110  Biso   1.000  C
  H74      1.0000 0.59600  0.31460  0.42670  Biso   1.000  H
  C137     1.0000 0.57580  0.36300  0.44301  Biso   1.000  C
  C138     1.0000 0.54760  0.39100  0.43460  Biso   1.000  C
  H75      1.0000 0.54660  0.41080  0.44930  Biso   1.000  H
  C139     1.0000 0.52080  0.38960  0.40440  Biso   1.000  C
  H76      1.0000 0.50190  0.40840  0.39880  Biso   1.000  H
  N37      1.0000 0.60190  0.36530  0.47338  Biso   1.000  N
  C140     1.0000 0.59790  0.38280  0.50440  Biso   1.000  C
  H77      1.0000 0.57660  0.40000  0.50960  Biso   1.000  H
  C141     1.0000 0.63020  0.37100  0.52650  Biso   1.000  C
  N38      1.0000 0.65410  0.34610  0.50920  Biso   1.000  N
  N39      1.0000 0.63670  0.34270  0.47640  Biso   1.000  N
  C142     1.0000 0.64420  0.38230  0.56061  Biso   1.000  C
  C143     1.0000 0.62820  0.41360  0.57520  Biso   1.000  C
  H78      1.0000 0.60860  0.42780  0.56230  Biso   1.000  H
  C144     1.0000 0.64140  0.42360  0.60920  Biso   1.000  C
  C145     1.0000 0.67060  0.40230  0.62851  Biso   1.000  C
  H79      1.0000 0.67940  0.40900  0.65120  Biso   1.000  H
  C146     1.0000 0.68670  0.37110  0.61390  Biso   1.000  C
  C147     1.0000 0.67350  0.36110  0.57990  Biso   1.000  C
  H80      1.0000 0.68420  0.34020  0.57010  Biso   1.000  H
  C148     1.0000 0.62600  0.45910  0.62400  Biso   1.000  C
  N40      1.0000 0.59720  0.47900  0.60470  Biso   1.000  N
  N41      1.0000 0.58370  0.50640  0.62510  Biso   1.000  N
  N42      1.0000 0.60420  0.50340  0.65710  Biso   1.000  N
  C149     1.0000 0.63040  0.47420  0.65640  Biso   1.000  C
  H81      1.0000 0.64820  0.46600  0.67490  Biso   1.000  H
  C150     1.0000 0.60000  0.52880  0.68214  Biso   1.000  C
  C151     1.0000 0.56240  0.55070  0.68188  Biso   1.000  C
  H82      1.0000 0.54060  0.54800  0.66440  Biso   1.000  H
  C152     1.0000 0.55750  0.57650  0.70780  Biso   1.000  C
  H83      1.0000 0.53230  0.59110  0.70760  Biso   1.000  H
  C153     1.0000 0.59000  0.58050  0.73400  Biso   1.000  C
  C154     1.0000 0.62760  0.55860  0.73420  Biso   1.000  C
  H84      1.0000 0.64940  0.56130  0.75180  Biso   1.000  H
  C155     1.0000 0.63260  0.53280  0.70830  Biso   1.000  C
  H85      1.0000 0.65770  0.51820  0.70850  Biso   1.000  H
  C156     1.0000 0.58280  0.60570  0.76290  Biso   1.000  C
  C157     1.0000 0.71740  0.34900  0.63500  Biso   1.000  C
  C158     1.0000 0.73960  0.31780  0.62810  Biso   1.000  C
  H86      1.0000 0.73690  0.30430  0.60760  Biso   1.000  H
  N43      1.0000 0.76660  0.31030  0.65690  Biso   1.000  N
  N44      1.0000 0.76110  0.33680  0.68140  Biso   1.000  N
  N45      1.0000 0.73070  0.36070  0.66800  Biso   1.000  N
  C159     1.0000 0.79460  0.28250  0.66150  Biso   1.000  C
  C160     1.0000 0.81920  0.28150  0.69290  Biso   1.000  C
  H87      1.0000 0.81620  0.29950  0.70950  Biso   1.000  H
  C161     1.0000 0.84830  0.25350  0.69950  Biso   1.000  C
  H88      1.0000 0.86470  0.25280  0.72050  Biso   1.000  H
  C162     1.0000 0.85280  0.22660  0.67470  Biso   1.000  C
  C163     1.0000 0.82830  0.22760  0.64330  Biso   1.000  C
  H89      1.0000 0.83130  0.20960  0.62670  Biso   1.000  H
  C164     1.0000 0.79920  0.25560  0.63670  Biso   1.000  C
  H90      1.0000 0.78270  0.25630  0.61570  Biso   1.000  H
  C165     1.0000 0.88560  0.19710  0.67850  Biso   1.000  C
  C166     1.0000 0.37680  0.46470  0.34620  Biso   1.000  C
  C167     1.0000 0.38940  0.49010  0.31810  Biso   1.000  C
  C168     1.0000 0.35850  0.51520  0.30680  Biso   1.000  C
  H91      1.0000 0.33070  0.51710  0.31800  Biso   1.000  H
  C169     1.0000 0.36910  0.53750  0.27860  Biso   1.000  C
  H92      1.0000 0.34840  0.55430  0.27110  Biso   1.000  H
  C170     1.0000 0.41060  0.53470  0.26180  Biso   1.000  C
  C171     1.0000 0.44150  0.50950  0.27320  Biso   1.000  C
  H93      1.0000 0.46920  0.50760  0.26190  Biso   1.000  H
  C172     1.0000 0.43090  0.48730  0.30130  Biso   1.000  C
  H94      1.0000 0.45160  0.47050  0.30890  Biso   1.000  H
  N46      1.0000 0.42070  0.55920  0.23510  Biso   1.000  N
  C173     1.0000 0.40440  0.58940  0.22400  Biso   1.000  C
  H95      1.0000 0.38080  0.60180  0.23420  Biso   1.000  H
  C174     1.0000 0.42730  0.59900  0.19590  Biso   1.000  C
  N47      1.0000 0.45780  0.57480  0.18960  Biso   1.000  N
  N48      1.0000 0.45380  0.55010  0.21390  Biso   1.000  N
  C175     1.0000 0.42330  0.63070  0.17460  Biso   1.000  C
  C176     1.0000 0.39660  0.65870  0.18560  Biso   1.000  C
  H96      1.0000 0.38190  0.65770  0.20740  Biso   1.000  H
  C177     1.0000 0.39170  0.68830  0.16420  Biso   1.000  C
  C178     1.0000 0.41370  0.68990  0.13160  Biso   1.000  C
  H97      1.0000 0.41040  0.70970  0.11720  Biso   1.000  H
  C179     1.0000 0.44040  0.66190  0.12050  Biso   1.000  C
  C180     1.0000 0.44530  0.63230  0.14200  Biso   1.000  C
  H98      1.0000 0.46320  0.61360  0.13460  Biso   1.000  H
  N49      1.0000 0.34190  0.71980  0.20650  Biso   1.000  N
  N50      1.0000 0.31440  0.74860  0.20720  Biso   1.000  N
  N51      1.0000 0.31550  0.76390  0.17450  Biso   1.000  N
  C181     1.0000 0.34350  0.74460  0.15350  Biso   1.000  C
  H99      1.0000 0.35030  0.74920  0.12990  Biso   1.000  H
  C182     1.0000 0.35980  0.71730  0.17330  Biso   1.000  C
  C183     1.0000 0.29530  0.79650  0.16800  Biso   1.000  C
  C184     1.0000 0.29790  0.81440  0.13590  Biso   1.000  C
  H100     1.0000 0.31960  0.80800  0.11920  Biso   1.000  H
  C185     1.0000 0.26830  0.84180  0.12860  Biso   1.000  C
  H101     1.0000 0.27000  0.85380  0.10710  Biso   1.000  H
  C186     1.0000 0.23590  0.85140  0.15350  Biso   1.000  C
  C187     1.0000 0.23330  0.83340  0.18570  Biso   1.000  C
  H102     1.0000 0.21160  0.83980  0.20230  Biso   1.000  H
  C188     1.0000 0.26290  0.80600  0.19290  Biso   1.000  C
  H103     1.0000 0.26120  0.79400  0.21440  Biso   1.000  H
  C189     1.0000 0.21150  0.88410  0.14530  Biso   1.000  C
  C190     1.0000 0.46290  0.66460  0.08420  Biso   1.000  C
  C191     1.0000 0.48740  0.64230  0.06750  Biso   1.000  C
  H104     1.0000 0.49530  0.61990  0.07540  Biso   1.000  H
  N52      1.0000 0.49920  0.65640  0.03800  Biso   1.000  N
  N53      1.0000 0.48210  0.68740  0.03650  Biso   1.000  N
  N54      1.0000 0.45950  0.69240  0.06510  Biso   1.000  N
  C192     1.0000 0.52690  0.64520  0.00940  Biso   1.000  C
  C193     1.0000 0.53310  0.66630  0.97960  Biso   1.000  C
  H105     1.0000 0.51880  0.68810  0.97810  Biso   1.000  H
  C194     1.0000 0.56050  0.65490  0.95200  Biso   1.000  C
  H106     1.0000 0.56470  0.66900  0.93210  Biso   1.000  H
  C195     1.0000 0.58180  0.62230  0.95420  Biso   1.000  C
  C196     1.0000 0.57560  0.60110  0.98400  Biso   1.000  C
  H107     1.0000 0.58980  0.57930  0.98550  Biso   1.000  H
  C197     1.0000 0.54810  0.61260  0.01160  Biso   1.000  C
  H108     1.0000 0.54400  0.59850  0.03150  Biso   1.000  H
  C198     1.0000 0.60830  0.60880  0.92490  Biso   1.000  C
  Zn10     1.0000 0.96319  0.83089  0.28633  Biso   1.000  Zn
  Zn11     1.0000 0.89302  0.88355  0.34238  Biso   1.000  Zn
  Zn12     1.0000 0.82243  0.93596  0.39820  Biso   1.000  Zn
  O37      1.0000 0.10820  0.10640  0.78860  Biso   1.000  O
  O38      1.0000 0.96410  0.88290  0.34510  Biso   1.000  O
  O39      1.0000 0.38410  0.67020  0.65780  Biso   1.000  O
  O40      1.0000 0.11290  0.12580  0.89740  Biso   1.000  O
  O41      1.0000 0.67530  0.38760  0.16140  Biso   1.000  O
  O42      1.0000 0.99880  0.83430  0.32881  Biso   1.000  O
  O43      1.0000 0.13280  0.08180  0.93260  Biso   1.000  O
  O44      1.0000 0.89980  0.93750  0.35170  Biso   1.000  O
  O45      1.0000 0.84000  0.97120  0.36210  Biso   1.000  O
  O46      1.0000 0.05040  0.12800  0.75768  Biso   1.000  O
  O47      1.0000 0.41130  0.69890  0.70460  Biso   1.000  O
  O48      1.0000 0.71730  0.39630  0.11500  Biso   1.000  O
  C199     1.0000 0.99260  0.85880  0.35120  Biso   1.000  C
  C200     1.0000 0.02220  0.86000  0.38256  Biso   1.000  C
  C201     1.0000 0.05040  0.83200  0.39092  Biso   1.000  C
  H109     1.0000 0.05130  0.81220  0.37630  Biso   1.000  H
  C202     1.0000 0.07720  0.83340  0.42110  Biso   1.000  C
  H110     1.0000 0.09600  0.81460  0.42670  Biso   1.000  H
  C203     1.0000 0.07580  0.86300  0.44301  Biso   1.000  C
  C204     1.0000 0.04760  0.89100  0.43460  Biso   1.000  C
  H111     1.0000 0.04660  0.91080  0.44930  Biso   1.000  H
  C205     1.0000 0.02080  0.88960  0.40440  Biso   1.000  C
  H112     1.0000 0.00190  0.90840  0.39880  Biso   1.000  H
  N55      1.0000 0.10190  0.86530  0.47338  Biso   1.000  N
  C206     1.0000 0.09790  0.88280  0.50440  Biso   1.000  C
  H113     1.0000 0.07660  0.90000  0.50960  Biso   1.000  H
  C207     1.0000 0.13020  0.87100  0.52650  Biso   1.000  C
  N56      1.0000 0.15410  0.84610  0.50920  Biso   1.000  N
  N57      1.0000 0.13670  0.84270  0.47640  Biso   1.000  N
  C208     1.0000 0.14420  0.88230  0.56061  Biso   1.000  C
  C209     1.0000 0.12820  0.91360  0.57520  Biso   1.000  C
  H114     1.0000 0.10860  0.92780  0.56230  Biso   1.000  H
  C210     1.0000 0.14140  0.92360  0.60920  Biso   1.000  C
  C211     1.0000 0.17060  0.90230  0.62851  Biso   1.000  C
  H115     1.0000 0.17940  0.90900  0.65120  Biso   1.000  H
  C212     1.0000 0.18670  0.87110  0.61390  Biso   1.000  C
  C213     1.0000 0.17350  0.86110  0.57990  Biso   1.000  C
  H116     1.0000 0.18420  0.84020  0.57010  Biso   1.000  H
  C214     1.0000 0.12600  0.95910  0.62400  Biso   1.000  C
  N58      1.0000 0.09720  0.97900  0.60470  Biso   1.000  N
  N59      1.0000 0.08370  0.00640  0.62510  Biso   1.000  N
  N60      1.0000 0.10420  0.00340  0.65710  Biso   1.000  N
  C215     1.0000 0.13040  0.97420  0.65640  Biso   1.000  C
  H117     1.0000 0.14820  0.96600  0.67490  Biso   1.000  H
  C216     1.0000 0.10000  0.02880  0.68214  Biso   1.000  C
  C217     1.0000 0.06240  0.05070  0.68188  Biso   1.000  C
  H118     1.0000 0.04060  0.04800  0.66440  Biso   1.000  H
  C218     1.0000 0.05750  0.07650  0.70780  Biso   1.000  C
  H119     1.0000 0.03230  0.09110  0.70760  Biso   1.000  H
  C219     1.0000 0.09000  0.08050  0.73400  Biso   1.000  C
  C220     1.0000 0.12760  0.05860  0.73420  Biso   1.000  C
  H120     1.0000 0.14940  0.06130  0.75180  Biso   1.000  H
  C221     1.0000 0.13260  0.03280  0.70830  Biso   1.000  C
  H121     1.0000 0.15770  0.01820  0.70850  Biso   1.000  H
  C222     1.0000 0.08280  0.10570  0.76290  Biso   1.000  C
  C223     1.0000 0.21740  0.84900  0.63500  Biso   1.000  C
  C224     1.0000 0.23960  0.81780  0.62810  Biso   1.000  C
  H122     1.0000 0.23690  0.80430  0.60760  Biso   1.000  H
  N61      1.0000 0.26660  0.81030  0.65690  Biso   1.000  N
  N62      1.0000 0.26110  0.83680  0.68140  Biso   1.000  N
  N63      1.0000 0.23070  0.86070  0.66800  Biso   1.000  N
  C225     1.0000 0.29460  0.78250  0.66150  Biso   1.000  C
  C226     1.0000 0.31920  0.78150  0.69290  Biso   1.000  C
  H123     1.0000 0.31620  0.79950  0.70950  Biso   1.000  H
  C227     1.0000 0.34830  0.75350  0.69950  Biso   1.000  C
  H124     1.0000 0.36470  0.75280  0.72050  Biso   1.000  H
  C228     1.0000 0.35280  0.72660  0.67470  Biso   1.000  C
  C229     1.0000 0.32830  0.72760  0.64330  Biso   1.000  C
  H125     1.0000 0.33130  0.70960  0.62670  Biso   1.000  H
  C230     1.0000 0.29920  0.75560  0.63670  Biso   1.000  C
  H126     1.0000 0.28270  0.75630  0.61570  Biso   1.000  H
  C231     1.0000 0.38560  0.69710  0.67850  Biso   1.000  C
  C232     1.0000 0.87680  0.96470  0.34620  Biso   1.000  C
  C233     1.0000 0.88940  0.99010  0.31810  Biso   1.000  C
  C234     1.0000 0.85850  0.01520  0.30680  Biso   1.000  C
  H127     1.0000 0.83070  0.01710  0.31800  Biso   1.000  H
  C235     1.0000 0.86910  0.03750  0.27860  Biso   1.000  C
  H128     1.0000 0.84840  0.05430  0.27110  Biso   1.000  H
  C236     1.0000 0.91060  0.03470  0.26180  Biso   1.000  C
  C237     1.0000 0.94150  0.00950  0.27320  Biso   1.000  C
  H129     1.0000 0.96920  0.00760  0.26190  Biso   1.000  H
  C238     1.0000 0.93090  0.98730  0.30130  Biso   1.000  C
  H130     1.0000 0.95160  0.97050  0.30890  Biso   1.000  H
  N64      1.0000 0.92070  0.05920  0.23510  Biso   1.000  N
  C239     1.0000 0.90440  0.08940  0.22400  Biso   1.000  C
  H131     1.0000 0.88080  0.10180  0.23420  Biso   1.000  H
  C240     1.0000 0.92730  0.09900  0.19590  Biso   1.000  C
  N65      1.0000 0.95780  0.07480  0.18960  Biso   1.000  N
  N66      1.0000 0.95380  0.05010  0.21390  Biso   1.000  N
  C241     1.0000 0.92330  0.13070  0.17460  Biso   1.000  C
  C242     1.0000 0.89660  0.15870  0.18560  Biso   1.000  C
  H132     1.0000 0.88190  0.15770  0.20740  Biso   1.000  H
  C243     1.0000 0.89170  0.18830  0.16420  Biso   1.000  C
  C244     1.0000 0.91370  0.18990  0.13160  Biso   1.000  C
  H133     1.0000 0.91040  0.20970  0.11720  Biso   1.000  H
  C245     1.0000 0.94040  0.16190  0.12050  Biso   1.000  C
  C246     1.0000 0.94530  0.13230  0.14200  Biso   1.000  C
  H134     1.0000 0.96320  0.11360  0.13460  Biso   1.000  H
  N67      1.0000 0.84190  0.21980  0.20650  Biso   1.000  N
  N68      1.0000 0.81440  0.24860  0.20720  Biso   1.000  N
  N69      1.0000 0.81550  0.26390  0.17450  Biso   1.000  N
  C247     1.0000 0.84350  0.24460  0.15350  Biso   1.000  C
  H135     1.0000 0.85030  0.24920  0.12990  Biso   1.000  H
  C248     1.0000 0.85980  0.21730  0.17330  Biso   1.000  C
  C249     1.0000 0.79530  0.29650  0.16800  Biso   1.000  C
  C250     1.0000 0.79790  0.31440  0.13590  Biso   1.000  C
  H136     1.0000 0.81960  0.30800  0.11920  Biso   1.000  H
  C251     1.0000 0.76830  0.34180  0.12860  Biso   1.000  C
  H137     1.0000 0.77000  0.35380  0.10710  Biso   1.000  H
  C252     1.0000 0.73590  0.35140  0.15350  Biso   1.000  C
  C253     1.0000 0.73330  0.33340  0.18570  Biso   1.000  C
  H138     1.0000 0.71160  0.33980  0.20230  Biso   1.000  H
  C254     1.0000 0.76290  0.30600  0.19290  Biso   1.000  C
  H139     1.0000 0.76120  0.29400  0.21440  Biso   1.000  H
  C255     1.0000 0.71150  0.38410  0.14530  Biso   1.000  C
  C256     1.0000 0.96290  0.16460  0.08420  Biso   1.000  C
  C257     1.0000 0.98740  0.14230  0.06750  Biso   1.000  C
  H140     1.0000 0.99530  0.11990  0.07540  Biso   1.000  H
  N70      1.0000 0.99920  0.15640  0.03800  Biso   1.000  N
  N71      1.0000 0.98210  0.18740  0.03650  Biso   1.000  N
  N72      1.0000 0.95950  0.19240  0.06510  Biso   1.000  N
  C258     1.0000 0.02690  0.14520  0.00940  Biso   1.000  C
  C259     1.0000 0.03310  0.16630  0.97960  Biso   1.000  C
  H141     1.0000 0.01880  0.18810  0.97810  Biso   1.000  H
  C260     1.0000 0.06050  0.15490  0.95200  Biso   1.000  C
  H142     1.0000 0.06470  0.16900  0.93210  Biso   1.000  H
  C261     1.0000 0.08180  0.12230  0.95420  Biso   1.000  C
  C262     1.0000 0.07560  0.10110  0.98400  Biso   1.000  C
  H143     1.0000 0.08980  0.07930  0.98550  Biso   1.000  H
  C263     1.0000 0.04810  0.11260  0.01160  Biso   1.000  C
  H144     1.0000 0.04400  0.09850  0.03150  Biso   1.000  H
  C264     1.0000 0.10830  0.10880  0.92490  Biso   1.000  C
  Zn13     1.0000 0.46319  0.66911  0.71367  Biso   1.000  Zn
  Zn14     1.0000 0.39302  0.61645  0.65762  Biso   1.000  Zn
  Zn15     1.0000 0.32243  0.56404  0.60180  Biso   1.000  Zn
  O49      1.0000 0.60820  0.39360  0.21140  Biso   1.000  O
  O50      1.0000 0.46410  0.61710  0.65490  Biso   1.000  O
  O51      1.0000 0.88410  0.82980  0.34220  Biso   1.000  O
  O52      1.0000 0.61290  0.37420  0.10260  Biso   1.000  O
  O53      1.0000 0.17530  0.11240  0.83860  Biso   1.000  O
  O54      1.0000 0.49880  0.66570  0.67119  Biso   1.000  O
  O55      1.0000 0.63280  0.41820  0.06740  Biso   1.000  O
  O56      1.0000 0.39980  0.56250  0.64830  Biso   1.000  O
  O57      1.0000 0.34000  0.52880  0.63790  Biso   1.000  O
  O58      1.0000 0.55040  0.37200  0.24232  Biso   1.000  O
  O59      1.0000 0.91130  0.80110  0.29540  Biso   1.000  O
  O60      1.0000 0.21730  0.10370  0.88500  Biso   1.000  O
  C265     1.0000 0.49260  0.64120  0.64880  Biso   1.000  C
  C266     1.0000 0.52220  0.64000  0.61744  Biso   1.000  C
  C267     1.0000 0.55040  0.66800  0.60908  Biso   1.000  C
  H145     1.0000 0.55130  0.68780  0.62370  Biso   1.000  H
  C268     1.0000 0.57720  0.66660  0.57890  Biso   1.000  C
  H146     1.0000 0.59600  0.68540  0.57330  Biso   1.000  H
  C269     1.0000 0.57580  0.63700  0.55699  Biso   1.000  C
  C270     1.0000 0.54760  0.60900  0.56540  Biso   1.000  C
  H147     1.0000 0.54660  0.58920  0.55070  Biso   1.000  H
  C271     1.0000 0.52080  0.61040  0.59560  Biso   1.000  C
  H148     1.0000 0.50190  0.59160  0.60120  Biso   1.000  H
  N73      1.0000 0.60190  0.63470  0.52662  Biso   1.000  N
  C272     1.0000 0.59790  0.61720  0.49560  Biso   1.000  C
  H149     1.0000 0.57660  0.60000  0.49040  Biso   1.000  H
  C273     1.0000 0.63020  0.62900  0.47350  Biso   1.000  C
  N74      1.0000 0.65410  0.65390  0.49080  Biso   1.000  N
  N75      1.0000 0.63670  0.65730  0.52360  Biso   1.000  N
  C274     1.0000 0.64420  0.61770  0.43939  Biso   1.000  C
  C275     1.0000 0.62820  0.58640  0.42480  Biso   1.000  C
  H150     1.0000 0.60860  0.57220  0.43770  Biso   1.000  H
  C276     1.0000 0.64140  0.57640  0.39080  Biso   1.000  C
  C277     1.0000 0.67060  0.59770  0.37149  Biso   1.000  C
  H151     1.0000 0.67940  0.59100  0.34880  Biso   1.000  H
  C278     1.0000 0.68670  0.62890  0.38610  Biso   1.000  C
  C279     1.0000 0.67350  0.63890  0.42010  Biso   1.000  C
  H152     1.0000 0.68420  0.65980  0.42990  Biso   1.000  H
  C280     1.0000 0.62600  0.54090  0.37600  Biso   1.000  C
  N76      1.0000 0.59720  0.52100  0.39530  Biso   1.000  N
  N77      1.0000 0.58370  0.49360  0.37490  Biso   1.000  N
  N78      1.0000 0.60420  0.49660  0.34290  Biso   1.000  N
  C281     1.0000 0.63040  0.52580  0.34360  Biso   1.000  C
  H153     1.0000 0.64820  0.53400  0.32510  Biso   1.000  H
  C282     1.0000 0.60000  0.47120  0.31786  Biso   1.000  C
  C283     1.0000 0.56240  0.44930  0.31812  Biso   1.000  C
  H154     1.0000 0.54060  0.45200  0.33560  Biso   1.000  H
  C284     1.0000 0.55750  0.42350  0.29220  Biso   1.000  C
  H155     1.0000 0.53230  0.40890  0.29240  Biso   1.000  H
  C285     1.0000 0.59000  0.41950  0.26600  Biso   1.000  C
  C286     1.0000 0.62760  0.44140  0.26580  Biso   1.000  C
  H156     1.0000 0.64940  0.43870  0.24820  Biso   1.000  H
  C287     1.0000 0.63260  0.46720  0.29170  Biso   1.000  C
  H157     1.0000 0.65770  0.48180  0.29150  Biso   1.000  H
  C288     1.0000 0.58280  0.39430  0.23710  Biso   1.000  C
  C289     1.0000 0.71740  0.65100  0.36500  Biso   1.000  C
  C290     1.0000 0.73960  0.68220  0.37190  Biso   1.000  C
  H158     1.0000 0.73690  0.69570  0.39240  Biso   1.000  H
  N79      1.0000 0.76660  0.68970  0.34310  Biso   1.000  N
  N80      1.0000 0.76110  0.66320  0.31860  Biso   1.000  N
  N81      1.0000 0.73070  0.63930  0.33200  Biso   1.000  N
  C291     1.0000 0.79460  0.71750  0.33850  Biso   1.000  C
  C292     1.0000 0.81920  0.71850  0.30710  Biso   1.000  C
  H159     1.0000 0.81620  0.70050  0.29050  Biso   1.000  H
  C293     1.0000 0.84830  0.74650  0.30050  Biso   1.000  C
  H160     1.0000 0.86470  0.74720  0.27950  Biso   1.000  H
  C294     1.0000 0.85280  0.77340  0.32530  Biso   1.000  C
  C295     1.0000 0.82830  0.77240  0.35670  Biso   1.000  C
  H161     1.0000 0.83130  0.79040  0.37330  Biso   1.000  H
  C296     1.0000 0.79920  0.74440  0.36330  Biso   1.000  C
  H162     1.0000 0.78270  0.74370  0.38430  Biso   1.000  H
  C297     1.0000 0.88560  0.80290  0.32150  Biso   1.000  C
  C298     1.0000 0.37680  0.53530  0.65380  Biso   1.000  C
  C299     1.0000 0.38940  0.50990  0.68190  Biso   1.000  C
  C300     1.0000 0.35850  0.48480  0.69320  Biso   1.000  C
  H163     1.0000 0.33070  0.48290  0.68200  Biso   1.000  H
  C301     1.0000 0.36910  0.46250  0.72140  Biso   1.000  C
  H164     1.0000 0.34840  0.44570  0.72890  Biso   1.000  H
  C302     1.0000 0.41060  0.46530  0.73820  Biso   1.000  C
  C303     1.0000 0.44150  0.49050  0.72680  Biso   1.000  C
  H165     1.0000 0.46920  0.49240  0.73810  Biso   1.000  H
  C304     1.0000 0.43090  0.51270  0.69870  Biso   1.000  C
  H166     1.0000 0.45160  0.52950  0.69110  Biso   1.000  H
  N82      1.0000 0.42070  0.44080  0.76490  Biso   1.000  N
  C305     1.0000 0.40440  0.41060  0.77600  Biso   1.000  C
  H167     1.0000 0.38080  0.39820  0.76580  Biso   1.000  H
  C306     1.0000 0.42730  0.40100  0.80410  Biso   1.000  C
  N83      1.0000 0.45780  0.42520  0.81040  Biso   1.000  N
  N84      1.0000 0.45380  0.44990  0.78610  Biso   1.000  N
  C307     1.0000 0.42330  0.36930  0.82540  Biso   1.000  C
  C308     1.0000 0.39660  0.34130  0.81440  Biso   1.000  C
  H168     1.0000 0.38190  0.34230  0.79260  Biso   1.000  H
  C309     1.0000 0.39170  0.31170  0.83580  Biso   1.000  C
  C310     1.0000 0.41370  0.31010  0.86840  Biso   1.000  C
  H169     1.0000 0.41040  0.29030  0.88280  Biso   1.000  H
  C311     1.0000 0.44040  0.33810  0.87950  Biso   1.000  C
  C312     1.0000 0.44530  0.36770  0.85800  Biso   1.000  C
  H170     1.0000 0.46320  0.38640  0.86540  Biso   1.000  H
  N85      1.0000 0.34190  0.28020  0.79350  Biso   1.000  N
  N86      1.0000 0.31440  0.25140  0.79280  Biso   1.000  N
  N87      1.0000 0.31550  0.23610  0.82550  Biso   1.000  N
  C313     1.0000 0.34350  0.25540  0.84650  Biso   1.000  C
  H171     1.0000 0.35030  0.25080  0.87010  Biso   1.000  H
  C314     1.0000 0.35980  0.28270  0.82670  Biso   1.000  C
  C315     1.0000 0.29530  0.20350  0.83200  Biso   1.000  C
  C316     1.0000 0.29790  0.18560  0.86410  Biso   1.000  C
  H172     1.0000 0.31960  0.19200  0.88080  Biso   1.000  H
  C317     1.0000 0.26830  0.15820  0.87140  Biso   1.000  C
  H173     1.0000 0.27000  0.14620  0.89290  Biso   1.000  H
  C318     1.0000 0.23590  0.14860  0.84650  Biso   1.000  C
  C319     1.0000 0.23330  0.16660  0.81430  Biso   1.000  C
  H174     1.0000 0.21160  0.16020  0.79770  Biso   1.000  H
  C320     1.0000 0.26290  0.19400  0.80710  Biso   1.000  C
  H175     1.0000 0.26120  0.20600  0.78560  Biso   1.000  H
  C321     1.0000 0.21150  0.11590  0.85470  Biso   1.000  C
  C322     1.0000 0.46290  0.33540  0.91580  Biso   1.000  C
  C323     1.0000 0.48740  0.35770  0.93250  Biso   1.000  C
  H176     1.0000 0.49530  0.38010  0.92460  Biso   1.000  H
  N88      1.0000 0.49920  0.34360  0.96200  Biso   1.000  N
  N89      1.0000 0.48210  0.31260  0.96350  Biso   1.000  N
  N90      1.0000 0.45950  0.30760  0.93490  Biso   1.000  N
  C324     1.0000 0.52690  0.35480  0.99060  Biso   1.000  C
  C325     1.0000 0.53310  0.33370  0.02040  Biso   1.000  C
  H177     1.0000 0.51880  0.31190  0.02190  Biso   1.000  H
  C326     1.0000 0.56050  0.34510  0.04800  Biso   1.000  C
  H178     1.0000 0.56470  0.33100  0.06790  Biso   1.000  H
  C327     1.0000 0.58180  0.37770  0.04580  Biso   1.000  C
  C328     1.0000 0.57560  0.39890  0.01600  Biso   1.000  C
  H179     1.0000 0.58980  0.42070  0.01450  Biso   1.000  H
  C329     1.0000 0.54810  0.38740  0.98840  Biso   1.000  C
  H180     1.0000 0.54400  0.40150  0.96850  Biso   1.000  H
  C330     1.0000 0.60830  0.39120  0.07510  Biso   1.000  C
  Zn16     1.0000 0.96319  0.16911  0.71367  Biso   1.000  Zn
  Zn17     1.0000 0.89302  0.11645  0.65762  Biso   1.000  Zn
  Zn18     1.0000 0.82243  0.06404  0.60180  Biso   1.000  Zn
  O61      1.0000 0.10820  0.89360  0.21140  Biso   1.000  O
  O62      1.0000 0.96410  0.11710  0.65490  Biso   1.000  O
  O63      1.0000 0.38410  0.32980  0.34220  Biso   1.000  O
  O64      1.0000 0.11290  0.87420  0.10260  Biso   1.000  O
  O65      1.0000 0.67530  0.61240  0.83860  Biso   1.000  O
  O66      1.0000 0.99880  0.16570  0.67119  Biso   1.000  O
  O67      1.0000 0.13280  0.91820  0.06740  Biso   1.000  O
  O68      1.0000 0.89980  0.06250  0.64830  Biso   1.000  O
  O69      1.0000 0.84000  0.02880  0.63790  Biso   1.000  O
  O70      1.0000 0.05040  0.87200  0.24232  Biso   1.000  O
  O71      1.0000 0.41130  0.30110  0.29540  Biso   1.000  O
  O72      1.0000 0.71730  0.60370  0.88500  Biso   1.000  O
  C331     1.0000 0.99260  0.14120  0.64880  Biso   1.000  C
  C332     1.0000 0.02220  0.14000  0.61744  Biso   1.000  C
  C333     1.0000 0.05040  0.16800  0.60908  Biso   1.000  C
  H181     1.0000 0.05130  0.18780  0.62370  Biso   1.000  H
  C334     1.0000 0.07720  0.16660  0.57890  Biso   1.000  C
  H182     1.0000 0.09600  0.18540  0.57330  Biso   1.000  H
  C335     1.0000 0.07580  0.13700  0.55699  Biso   1.000  C
  C336     1.0000 0.04760  0.10900  0.56540  Biso   1.000  C
  H183     1.0000 0.04660  0.08920  0.55070  Biso   1.000  H
  C337     1.0000 0.02080  0.11040  0.59560  Biso   1.000  C
  H184     1.0000 0.00190  0.09160  0.60120  Biso   1.000  H
  N91      1.0000 0.10190  0.13470  0.52662  Biso   1.000  N
  C338     1.0000 0.09790  0.11720  0.49560  Biso   1.000  C
  H185     1.0000 0.07660  0.10000  0.49040  Biso   1.000  H
  C339     1.0000 0.13020  0.12900  0.47350  Biso   1.000  C
  N92      1.0000 0.15410  0.15390  0.49080  Biso   1.000  N
  N93      1.0000 0.13670  0.15730  0.52360  Biso   1.000  N
  C340     1.0000 0.14420  0.11770  0.43939  Biso   1.000  C
  C341     1.0000 0.12820  0.08640  0.42480  Biso   1.000  C
  H186     1.0000 0.10860  0.07220  0.43770  Biso   1.000  H
  C342     1.0000 0.14140  0.07640  0.39080  Biso   1.000  C
  C343     1.0000 0.17060  0.09770  0.37149  Biso   1.000  C
  H187     1.0000 0.17940  0.09100  0.34880  Biso   1.000  H
  C344     1.0000 0.18670  0.12890  0.38610  Biso   1.000  C
  C345     1.0000 0.17350  0.13890  0.42010  Biso   1.000  C
  H188     1.0000 0.18420  0.15980  0.42990  Biso   1.000  H
  C346     1.0000 0.12600  0.04090  0.37600  Biso   1.000  C
  N94      1.0000 0.09720  0.02100  0.39530  Biso   1.000  N
  N95      1.0000 0.08370  0.99360  0.37490  Biso   1.000  N
  N96      1.0000 0.10420  0.99660  0.34290  Biso   1.000  N
  C347     1.0000 0.13040  0.02580  0.34360  Biso   1.000  C
  H189     1.0000 0.14820  0.03400  0.32510  Biso   1.000  H
  C348     1.0000 0.10000  0.97120  0.31786  Biso   1.000  C
  C349     1.0000 0.06240  0.94930  0.31812  Biso   1.000  C
  H190     1.0000 0.04060  0.95200  0.33560  Biso   1.000  H
  C350     1.0000 0.05750  0.92350  0.29220  Biso   1.000  C
  H191     1.0000 0.03230  0.90890  0.29240  Biso   1.000  H
  C351     1.0000 0.09000  0.91950  0.26600  Biso   1.000  C
  C352     1.0000 0.12760  0.94140  0.26580  Biso   1.000  C
  H192     1.0000 0.14940  0.93870  0.24820  Biso   1.000  H
  C353     1.0000 0.13260  0.96720  0.29170  Biso   1.000  C
  H193     1.0000 0.15770  0.98180  0.29150  Biso   1.000  H
  C354     1.0000 0.08280  0.89430  0.23710  Biso   1.000  C
  C355     1.0000 0.21740  0.15100  0.36500  Biso   1.000  C
  C356     1.0000 0.23960  0.18220  0.37190  Biso   1.000  C
  H194     1.0000 0.23690  0.19570  0.39240  Biso   1.000  H
  N97      1.0000 0.26660  0.18970  0.34310  Biso   1.000  N
  N98      1.0000 0.26110  0.16320  0.31860  Biso   1.000  N
  N99      1.0000 0.23070  0.13930  0.33200  Biso   1.000  N
  C357     1.0000 0.29460  0.21750  0.33850  Biso   1.000  C
  C358     1.0000 0.31920  0.21850  0.30710  Biso   1.000  C
  H195     1.0000 0.31620  0.20050  0.29050  Biso   1.000  H
  C359     1.0000 0.34830  0.24650  0.30050  Biso   1.000  C
  H196     1.0000 0.36470  0.24720  0.27950  Biso   1.000  H
  C360     1.0000 0.35280  0.27340  0.32530  Biso   1.000  C
  C361     1.0000 0.32830  0.27240  0.35670  Biso   1.000  C
  H197     1.0000 0.33130  0.29040  0.37330  Biso   1.000  H
  C362     1.0000 0.29920  0.24440  0.36330  Biso   1.000  C
  H198     1.0000 0.28270  0.24370  0.38430  Biso   1.000  H
  C363     1.0000 0.38560  0.30290  0.32150  Biso   1.000  C
  C364     1.0000 0.87680  0.03530  0.65380  Biso   1.000  C
  C365     1.0000 0.88940  0.00990  0.68190  Biso   1.000  C
  C366     1.0000 0.85850  0.98480  0.69320  Biso   1.000  C
  H199     1.0000 0.83070  0.98290  0.68200  Biso   1.000  H
  C367     1.0000 0.86910  0.96250  0.72140  Biso   1.000  C
  H200     1.0000 0.84840  0.94570  0.72890  Biso   1.000  H
  C368     1.0000 0.91060  0.96530  0.73820  Biso   1.000  C
  C369     1.0000 0.94150  0.99050  0.72680  Biso   1.000  C
  H201     1.0000 0.96920  0.99240  0.73810  Biso   1.000  H
  C370     1.0000 0.93090  0.01270  0.69870  Biso   1.000  C
  H202     1.0000 0.95160  0.02950  0.69110  Biso   1.000  H
  N100     1.0000 0.92070  0.94080  0.76490  Biso   1.000  N
  C371     1.0000 0.90440  0.91060  0.77600  Biso   1.000  C
  H203     1.0000 0.88080  0.89820  0.76580  Biso   1.000  H
  C372     1.0000 0.92730  0.90100  0.80410  Biso   1.000  C
  N101     1.0000 0.95780  0.92520  0.81040  Biso   1.000  N
  N102     1.0000 0.95380  0.94990  0.78610  Biso   1.000  N
  C373     1.0000 0.92330  0.86930  0.82540  Biso   1.000  C
  C374     1.0000 0.89660  0.84130  0.81440  Biso   1.000  C
  H204     1.0000 0.88190  0.84230  0.79260  Biso   1.000  H
  C375     1.0000 0.89170  0.81170  0.83580  Biso   1.000  C
  C376     1.0000 0.91370  0.81010  0.86840  Biso   1.000  C
  H205     1.0000 0.91040  0.79030  0.88280  Biso   1.000  H
  C377     1.0000 0.94040  0.83810  0.87950  Biso   1.000  C
  C378     1.0000 0.94530  0.86770  0.85800  Biso   1.000  C
  H206     1.0000 0.96320  0.88640  0.86540  Biso   1.000  H
  N103     1.0000 0.84190  0.78020  0.79350  Biso   1.000  N
  N104     1.0000 0.81440  0.75140  0.79280  Biso   1.000  N
  N105     1.0000 0.81550  0.73610  0.82550  Biso   1.000  N
  C379     1.0000 0.84350  0.75540  0.84650  Biso   1.000  C
  H207     1.0000 0.85030  0.75080  0.87010  Biso   1.000  H
  C380     1.0000 0.85980  0.78270  0.82670  Biso   1.000  C
  C381     1.0000 0.79530  0.70350  0.83200  Biso   1.000  C
  C382     1.0000 0.79790  0.68560  0.86410  Biso   1.000  C
  H208     1.0000 0.81960  0.69200  0.88080  Biso   1.000  H
  C383     1.0000 0.76830  0.65820  0.87140  Biso   1.000  C
  H209     1.0000 0.77000  0.64620  0.89290  Biso   1.000  H
  C384     1.0000 0.73590  0.64860  0.84650  Biso   1.000  C
  C385     1.0000 0.73330  0.66660  0.81430  Biso   1.000  C
  H210     1.0000 0.71160  0.66020  0.79770  Biso   1.000  H
  C386     1.0000 0.76290  0.69400  0.80710  Biso   1.000  C
  H211     1.0000 0.76120  0.70600  0.78560  Biso   1.000  H
  C387     1.0000 0.71150  0.61590  0.85470  Biso   1.000  C
  C388     1.0000 0.96290  0.83540  0.91580  Biso   1.000  C
  C389     1.0000 0.98740  0.85770  0.93250  Biso   1.000  C
  H212     1.0000 0.99530  0.88010  0.92460  Biso   1.000  H
  N106     1.0000 0.99920  0.84360  0.96200  Biso   1.000  N
  N107     1.0000 0.98210  0.81260  0.96350  Biso   1.000  N
  N108     1.0000 0.95950  0.80760  0.93490  Biso   1.000  N
  C390     1.0000 0.02690  0.85480  0.99060  Biso   1.000  C
  C391     1.0000 0.03310  0.83370  0.02040  Biso   1.000  C
  H213     1.0000 0.01880  0.81190  0.02190  Biso   1.000  H
  C392     1.0000 0.06050  0.84510  0.04800  Biso   1.000  C
  H214     1.0000 0.06470  0.83100  0.06790  Biso   1.000  H
  C393     1.0000 0.08180  0.87770  0.04580  Biso   1.000  C
  C394     1.0000 0.07560  0.89890  0.01600  Biso   1.000  C
  H215     1.0000 0.08980  0.92070  0.01450  Biso   1.000  H
  C395     1.0000 0.04810  0.88740  0.98840  Biso   1.000  C
  H216     1.0000 0.04400  0.90150  0.96850  Biso   1.000  H
  C396     1.0000 0.10830  0.89120  0.07510  Biso   1.000  C
  Zn19     1.0000 0.53681  0.33089  0.21367  Biso   1.000  Zn
  Zn20     1.0000 0.60698  0.38355  0.15762  Biso   1.000  Zn
  Zn21     1.0000 0.67757  0.43596  0.10180  Biso   1.000  Zn
  O73      1.0000 0.39180  0.60640  0.71140  Biso   1.000  O
  O74      1.0000 0.53590  0.38290  0.15490  Biso   1.000  O
  O75      1.0000 0.11590  0.17020  0.84220  Biso   1.000  O
  O76      1.0000 0.38710  0.62580  0.60260  Biso   1.000  O
  O77      1.0000 0.82470  0.88760  0.33860  Biso   1.000  O
  O78      1.0000 0.50120  0.33430  0.17119  Biso   1.000  O
  O79      1.0000 0.36720  0.58180  0.56740  Biso   1.000  O
  O80      1.0000 0.60020  0.43750  0.14830  Biso   1.000  O
  O81      1.0000 0.66000  0.47120  0.13790  Biso   1.000  O
  O82      1.0000 0.44960  0.62800  0.74232  Biso   1.000  O
  O83      1.0000 0.08870  0.19890  0.79540  Biso   1.000  O
  O84      1.0000 0.78270  0.89630  0.38500  Biso   1.000  O
  C397     1.0000 0.50740  0.35880  0.14880  Biso   1.000  C
  C398     1.0000 0.47780  0.36000  0.11744  Biso   1.000  C
  C399     1.0000 0.44960  0.33200  0.10908  Biso   1.000  C
  H217     1.0000 0.44870  0.31220  0.12370  Biso   1.000  H
  C400     1.0000 0.42280  0.33340  0.07890  Biso   1.000  C
  H218     1.0000 0.40400  0.31460  0.07330  Biso   1.000  H
  C401     1.0000 0.42420  0.36300  0.05699  Biso   1.000  C
  C402     1.0000 0.45240  0.39100  0.06540  Biso   1.000  C
  H219     1.0000 0.45340  0.41080  0.05070  Biso   1.000  H
  C403     1.0000 0.47920  0.38960  0.09560  Biso   1.000  C
  H220     1.0000 0.49810  0.40840  0.10120  Biso   1.000  H
  N109     1.0000 0.39810  0.36530  0.02662  Biso   1.000  N
  C404     1.0000 0.40210  0.38280  0.99560  Biso   1.000  C
  H221     1.0000 0.42340  0.40000  0.99040  Biso   1.000  H
  C405     1.0000 0.36980  0.37100  0.97350  Biso   1.000  C
  N110     1.0000 0.34590  0.34610  0.99080  Biso   1.000  N
  N111     1.0000 0.36330  0.34270  0.02360  Biso   1.000  N
  C406     1.0000 0.35580  0.38230  0.93939  Biso   1.000  C
  C407     1.0000 0.37180  0.41360  0.92480  Biso   1.000  C
  H222     1.0000 0.39140  0.42780  0.93770  Biso   1.000  H
  C408     1.0000 0.35860  0.42360  0.89080  Biso   1.000  C
  C409     1.0000 0.32940  0.40230  0.87149  Biso   1.000  C
  H223     1.0000 0.32060  0.40900  0.84880  Biso   1.000  H
  C410     1.0000 0.31330  0.37110  0.88610  Biso   1.000  C
  C411     1.0000 0.32650  0.36110  0.92010  Biso   1.000  C
  H224     1.0000 0.31580  0.34020  0.92990  Biso   1.000  H
  C412     1.0000 0.37400  0.45910  0.87600  Biso   1.000  C
  N112     1.0000 0.40280  0.47900  0.89530  Biso   1.000  N
  N113     1.0000 0.41630  0.50640  0.87490  Biso   1.000  N
  N114     1.0000 0.39580  0.50340  0.84290  Biso   1.000  N
  C413     1.0000 0.36960  0.47420  0.84360  Biso   1.000  C
  H225     1.0000 0.35180  0.46600  0.82510  Biso   1.000  H
  C414     1.0000 0.40000  0.52880  0.81786  Biso   1.000  C
  C415     1.0000 0.43760  0.55070  0.81812  Biso   1.000  C
  H226     1.0000 0.45940  0.54800  0.83560  Biso   1.000  H
  C416     1.0000 0.44250  0.57650  0.79220  Biso   1.000  C
  H227     1.0000 0.46770  0.59110  0.79240  Biso   1.000  H
  C417     1.0000 0.41000  0.58050  0.76600  Biso   1.000  C
  C418     1.0000 0.37240  0.55860  0.76580  Biso   1.000  C
  H228     1.0000 0.35060  0.56130  0.74820  Biso   1.000  H
  C419     1.0000 0.36740  0.53280  0.79170  Biso   1.000  C
  H229     1.0000 0.34230  0.51820  0.79150  Biso   1.000  H
  C420     1.0000 0.41720  0.60570  0.73710  Biso   1.000  C
  C421     1.0000 0.28260  0.34900  0.86500  Biso   1.000  C
  C422     1.0000 0.26040  0.31780  0.87190  Biso   1.000  C
  H230     1.0000 0.26310  0.30430  0.89240  Biso   1.000  H
  N115     1.0000 0.23340  0.31030  0.84310  Biso   1.000  N
  N116     1.0000 0.23890  0.33680  0.81860  Biso   1.000  N
  N117     1.0000 0.26930  0.36070  0.83200  Biso   1.000  N
  C423     1.0000 0.20540  0.28250  0.83850  Biso   1.000  C
  C424     1.0000 0.18080  0.28150  0.80710  Biso   1.000  C
  H231     1.0000 0.18380  0.29950  0.79050  Biso   1.000  H
  C425     1.0000 0.15170  0.25350  0.80050  Biso   1.000  C
  H232     1.0000 0.13530  0.25280  0.77950  Biso   1.000  H
  C426     1.0000 0.14720  0.22660  0.82530  Biso   1.000  C
  C427     1.0000 0.17170  0.22760  0.85670  Biso   1.000  C
  H233     1.0000 0.16870  0.20960  0.87330  Biso   1.000  H
  C428     1.0000 0.20080  0.25560  0.86330  Biso   1.000  C
  H234     1.0000 0.21730  0.25630  0.88430  Biso   1.000  H
  C429     1.0000 0.11440  0.19710  0.82150  Biso   1.000  C
  C430     1.0000 0.62320  0.46470  0.15380  Biso   1.000  C
  C431     1.0000 0.61060  0.49010  0.18190  Biso   1.000  C
  C432     1.0000 0.64150  0.51520  0.19320  Biso   1.000  C
  H235     1.0000 0.66930  0.51710  0.18200  Biso   1.000  H
  C433     1.0000 0.63090  0.53750  0.22140  Biso   1.000  C
  H236     1.0000 0.65160  0.55430  0.22890  Biso   1.000  H
  C434     1.0000 0.58940  0.53470  0.23820  Biso   1.000  C
  C435     1.0000 0.55850  0.50950  0.22680  Biso   1.000  C
  H237     1.0000 0.53080  0.50760  0.23810  Biso   1.000  H
  C436     1.0000 0.56910  0.48730  0.19870  Biso   1.000  C
  H238     1.0000 0.54840  0.47050  0.19110  Biso   1.000  H
  N118     1.0000 0.57930  0.55920  0.26490  Biso   1.000  N
  C437     1.0000 0.59560  0.58940  0.27600  Biso   1.000  C
  H239     1.0000 0.61920  0.60180  0.26580  Biso   1.000  H
  C438     1.0000 0.57270  0.59900  0.30410  Biso   1.000  C
  N119     1.0000 0.54220  0.57480  0.31040  Biso   1.000  N
  N120     1.0000 0.54620  0.55010  0.28610  Biso   1.000  N
  C439     1.0000 0.57670  0.63070  0.32540  Biso   1.000  C
  C440     1.0000 0.60340  0.65870  0.31440  Biso   1.000  C
  H240     1.0000 0.61810  0.65770  0.29260  Biso   1.000  H
  C441     1.0000 0.60830  0.68830  0.33580  Biso   1.000  C
  C442     1.0000 0.58630  0.68990  0.36840  Biso   1.000  C
  H241     1.0000 0.58960  0.70970  0.38280  Biso   1.000  H
  C443     1.0000 0.55960  0.66190  0.37950  Biso   1.000  C
  C444     1.0000 0.55470  0.63230  0.35800  Biso   1.000  C
  H242     1.0000 0.53680  0.61360  0.36540  Biso   1.000  H
  N121     1.0000 0.65810  0.71980  0.29350  Biso   1.000  N
  N122     1.0000 0.68560  0.74860  0.29280  Biso   1.000  N
  N123     1.0000 0.68450  0.76390  0.32550  Biso   1.000  N
  C445     1.0000 0.65650  0.74460  0.34650  Biso   1.000  C
  H243     1.0000 0.64970  0.74920  0.37010  Biso   1.000  H
  C446     1.0000 0.64020  0.71730  0.32670  Biso   1.000  C
  C447     1.0000 0.70470  0.79650  0.33200  Biso   1.000  C
  C448     1.0000 0.70210  0.81440  0.36410  Biso   1.000  C
  H244     1.0000 0.68040  0.80800  0.38080  Biso   1.000  H
  C449     1.0000 0.73170  0.84180  0.37140  Biso   1.000  C
  H245     1.0000 0.73000  0.85380  0.39290  Biso   1.000  H
  C450     1.0000 0.76410  0.85140  0.34650  Biso   1.000  C
  C451     1.0000 0.76670  0.83340  0.31430  Biso   1.000  C
  H246     1.0000 0.78840  0.83980  0.29770  Biso   1.000  H
  C452     1.0000 0.73710  0.80600  0.30710  Biso   1.000  C
  H247     1.0000 0.73880  0.79400  0.28560  Biso   1.000  H
  C453     1.0000 0.78850  0.88410  0.35470  Biso   1.000  C
  C454     1.0000 0.53710  0.66460  0.41580  Biso   1.000  C
  C455     1.0000 0.51260  0.64230  0.43250  Biso   1.000  C
  H248     1.0000 0.50470  0.61990  0.42460  Biso   1.000  H
  N124     1.0000 0.50080  0.65640  0.46200  Biso   1.000  N
  N125     1.0000 0.51790  0.68740  0.46350  Biso   1.000  N
  N126     1.0000 0.54050  0.69240  0.43490  Biso   1.000  N
  C456     1.0000 0.47310  0.64520  0.49060  Biso   1.000  C
  C457     1.0000 0.46690  0.66630  0.52040  Biso   1.000  C
  H249     1.0000 0.48120  0.68810  0.52190  Biso   1.000  H
  C458     1.0000 0.43950  0.65490  0.54800  Biso   1.000  C
  H250     1.0000 0.43530  0.66900  0.56790  Biso   1.000  H
  C459     1.0000 0.41820  0.62230  0.54580  Biso   1.000  C
  C460     1.0000 0.42440  0.60110  0.51600  Biso   1.000  C
  H251     1.0000 0.41020  0.57930  0.51450  Biso   1.000  H
  C461     1.0000 0.45190  0.61260  0.48840  Biso   1.000  C
  H252     1.0000 0.45600  0.59850  0.46850  Biso   1.000  H
  C462     1.0000 0.39170  0.60880  0.57510  Biso   1.000  C
  Zn22     1.0000 0.03681  0.83089  0.21367  Biso   1.000  Zn
  Zn23     1.0000 0.10698  0.88355  0.15762  Biso   1.000  Zn
  Zn24     1.0000 0.17757  0.93596  0.10180  Biso   1.000  Zn
  O85      1.0000 0.89180  0.10640  0.71140  Biso   1.000  O
  O86      1.0000 0.03590  0.88290  0.15490  Biso   1.000  O
  O87      1.0000 0.61590  0.67020  0.84220  Biso   1.000  O
  O88      1.0000 0.88710  0.12580  0.60260  Biso   1.000  O
  O89      1.0000 0.32470  0.38760  0.33860  Biso   1.000  O
  O90      1.0000 0.00120  0.83430  0.17119  Biso   1.000  O
  O91      1.0000 0.86720  0.08180  0.56740  Biso   1.000  O
  O92      1.0000 0.10020  0.93750  0.14830  Biso   1.000  O
  O93      1.0000 0.16000  0.97120  0.13790  Biso   1.000  O
  O94      1.0000 0.94960  0.12800  0.74232  Biso   1.000  O
  O95      1.0000 0.58870  0.69890  0.79540  Biso   1.000  O
  O96      1.0000 0.28270  0.39630  0.38500  Biso   1.000  O
  C463     1.0000 0.00740  0.85880  0.14880  Biso   1.000  C
  C464     1.0000 0.97780  0.86000  0.11744  Biso   1.000  C
  C465     1.0000 0.94960  0.83200  0.10908  Biso   1.000  C
  H253     1.0000 0.94870  0.81220  0.12370  Biso   1.000  H
  C466     1.0000 0.92280  0.83340  0.07890  Biso   1.000  C
  H254     1.0000 0.90400  0.81460  0.07330  Biso   1.000  H
  C467     1.0000 0.92420  0.86300  0.05699  Biso   1.000  C
  C468     1.0000 0.95240  0.89100  0.06540  Biso   1.000  C
  H255     1.0000 0.95340  0.91080  0.05070  Biso   1.000  H
  C469     1.0000 0.97920  0.88960  0.09560  Biso   1.000  C
  H256     1.0000 0.99810  0.90840  0.10120  Biso   1.000  H
  N127     1.0000 0.89810  0.86530  0.02662  Biso   1.000  N
  C470     1.0000 0.90210  0.88280  0.99560  Biso   1.000  C
  H257     1.0000 0.92340  0.90000  0.99040  Biso   1.000  H
  C471     1.0000 0.86980  0.87100  0.97350  Biso   1.000  C
  N128     1.0000 0.84590  0.84610  0.99080  Biso   1.000  N
  N129     1.0000 0.86330  0.84270  0.02360  Biso   1.000  N
  C472     1.0000 0.85580  0.88230  0.93939  Biso   1.000  C
  C473     1.0000 0.87180  0.91360  0.92480  Biso   1.000  C
  H258     1.0000 0.89140  0.92780  0.93770  Biso   1.000  H
  C474     1.0000 0.85860  0.92360  0.89080  Biso   1.000  C
  C475     1.0000 0.82940  0.90230  0.87149  Biso   1.000  C
  H259     1.0000 0.82060  0.90900  0.84880  Biso   1.000  H
  C476     1.0000 0.81330  0.87110  0.88610  Biso   1.000  C
  C477     1.0000 0.82650  0.86110  0.92010  Biso   1.000  C
  H260     1.0000 0.81580  0.84020  0.92990  Biso   1.000  H
  C478     1.0000 0.87400  0.95910  0.87600  Biso   1.000  C
  N130     1.0000 0.90280  0.97900  0.89530  Biso   1.000  N
  N131     1.0000 0.91630  0.00640  0.87490  Biso   1.000  N
  N132     1.0000 0.89580  0.00340  0.84290  Biso   1.000  N
  C479     1.0000 0.86960  0.97420  0.84360  Biso   1.000  C
  H261     1.0000 0.85180  0.96600  0.82510  Biso   1.000  H
  C480     1.0000 0.90000  0.02880  0.81786  Biso   1.000  C
  C481     1.0000 0.93760  0.05070  0.81812  Biso   1.000  C
  H262     1.0000 0.95940  0.04800  0.83560  Biso   1.000  H
  C482     1.0000 0.94250  0.07650  0.79220  Biso   1.000  C
  H263     1.0000 0.96770  0.09110  0.79240  Biso   1.000  H
  C483     1.0000 0.91000  0.08050  0.76600  Biso   1.000  C
  C484     1.0000 0.87240  0.05860  0.76580  Biso   1.000  C
  H264     1.0000 0.85060  0.06130  0.74820  Biso   1.000  H
  C485     1.0000 0.86740  0.03280  0.79170  Biso   1.000  C
  H265     1.0000 0.84230  0.01820  0.79150  Biso   1.000  H
  C486     1.0000 0.91720  0.10570  0.73710  Biso   1.000  C
  C487     1.0000 0.78260  0.84900  0.86500  Biso   1.000  C
  C488     1.0000 0.76040  0.81780  0.87190  Biso   1.000  C
  H266     1.0000 0.76310  0.80430  0.89240  Biso   1.000  H
  N133     1.0000 0.73340  0.81030  0.84310  Biso   1.000  N
  N134     1.0000 0.73890  0.83680  0.81860  Biso   1.000  N
  N135     1.0000 0.76930  0.86070  0.83200  Biso   1.000  N
  C489     1.0000 0.70540  0.78250  0.83850  Biso   1.000  C
  C490     1.0000 0.68080  0.78150  0.80710  Biso   1.000  C
  H267     1.0000 0.68380  0.79950  0.79050  Biso   1.000  H
  C491     1.0000 0.65170  0.75350  0.80050  Biso   1.000  C
  H268     1.0000 0.63530  0.75280  0.77950  Biso   1.000  H
  C492     1.0000 0.64720  0.72660  0.82530  Biso   1.000  C
  C493     1.0000 0.67170  0.72760  0.85670  Biso   1.000  C
  H269     1.0000 0.66870  0.70960  0.87330  Biso   1.000  H
  C494     1.0000 0.70080  0.75560  0.86330  Biso   1.000  C
  H270     1.0000 0.71730  0.75630  0.88430  Biso   1.000  H
  C495     1.0000 0.61440  0.69710  0.82150  Biso   1.000  C
  C496     1.0000 0.12320  0.96470  0.15380  Biso   1.000  C
  C497     1.0000 0.11060  0.99010  0.18190  Biso   1.000  C
  C498     1.0000 0.14150  0.01520  0.19320  Biso   1.000  C
  H271     1.0000 0.16930  0.01710  0.18200  Biso   1.000  H
  C499     1.0000 0.13090  0.03750  0.22140  Biso   1.000  C
  H272     1.0000 0.15160  0.05430  0.22890  Biso   1.000  H
  C500     1.0000 0.08940  0.03470  0.23820  Biso   1.000  C
  C501     1.0000 0.05850  0.00950  0.22680  Biso   1.000  C
  H273     1.0000 0.03080  0.00760  0.23810  Biso   1.000  H
  C502     1.0000 0.06910  0.98730  0.19870  Biso   1.000  C
  H274     1.0000 0.04840  0.97050  0.19110  Biso   1.000  H
  N136     1.0000 0.07930  0.05920  0.26490  Biso   1.000  N
  C503     1.0000 0.09560  0.08940  0.27600  Biso   1.000  C
  H275     1.0000 0.11920  0.10180  0.26580  Biso   1.000  H
  C504     1.0000 0.07270  0.09900  0.30410  Biso   1.000  C
  N137     1.0000 0.04220  0.07480  0.31040  Biso   1.000  N
  N138     1.0000 0.04620  0.05010  0.28610  Biso   1.000  N
  C505     1.0000 0.07670  0.13070  0.32540  Biso   1.000  C
  C506     1.0000 0.10340  0.15870  0.31440  Biso   1.000  C
  H276     1.0000 0.11810  0.15770  0.29260  Biso   1.000  H
  C507     1.0000 0.10830  0.18830  0.33580  Biso   1.000  C
  C508     1.0000 0.08630  0.18990  0.36840  Biso   1.000  C
  H277     1.0000 0.08960  0.20970  0.38280  Biso   1.000  H
  C509     1.0000 0.05960  0.16190  0.37950  Biso   1.000  C
  C510     1.0000 0.05470  0.13230  0.35800  Biso   1.000  C
  H278     1.0000 0.03680  0.11360  0.36540  Biso   1.000  H
  N139     1.0000 0.15810  0.21980  0.29350  Biso   1.000  N
  N140     1.0000 0.18560  0.24860  0.29280  Biso   1.000  N
  N141     1.0000 0.18450  0.26390  0.32550  Biso   1.000  N
  C511     1.0000 0.15650  0.24460  0.34650  Biso   1.000  C
  H279     1.0000 0.14970  0.24920  0.37010  Biso   1.000  H
  C512     1.0000 0.14020  0.21730  0.32670  Biso   1.000  C
  C513     1.0000 0.20470  0.29650  0.33200  Biso   1.000  C
  C514     1.0000 0.20210  0.31440  0.36410  Biso   1.000  C
  H280     1.0000 0.18040  0.30800  0.38080  Biso   1.000  H
  C515     1.0000 0.23170  0.34180  0.37140  Biso   1.000  C
  H281     1.0000 0.23000  0.35380  0.39290  Biso   1.000  H
  C516     1.0000 0.26410  0.35140  0.34650  Biso   1.000  C
  C517     1.0000 0.26670  0.33340  0.31430  Biso   1.000  C
  H282     1.0000 0.28840  0.33980  0.29770  Biso   1.000  H
  C518     1.0000 0.23710  0.30600  0.30710  Biso   1.000  C
  H283     1.0000 0.23880  0.29400  0.28560  Biso   1.000  H
  C519     1.0000 0.28850  0.38410  0.35470  Biso   1.000  C
  C520     1.0000 0.03710  0.16460  0.41580  Biso   1.000  C
  C521     1.0000 0.01260  0.14230  0.43250  Biso   1.000  C
  H284     1.0000 0.00470  0.11990  0.42460  Biso   1.000  H
  N142     1.0000 0.00080  0.15640  0.46200  Biso   1.000  N
  N143     1.0000 0.01790  0.18740  0.46350  Biso   1.000  N
  N144     1.0000 0.04050  0.19240  0.43490  Biso   1.000  N
  C522     1.0000 0.97310  0.14520  0.49060  Biso   1.000  C
  C523     1.0000 0.96690  0.16630  0.52040  Biso   1.000  C
  H285     1.0000 0.98120  0.18810  0.52190  Biso   1.000  H
  C524     1.0000 0.93950  0.15490  0.54800  Biso   1.000  C
  H286     1.0000 0.93530  0.16900  0.56790  Biso   1.000  H
  C525     1.0000 0.91820  0.12230  0.54580  Biso   1.000  C
  C526     1.0000 0.92440  0.10110  0.51600  Biso   1.000  C
  H287     1.0000 0.91020  0.07930  0.51450  Biso   1.000  H
  C527     1.0000 0.95190  0.11260  0.48840  Biso   1.000  C
  H288     1.0000 0.95600  0.09850  0.46850  Biso   1.000  H
  C528     1.0000 0.89170  0.10880  0.57510  Biso   1.000  C
  O97      1.0000 0.50000  0.69760  0.75000  Biso   1.000  O
  O98      1.0000 0.00000  0.19760  0.75000  Biso   1.000  O
  O99      1.0000 0.50000  0.30240  0.25000  Biso   1.000  O
  O100     1.0000 0.00000  0.80240  0.25000  Biso   1.000  O
