data_image0
_cell_length_a       17.3849
_cell_length_b       21.0331
_cell_length_c       23.409
_cell_angle_alpha    90
_cell_angle_beta     91.978
_cell_angle_gamma    90

_symmetry_space_group_name_H-M    "P 1"
_symmetry_int_tables_number       1

loop_
  _symmetry_equiv_pos_as_xyz
  'x, y, z'

loop_
  _atom_site_label
  _atom_site_occupancy
  _atom_site_fract_x
  _atom_site_fract_y
  _atom_site_fract_z
  _atom_site_thermal_displace_type
  _atom_site_B_iso_or_equiv
  _atom_site_type_symbol
  Pr1      1.0000 0.57184  0.83353  0.90633  Biso   1.000  Pr
  Pr2      1.0000 0.45032  0.82764  0.07550  Biso   1.000  Pr
  Pr3      1.0000 0.93508  0.99691  0.58503  Biso   1.000  Pr
  Pr4      1.0000 0.76965  0.08619  0.75176  Biso   1.000  Pr
  Cu1      1.0000 0.23025  0.83495  0.72557  Biso   1.000  Cu
  Cu2      1.0000 0.27484  0.00191  0.76840  Biso   1.000  Cu
  Cu3      1.0000 0.28887  0.66984  0.76000  Biso   1.000  Cu
  Cu4      1.0000 0.49021  0.11668  0.50643  Biso   1.000  Cu
  Cl1      1.0000 0.47620  0.22100  0.50180  Biso   1.000  Cl
  O1       1.0000 0.58410  0.71600  0.53020  Biso   1.000  O
  O2       1.0000 0.61530  0.88130  0.74380  Biso   1.000  O
  O3       1.0000 0.53390  0.87620  0.81470  Biso   1.000  O
  O4       1.0000 0.59530  0.73160  0.96130  Biso   1.000  O
  O5       1.0000 0.53690  0.74770  0.04310  Biso   1.000  O
  O6       1.0000 0.92670  0.90640  0.64970  Biso   1.000  O
  O7       1.0000 0.84530  0.87860  0.71630  Biso   1.000  O
  O8       1.0000 0.44470  0.78450  0.89780  Biso   1.000  O
  O9       1.0000 0.39150  0.79890  0.98240  Biso   1.000  O
  O10      1.0000 0.97780  0.03840  0.68010  Biso   1.000  O
  O11      1.0000 0.89510  0.04000  0.74960  Biso   1.000  O
  O12      1.0000 0.42740  0.92910  0.02340  Biso   1.000  O
  O13      1.0000 0.47940  0.91240  0.93970  Biso   1.000  O
  O14      1.0000 0.43590  0.91240  0.14470  Biso   1.000  O
  O15      1.0000 0.64910  0.06310  0.79300  Biso   1.000  O
  O16      1.0000 0.87750  0.02580  0.49130  Biso   1.000  O
  O17      1.0000 0.06590  0.95380  0.59140  Biso   1.000  O
  O18      1.0000 0.59280  0.74470  0.83990  Biso   1.000  O
  O19      1.0000 0.84320  0.16880  0.70360  Biso   1.000  O
  O20      1.0000 0.63680  0.86020  0.99710  Biso   1.000  O
  O21      1.0000 0.57850  0.87630  0.07870  Biso   1.000  O
  O22      1.0000 0.50480  0.78270  0.16400  Biso   1.000  O
  O23      1.0000 0.41460  0.78190  0.22740  Biso   1.000  O
  O24      1.0000 0.92120  0.89850  0.52630  Biso   1.000  O
  O25      1.0000 0.02060  0.08020  0.55430  Biso   1.000  O
  O26      1.0000 0.74800  0.05210  0.65690  Biso   1.000  O
  O27      1.0000 0.79840  0.98000  0.59730  Biso   1.000  O
  N1       1.0000 0.34710  0.85580  0.70250  Biso   1.000  N
  N2       1.0000 0.22480  0.81320  0.63970  Biso   1.000  N
  N3       1.0000 0.11660  0.86210  0.75070  Biso   1.000  N
  N4       1.0000 0.23940  0.81870  0.81120  Biso   1.000  N
  N5       1.0000 0.16490  0.02090  0.79160  Biso   1.000  N
  N6       1.0000 0.28520  0.97690  0.85220  Biso   1.000  N
  N7       1.0000 0.38360  0.03330  0.74700  Biso   1.000  N
  N8       1.0000 0.26910  0.98320  0.68340  Biso   1.000  N
  N9       1.0000 0.39900  0.69480  0.73780  Biso   1.000  N
  N10      1.0000 0.28100  0.65260  0.67230  Biso   1.000  N
  N11      1.0000 0.17930  0.68950  0.78190  Biso   1.000  N
  N12      1.0000 0.29380  0.64340  0.84740  Biso   1.000  N
  N13      1.0000 0.55980  0.05730  0.53660  Biso   1.000  N
  C1       1.0000 0.55130  0.87440  0.76210  Biso   1.000  C
  C2       1.0000 0.48360  0.86360  0.72040  Biso   1.000  C
  C3       1.0000 0.40750  0.86740  0.73740  Biso   1.000  C
  H1       1.0000 0.39860  0.87870  0.77500  Biso   1.000  H
  C4       1.0000 0.49450  0.84950  0.66390  Biso   1.000  C
  H2       1.0000 0.54400  0.84830  0.65020  Biso   1.000  H
  C5       1.0000 0.43320  0.83720  0.62800  Biso   1.000  C
  H3       1.0000 0.44120  0.82540  0.59040  Biso   1.000  H
  C6       1.0000 0.35720  0.84210  0.64750  Biso   1.000  C
  C7       1.0000 0.28960  0.82880  0.61230  Biso   1.000  C
  C8       1.0000 0.29010  0.83110  0.55210  Biso   1.000  C
  H4       1.0000 0.33480  0.84280  0.53410  Biso   1.000  H
  C9       1.0000 0.22580  0.81630  0.52010  Biso   1.000  C
  H5       1.0000 0.22620  0.81790  0.48040  Biso   1.000  H
  C10      1.0000 0.16250  0.79880  0.60720  Biso   1.000  C
  H6       1.0000 0.11790  0.78810  0.62580  Biso   1.000  H
  C11      1.0000 0.15920  0.79880  0.54760  Biso   1.000  C
  C12      1.0000 0.59170  0.72750  0.01400  Biso   1.000  C
  C13      1.0000 0.91270  0.88750  0.69730  Biso   1.000  C
  C14      1.0000 0.97930  0.87390  0.73690  Biso   1.000  C
  C15      1.0000 0.05390  0.87330  0.71800  Biso   1.000  C
  H7       1.0000 0.06070  0.88120  0.67940  Biso   1.000  H
  C16      1.0000 0.97110  0.85970  0.79590  Biso   1.000  C
  H8       1.0000 0.92230  0.85690  0.81070  Biso   1.000  H
  C17      1.0000 0.03370  0.85020  0.83050  Biso   1.000  C
  H9       1.0000 0.02850  0.84400  0.86950  Biso   1.000  H
  C18      1.0000 0.10620  0.84970  0.80700  Biso   1.000  C
  C19      1.0000 0.17780  0.83440  0.84060  Biso   1.000  C
  C20      1.0000 0.17920  0.83610  0.90200  Biso   1.000  C
  H10      1.0000 0.13570  0.84650  0.92200  Biso   1.000  H
  C21      1.0000 0.24750  0.82170  0.92960  Biso   1.000  C
  H11      1.0000 0.25060  0.82280  0.96930  Biso   1.000  H
  C22      1.0000 0.30260  0.80290  0.84060  Biso   1.000  C
  H12      1.0000 0.34430  0.78900  0.82010  Biso   1.000  H
  C23      1.0000 0.31210  0.80550  0.90010  Biso   1.000  C
  C24      1.0000 0.38910  0.79350  0.92960  Biso   1.000  C
  C25      1.0000 0.96120  0.03700  0.73120  Biso   1.000  C
  C26      1.0000 0.02750  0.02940  0.77430  Biso   1.000  C
  C27      1.0000 0.01630  0.01690  0.83200  Biso   1.000  C
  H13      1.0000 0.96680  0.01550  0.84580  Biso   1.000  H
  C28      1.0000 0.10260  0.03030  0.75630  Biso   1.000  C
  H14      1.0000 0.11070  0.03770  0.71790  Biso   1.000  H
  C29      1.0000 0.07800  0.00680  0.86760  Biso   1.000  C
  H15      1.0000 0.07090  0.99950  0.90620  Biso   1.000  H
  C30      1.0000 0.15190  0.00740  0.84690  Biso   1.000  C
  C31      1.0000 0.22320  0.99220  0.88240  Biso   1.000  C
  C32      1.0000 0.22560  0.99210  0.94270  Biso   1.000  C
  H16      1.0000 0.18200  0.00250  0.96260  Biso   1.000  H
  C33      1.0000 0.29170  0.97670  0.97100  Biso   1.000  C
  H17      1.0000 0.29440  0.97810  0.01080  Biso   1.000  H
  C34      1.0000 0.34940  0.96070  0.88220  Biso   1.000  C
  H18      1.0000 0.39260  0.94980  0.86190  Biso   1.000  H
  C35      1.0000 0.35540  0.95910  0.94160  Biso   1.000  C
  C36      1.0000 0.42630  0.93250  0.97110  Biso   1.000  C
  C37      1.0000 0.41790  0.93260  0.19240  Biso   1.000  C
  C38      1.0000 0.47990  0.95140  0.23410  Biso   1.000  C
  C39      1.0000 0.44310  0.04800  0.78180  Biso   1.000  C
  H19      1.0000 0.43290  0.05860  0.81930  Biso   1.000  H
  C40      1.0000 0.46580  0.96890  0.28990  Biso   1.000  C
  H20      1.0000 0.41570  0.97070  0.30240  Biso   1.000  H
  C41      1.0000 0.52740  0.98370  0.32650  Biso   1.000  C
  H21      1.0000 0.51850  0.99370  0.36440  Biso   1.000  H
  C42      1.0000 0.39990  0.01630  0.69200  Biso   1.000  C
  C43      1.0000 0.33210  0.00230  0.65580  Biso   1.000  C
  C44      1.0000 0.33080  0.00690  0.59570  Biso   1.000  C
  H22      1.0000 0.37480  0.01860  0.57680  Biso   1.000  H
  C45      1.0000 0.26350  0.99360  0.56540  Biso   1.000  C
  H23      1.0000 0.26150  0.99680  0.52580  Biso   1.000  H
  C46      1.0000 0.20550  0.97020  0.65180  Biso   1.000  C
  H24      1.0000 0.16200  0.95660  0.67040  Biso   1.000  H
  C47      1.0000 0.20080  0.97600  0.59310  Biso   1.000  C
  C48      1.0000 0.87660  0.03410  0.43900  Biso   1.000  C
  C49      1.0000 0.59900  0.70650  0.80070  Biso   1.000  C
  C50      1.0000 0.53540  0.70000  0.75550  Biso   1.000  C
  C51      1.0000 0.45980  0.70430  0.77260  Biso   1.000  C
  H25      1.0000 0.45130  0.71430  0.81050  Biso   1.000  H
  C52      1.0000 0.54660  0.68740  0.69960  Biso   1.000  C
  H26      1.0000 0.59650  0.68390  0.68680  Biso   1.000  H
  C53      1.0000 0.48690  0.67990  0.66240  Biso   1.000  C
  H27      1.0000 0.49570  0.67370  0.62380  Biso   1.000  H
  C54      1.0000 0.41390  0.68140  0.68060  Biso   1.000  C
  C55      1.0000 0.34470  0.66920  0.64500  Biso   1.000  C
  C56      1.0000 0.34530  0.67120  0.58460  Biso   1.000  C
  H28      1.0000 0.39040  0.68090  0.56610  Biso   1.000  H
  C57      1.0000 0.27850  0.65880  0.55350  Biso   1.000  C
  H29      1.0000 0.27790  0.66140  0.51380  Biso   1.000  H
  C58      1.0000 0.21750  0.63910  0.63990  Biso   1.000  C
  H30      1.0000 0.17360  0.62650  0.65850  Biso   1.000  H
  C59      1.0000 0.21320  0.64280  0.58070  Biso   1.000  C
  C60      1.0000 0.63780  0.86600  0.04960  Biso   1.000  C
  C61      1.0000 0.48160  0.78550  0.21380  Biso   1.000  C
  C62      1.0000 0.54410  0.79590  0.25990  Biso   1.000  C
  C63      1.0000 0.12060  0.70280  0.74470  Biso   1.000  C
  H31      1.0000 0.13190  0.71150  0.70700  Biso   1.000  H
  C64      1.0000 0.52840  0.80700  0.31740  Biso   1.000  C
  H32      1.0000 0.47810  0.80480  0.32950  Biso   1.000  H
  C65      1.0000 0.58650  0.82100  0.35530  Biso   1.000  C
  H33      1.0000 0.57620  0.82900  0.39340  Biso   1.000  H
  C66      1.0000 0.16320  0.67680  0.83670  Biso   1.000  C
  C67      1.0000 0.22850  0.66080  0.87350  Biso   1.000  C
  C68      1.0000 0.22700  0.66470  0.93410  Biso   1.000  C
  H34      1.0000 0.18290  0.67810  0.95200  Biso   1.000  H
  C69      1.0000 0.29160  0.64820  0.96530  Biso   1.000  C
  H35      1.0000 0.29140  0.65050  0.00500  Biso   1.000  H
  C70      1.0000 0.35560  0.62780  0.88040  Biso   1.000  C
  H36      1.0000 0.40010  0.61580  0.86230  Biso   1.000  H
  C71      1.0000 0.35760  0.62840  0.93920  Biso   1.000  C
  C72      1.0000 0.92560  0.89750  0.47290  Biso   1.000  C
  C73      1.0000 0.74430  0.01240  0.61560  Biso   1.000  C
  C74      1.0000 0.66860  0.00720  0.58370  Biso   1.000  C
  C75      1.0000 0.62570  0.06090  0.57000  Biso   1.000  C
  H37      1.0000 0.64220  0.10020  0.58380  Biso   1.000  H
  C76      1.0000 0.53490  0.00210  0.51680  Biso   1.000  C
  C77      1.0000 0.42850  0.04770  0.46960  Biso   1.000  C
  C78      1.0000 0.64280  0.95000  0.56260  Biso   1.000  C
  H38      1.0000 0.66980  0.91230  0.56890  Biso   1.000  H
  Pr5      1.0000 0.92816  0.33353  0.59367  Biso   1.000  Pr
  Pr6      1.0000 0.04968  0.32764  0.42450  Biso   1.000  Pr
  Pr7      1.0000 0.56492  0.49691  0.91497  Biso   1.000  Pr
  Pr8      1.0000 0.73035  0.58619  0.74824  Biso   1.000  Pr
  Cu5      1.0000 0.26975  0.33495  0.77443  Biso   1.000  Cu
  Cu6      1.0000 0.22516  0.50191  0.73160  Biso   1.000  Cu
  Cu7      1.0000 0.21113  0.16984  0.74000  Biso   1.000  Cu
  Cu8      1.0000 0.00979  0.61668  0.99357  Biso   1.000  Cu
  Cl2      1.0000 0.02380  0.72100  0.99820  Biso   1.000  Cl
  O28      1.0000 0.91590  0.21600  0.96980  Biso   1.000  O
  O29      1.0000 0.88470  0.38130  0.75620  Biso   1.000  O
  O30      1.0000 0.96610  0.37620  0.68530  Biso   1.000  O
  O31      1.0000 0.90470  0.23160  0.53870  Biso   1.000  O
  O32      1.0000 0.96310  0.24770  0.45690  Biso   1.000  O
  O33      1.0000 0.57330  0.40640  0.85030  Biso   1.000  O
  O34      1.0000 0.65470  0.37860  0.78370  Biso   1.000  O
  O35      1.0000 0.05530  0.28450  0.60220  Biso   1.000  O
  O36      1.0000 0.10850  0.29890  0.51760  Biso   1.000  O
  O37      1.0000 0.52220  0.53840  0.81990  Biso   1.000  O
  O38      1.0000 0.60490  0.54000  0.75040  Biso   1.000  O
  O39      1.0000 0.07260  0.42910  0.47660  Biso   1.000  O
  O40      1.0000 0.02060  0.41240  0.56030  Biso   1.000  O
  O41      1.0000 0.06410  0.41240  0.35530  Biso   1.000  O
  O42      1.0000 0.85090  0.56310  0.70700  Biso   1.000  O
  O43      1.0000 0.62250  0.52580  0.00870  Biso   1.000  O
  O44      1.0000 0.43410  0.45380  0.90860  Biso   1.000  O
  O45      1.0000 0.90720  0.24470  0.66010  Biso   1.000  O
  O46      1.0000 0.65680  0.66880  0.79640  Biso   1.000  O
  O47      1.0000 0.86320  0.36020  0.50290  Biso   1.000  O
  O48      1.0000 0.92150  0.37630  0.42130  Biso   1.000  O
  O49      1.0000 0.99520  0.28270  0.33600  Biso   1.000  O
  O50      1.0000 0.08540  0.28190  0.27260  Biso   1.000  O
  O51      1.0000 0.57880  0.39850  0.97370  Biso   1.000  O
  O52      1.0000 0.47940  0.58020  0.94570  Biso   1.000  O
  O53      1.0000 0.75200  0.55210  0.84310  Biso   1.000  O
  O54      1.0000 0.70160  0.48000  0.90270  Biso   1.000  O
  N14      1.0000 0.15290  0.35580  0.79750  Biso   1.000  N
  N15      1.0000 0.27520  0.31320  0.86030  Biso   1.000  N
  N16      1.0000 0.38340  0.36210  0.74930  Biso   1.000  N
  N17      1.0000 0.26060  0.31870  0.68880  Biso   1.000  N
  N18      1.0000 0.33510  0.52090  0.70840  Biso   1.000  N
  N19      1.0000 0.21480  0.47690  0.64780  Biso   1.000  N
  N20      1.0000 0.11640  0.53330  0.75300  Biso   1.000  N
  N21      1.0000 0.23090  0.48320  0.81660  Biso   1.000  N
  N22      1.0000 0.10100  0.19480  0.76220  Biso   1.000  N
  N23      1.0000 0.21900  0.15260  0.82770  Biso   1.000  N
  N24      1.0000 0.32070  0.18950  0.71810  Biso   1.000  N
  N25      1.0000 0.20620  0.14340  0.65260  Biso   1.000  N
  N26      1.0000 0.94020  0.55730  0.96340  Biso   1.000  N
  C79      1.0000 0.94870  0.37440  0.73790  Biso   1.000  C
  C80      1.0000 0.01640  0.36360  0.77960  Biso   1.000  C
  C81      1.0000 0.09250  0.36740  0.76260  Biso   1.000  C
  H39      1.0000 0.10140  0.37870  0.72500  Biso   1.000  H
  C82      1.0000 0.00550  0.34950  0.83610  Biso   1.000  C
  H40      1.0000 0.95600  0.34830  0.84980  Biso   1.000  H
  C83      1.0000 0.06680  0.33720  0.87200  Biso   1.000  C
  H41      1.0000 0.05880  0.32540  0.90960  Biso   1.000  H
  C84      1.0000 0.14280  0.34210  0.85250  Biso   1.000  C
  C85      1.0000 0.21040  0.32880  0.88770  Biso   1.000  C
  C86      1.0000 0.20990  0.33110  0.94790  Biso   1.000  C
  H42      1.0000 0.16520  0.34280  0.96590  Biso   1.000  H
  C87      1.0000 0.27420  0.31630  0.97990  Biso   1.000  C
  H43      1.0000 0.27380  0.31790  0.01960  Biso   1.000  H
  C88      1.0000 0.33750  0.29880  0.89280  Biso   1.000  C
  H44      1.0000 0.38210  0.28810  0.87420  Biso   1.000  H
  C89      1.0000 0.34080  0.29880  0.95240  Biso   1.000  C
  C90      1.0000 0.90830  0.22750  0.48600  Biso   1.000  C
  C91      1.0000 0.58730  0.38750  0.80270  Biso   1.000  C
  C92      1.0000 0.52070  0.37390  0.76310  Biso   1.000  C
  C93      1.0000 0.44610  0.37330  0.78200  Biso   1.000  C
  H45      1.0000 0.43930  0.38120  0.82060  Biso   1.000  H
  C94      1.0000 0.52890  0.35970  0.70410  Biso   1.000  C
  H46      1.0000 0.57770  0.35690  0.68930  Biso   1.000  H
  C95      1.0000 0.46630  0.35020  0.66950  Biso   1.000  C
  H47      1.0000 0.47150  0.34400  0.63050  Biso   1.000  H
  C96      1.0000 0.39380  0.34970  0.69300  Biso   1.000  C
  C97      1.0000 0.32220  0.33440  0.65940  Biso   1.000  C
  C98      1.0000 0.32080  0.33610  0.59800  Biso   1.000  C
  H48      1.0000 0.36430  0.34650  0.57800  Biso   1.000  H
  C99      1.0000 0.25250  0.32170  0.57040  Biso   1.000  C
  H49      1.0000 0.24940  0.32280  0.53070  Biso   1.000  H
  C100     1.0000 0.19740  0.30290  0.65940  Biso   1.000  C
  H50      1.0000 0.15570  0.28900  0.67990  Biso   1.000  H
  C101     1.0000 0.18790  0.30550  0.59990  Biso   1.000  C
  C102     1.0000 0.11090  0.29350  0.57040  Biso   1.000  C
  C103     1.0000 0.53880  0.53700  0.76880  Biso   1.000  C
  C104     1.0000 0.47250  0.52940  0.72570  Biso   1.000  C
  C105     1.0000 0.48370  0.51690  0.66800  Biso   1.000  C
  H51      1.0000 0.53320  0.51550  0.65420  Biso   1.000  H
  C106     1.0000 0.39740  0.53030  0.74370  Biso   1.000  C
  H52      1.0000 0.38930  0.53770  0.78210  Biso   1.000  H
  C107     1.0000 0.42200  0.50680  0.63240  Biso   1.000  C
  H53      1.0000 0.42910  0.49950  0.59380  Biso   1.000  H
  C108     1.0000 0.34810  0.50740  0.65310  Biso   1.000  C
  C109     1.0000 0.27680  0.49220  0.61760  Biso   1.000  C
  C110     1.0000 0.27440  0.49210  0.55730  Biso   1.000  C
  H54      1.0000 0.31800  0.50250  0.53740  Biso   1.000  H
  C111     1.0000 0.20830  0.47670  0.52900  Biso   1.000  C
  H55      1.0000 0.20560  0.47810  0.48920  Biso   1.000  H
  C112     1.0000 0.15060  0.46070  0.61780  Biso   1.000  C
  H56      1.0000 0.10740  0.44980  0.63810  Biso   1.000  H
  C113     1.0000 0.14460  0.45910  0.55840  Biso   1.000  C
  C114     1.0000 0.07370  0.43250  0.52890  Biso   1.000  C
  C115     1.0000 0.08210  0.43260  0.30760  Biso   1.000  C
  C116     1.0000 0.02010  0.45140  0.26590  Biso   1.000  C
  C117     1.0000 0.05690  0.54800  0.71820  Biso   1.000  C
  H57      1.0000 0.06710  0.55860  0.68070  Biso   1.000  H
  C118     1.0000 0.03420  0.46890  0.21010  Biso   1.000  C
  H58      1.0000 0.08430  0.47070  0.19760  Biso   1.000  H
  C119     1.0000 0.97260  0.48370  0.17350  Biso   1.000  C
  H59      1.0000 0.98150  0.49370  0.13560  Biso   1.000  H
  C120     1.0000 0.10010  0.51630  0.80800  Biso   1.000  C
  C121     1.0000 0.16790  0.50230  0.84420  Biso   1.000  C
  C122     1.0000 0.16920  0.50690  0.90430  Biso   1.000  C
  H60      1.0000 0.12520  0.51860  0.92320  Biso   1.000  H
  C123     1.0000 0.23650  0.49360  0.93460  Biso   1.000  C
  H61      1.0000 0.23850  0.49680  0.97420  Biso   1.000  H
  C124     1.0000 0.29450  0.47020  0.84820  Biso   1.000  C
  H62      1.0000 0.33800  0.45660  0.82960  Biso   1.000  H
  C125     1.0000 0.29920  0.47600  0.90690  Biso   1.000  C
  C126     1.0000 0.62340  0.53410  0.06100  Biso   1.000  C
  C127     1.0000 0.90100  0.20650  0.69930  Biso   1.000  C
  C128     1.0000 0.96460  0.20000  0.74450  Biso   1.000  C
  C129     1.0000 0.04020  0.20430  0.72740  Biso   1.000  C
  H63      1.0000 0.04870  0.21430  0.68950  Biso   1.000  H
  C130     1.0000 0.95340  0.18740  0.80040  Biso   1.000  C
  H64      1.0000 0.90350  0.18390  0.81320  Biso   1.000  H
  C131     1.0000 0.01310  0.17990  0.83760  Biso   1.000  C
  H65      1.0000 0.00430  0.17370  0.87620  Biso   1.000  H
  C132     1.0000 0.08610  0.18140  0.81940  Biso   1.000  C
  C133     1.0000 0.15530  0.16920  0.85500  Biso   1.000  C
  C134     1.0000 0.15470  0.17120  0.91540  Biso   1.000  C
  H66      1.0000 0.10960  0.18090  0.93390  Biso   1.000  H
  C135     1.0000 0.22150  0.15880  0.94650  Biso   1.000  C
  H67      1.0000 0.22210  0.16140  0.98620  Biso   1.000  H
  C136     1.0000 0.28250  0.13910  0.86010  Biso   1.000  C
  H68      1.0000 0.32640  0.12650  0.84150  Biso   1.000  H
  C137     1.0000 0.28680  0.14280  0.91930  Biso   1.000  C
  C138     1.0000 0.86220  0.36600  0.45040  Biso   1.000  C
  C139     1.0000 0.01840  0.28550  0.28620  Biso   1.000  C
  C140     1.0000 0.95590  0.29590  0.24010  Biso   1.000  C
  C141     1.0000 0.37940  0.20280  0.75530  Biso   1.000  C
  H69      1.0000 0.36810  0.21150  0.79300  Biso   1.000  H
  C142     1.0000 0.97160  0.30700  0.18260  Biso   1.000  C
  H70      1.0000 0.02190  0.30480  0.17050  Biso   1.000  H
  C143     1.0000 0.91350  0.32100  0.14470  Biso   1.000  C
  H71      1.0000 0.92380  0.32900  0.10660  Biso   1.000  H
  C144     1.0000 0.33680  0.17680  0.66330  Biso   1.000  C
  C145     1.0000 0.27150  0.16080  0.62650  Biso   1.000  C
  C146     1.0000 0.27300  0.16470  0.56590  Biso   1.000  C
  H72      1.0000 0.31710  0.17810  0.54800  Biso   1.000  H
  C147     1.0000 0.20840  0.14820  0.53470  Biso   1.000  C
  H73      1.0000 0.20860  0.15050  0.49500  Biso   1.000  H
  C148     1.0000 0.14440  0.12780  0.61960  Biso   1.000  C
  H74      1.0000 0.09990  0.11580  0.63770  Biso   1.000  H
  C149     1.0000 0.14240  0.12840  0.56080  Biso   1.000  C
  C150     1.0000 0.57440  0.39750  0.02710  Biso   1.000  C
  C151     1.0000 0.75570  0.51240  0.88440  Biso   1.000  C
  C152     1.0000 0.83140  0.50720  0.91630  Biso   1.000  C
  C153     1.0000 0.87430  0.56090  0.93000  Biso   1.000  C
  H75      1.0000 0.85780  0.60020  0.91620  Biso   1.000  H
  C154     1.0000 0.96510  0.50210  0.98320  Biso   1.000  C
  C155     1.0000 0.07150  0.54770  0.03040  Biso   1.000  C
  C156     1.0000 0.85720  0.45000  0.93740  Biso   1.000  C
  H76      1.0000 0.83020  0.41230  0.93110  Biso   1.000  H
  Pr9      1.0000 0.42816  0.16647  0.09367  Biso   1.000  Pr
  Pr10     1.0000 0.54968  0.17236  0.92450  Biso   1.000  Pr
  Pr11     1.0000 0.06492  0.00309  0.41497  Biso   1.000  Pr
  Pr12     1.0000 0.23035  0.91381  0.24824  Biso   1.000  Pr
  Cu9      1.0000 0.76975  0.16505  0.27443  Biso   1.000  Cu
  Cu10     1.0000 0.72516  0.99809  0.23160  Biso   1.000  Cu
  Cu11     1.0000 0.71113  0.33016  0.24000  Biso   1.000  Cu
  Cu12     1.0000 0.50979  0.88332  0.49357  Biso   1.000  Cu
  Cl3      1.0000 0.52380  0.77900  0.49820  Biso   1.000  Cl
  O55      1.0000 0.41590  0.28400  0.46980  Biso   1.000  O
  O56      1.0000 0.38470  0.11870  0.25620  Biso   1.000  O
  O57      1.0000 0.46610  0.12380  0.18530  Biso   1.000  O
  O58      1.0000 0.40470  0.26840  0.03870  Biso   1.000  O
  O59      1.0000 0.46310  0.25230  0.95690  Biso   1.000  O
  O60      1.0000 0.07330  0.09360  0.35030  Biso   1.000  O
  O61      1.0000 0.15470  0.12140  0.28370  Biso   1.000  O
  O62      1.0000 0.55530  0.21550  0.10220  Biso   1.000  O
  O63      1.0000 0.60850  0.20110  0.01760  Biso   1.000  O
  O64      1.0000 0.02220  0.96160  0.31990  Biso   1.000  O
  O65      1.0000 0.10490  0.96000  0.25040  Biso   1.000  O
  O66      1.0000 0.57260  0.07090  0.97660  Biso   1.000  O
  O67      1.0000 0.52060  0.08760  0.06030  Biso   1.000  O
  O68      1.0000 0.56410  0.08760  0.85530  Biso   1.000  O
  O69      1.0000 0.35090  0.93690  0.20700  Biso   1.000  O
  O70      1.0000 0.12250  0.97420  0.50870  Biso   1.000  O
  O71      1.0000 0.93410  0.04620  0.40860  Biso   1.000  O
  O72      1.0000 0.40720  0.25530  0.16010  Biso   1.000  O
  O73      1.0000 0.15680  0.83120  0.29640  Biso   1.000  O
  O74      1.0000 0.36320  0.13980  0.00290  Biso   1.000  O
  O75      1.0000 0.42150  0.12370  0.92130  Biso   1.000  O
  O76      1.0000 0.49520  0.21730  0.83600  Biso   1.000  O
  O77      1.0000 0.58540  0.21810  0.77260  Biso   1.000  O
  O78      1.0000 0.07880  0.10150  0.47370  Biso   1.000  O
  O79      1.0000 0.97940  0.91980  0.44570  Biso   1.000  O
  O80      1.0000 0.25200  0.94790  0.34310  Biso   1.000  O
  O81      1.0000 0.20160  0.02000  0.40270  Biso   1.000  O
  N27      1.0000 0.65290  0.14420  0.29750  Biso   1.000  N
  N28      1.0000 0.77520  0.18680  0.36030  Biso   1.000  N
  N29      1.0000 0.88340  0.13790  0.24930  Biso   1.000  N
  N30      1.0000 0.76060  0.18130  0.18880  Biso   1.000  N
  N31      1.0000 0.83510  0.97910  0.20840  Biso   1.000  N
  N32      1.0000 0.71480  0.02310  0.14780  Biso   1.000  N
  N33      1.0000 0.61640  0.96670  0.25300  Biso   1.000  N
  N34      1.0000 0.73090  0.01680  0.31660  Biso   1.000  N
  N35      1.0000 0.60100  0.30520  0.26220  Biso   1.000  N
  N36      1.0000 0.71900  0.34740  0.32770  Biso   1.000  N
  N37      1.0000 0.82070  0.31050  0.21810  Biso   1.000  N
  N38      1.0000 0.70620  0.35660  0.15260  Biso   1.000  N
  N39      1.0000 0.44020  0.94270  0.46340  Biso   1.000  N
  C157     1.0000 0.44870  0.12560  0.23790  Biso   1.000  C
  C158     1.0000 0.51640  0.13640  0.27960  Biso   1.000  C
  C159     1.0000 0.59250  0.13260  0.26260  Biso   1.000  C
  H77      1.0000 0.60140  0.12130  0.22500  Biso   1.000  H
  C160     1.0000 0.50550  0.15050  0.33610  Biso   1.000  C
  H78      1.0000 0.45600  0.15170  0.34980  Biso   1.000  H
  C161     1.0000 0.56680  0.16280  0.37200  Biso   1.000  C
  H79      1.0000 0.55880  0.17460  0.40960  Biso   1.000  H
  C162     1.0000 0.64280  0.15790  0.35250  Biso   1.000  C
  C163     1.0000 0.71040  0.17120  0.38770  Biso   1.000  C
  C164     1.0000 0.70990  0.16890  0.44790  Biso   1.000  C
  H80      1.0000 0.66520  0.15720  0.46590  Biso   1.000  H
  C165     1.0000 0.77420  0.18370  0.47990  Biso   1.000  C
  H81      1.0000 0.77380  0.18210  0.51960  Biso   1.000  H
  C166     1.0000 0.83750  0.20120  0.39280  Biso   1.000  C
  H82      1.0000 0.88210  0.21190  0.37420  Biso   1.000  H
  C167     1.0000 0.84080  0.20120  0.45240  Biso   1.000  C
  C168     1.0000 0.40830  0.27250  0.98600  Biso   1.000  C
  C169     1.0000 0.08730  0.11250  0.30270  Biso   1.000  C
  C170     1.0000 0.02070  0.12610  0.26310  Biso   1.000  C
  C171     1.0000 0.94610  0.12670  0.28200  Biso   1.000  C
  H83      1.0000 0.93930  0.11880  0.32060  Biso   1.000  H
  C172     1.0000 0.02890  0.14030  0.20410  Biso   1.000  C
  H84      1.0000 0.07770  0.14310  0.18930  Biso   1.000  H
  C173     1.0000 0.96630  0.14980  0.16950  Biso   1.000  C
  H85      1.0000 0.97150  0.15600  0.13050  Biso   1.000  H
  C174     1.0000 0.89380  0.15030  0.19300  Biso   1.000  C
  C175     1.0000 0.82220  0.16560  0.15940  Biso   1.000  C
  C176     1.0000 0.82080  0.16390  0.09800  Biso   1.000  C
  H86      1.0000 0.86430  0.15350  0.07800  Biso   1.000  H
  C177     1.0000 0.75250  0.17830  0.07040  Biso   1.000  C
  H87      1.0000 0.74940  0.17720  0.03070  Biso   1.000  H
  C178     1.0000 0.69740  0.19710  0.15940  Biso   1.000  C
  H88      1.0000 0.65570  0.21100  0.17990  Biso   1.000  H
  C179     1.0000 0.68790  0.19450  0.09990  Biso   1.000  C
  C180     1.0000 0.61090  0.20650  0.07040  Biso   1.000  C
  C181     1.0000 0.03880  0.96300  0.26880  Biso   1.000  C
  C182     1.0000 0.97250  0.97060  0.22570  Biso   1.000  C
  C183     1.0000 0.98370  0.98310  0.16800  Biso   1.000  C
  H89      1.0000 0.03320  0.98450  0.15420  Biso   1.000  H
  C184     1.0000 0.89740  0.96970  0.24370  Biso   1.000  C
  H90      1.0000 0.88930  0.96230  0.28210  Biso   1.000  H
  C185     1.0000 0.92200  0.99320  0.13240  Biso   1.000  C
  H91      1.0000 0.92910  0.00050  0.09380  Biso   1.000  H
  C186     1.0000 0.84810  0.99260  0.15310  Biso   1.000  C
  C187     1.0000 0.77680  0.00780  0.11760  Biso   1.000  C
  C188     1.0000 0.77440  0.00790  0.05730  Biso   1.000  C
  H92      1.0000 0.81800  0.99750  0.03740  Biso   1.000  H
  C189     1.0000 0.70830  0.02330  0.02900  Biso   1.000  C
  H93      1.0000 0.70560  0.02190  0.98920  Biso   1.000  H
  C190     1.0000 0.65060  0.03930  0.11780  Biso   1.000  C
  H94      1.0000 0.60740  0.05020  0.13810  Biso   1.000  H
  C191     1.0000 0.64460  0.04090  0.05840  Biso   1.000  C
  C192     1.0000 0.57370  0.06750  0.02890  Biso   1.000  C
  C193     1.0000 0.58210  0.06740  0.80760  Biso   1.000  C
  C194     1.0000 0.52010  0.04860  0.76590  Biso   1.000  C
  C195     1.0000 0.55690  0.95200  0.21820  Biso   1.000  C
  H95      1.0000 0.56710  0.94140  0.18070  Biso   1.000  H
  C196     1.0000 0.53420  0.03110  0.71010  Biso   1.000  C
  H96      1.0000 0.58430  0.02930  0.69760  Biso   1.000  H
  C197     1.0000 0.47260  0.01630  0.67350  Biso   1.000  C
  H97      1.0000 0.48150  0.00630  0.63560  Biso   1.000  H
  C198     1.0000 0.60010  0.98370  0.30800  Biso   1.000  C
  C199     1.0000 0.66790  0.99770  0.34420  Biso   1.000  C
  C200     1.0000 0.66920  0.99310  0.40430  Biso   1.000  C
  H98      1.0000 0.62520  0.98140  0.42320  Biso   1.000  H
  C201     1.0000 0.73650  0.00640  0.43460  Biso   1.000  C
  H99      1.0000 0.73850  0.00320  0.47420  Biso   1.000  H
  C202     1.0000 0.79450  0.02980  0.34820  Biso   1.000  C
  H100     1.0000 0.83800  0.04340  0.32960  Biso   1.000  H
  C203     1.0000 0.79920  0.02400  0.40690  Biso   1.000  C
  C204     1.0000 0.12340  0.96590  0.56100  Biso   1.000  C
  C205     1.0000 0.40100  0.29350  0.19930  Biso   1.000  C
  C206     1.0000 0.46460  0.30000  0.24450  Biso   1.000  C
  C207     1.0000 0.54020  0.29570  0.22740  Biso   1.000  C
  H101     1.0000 0.54870  0.28570  0.18950  Biso   1.000  H
  C208     1.0000 0.45340  0.31260  0.30040  Biso   1.000  C
  H102     1.0000 0.40350  0.31610  0.31320  Biso   1.000  H
  C209     1.0000 0.51310  0.32010  0.33760  Biso   1.000  C
  H103     1.0000 0.50430  0.32630  0.37620  Biso   1.000  H
  C210     1.0000 0.58610  0.31860  0.31940  Biso   1.000  C
  C211     1.0000 0.65530  0.33080  0.35500  Biso   1.000  C
  C212     1.0000 0.65470  0.32880  0.41540  Biso   1.000  C
  H104     1.0000 0.60960  0.31910  0.43390  Biso   1.000  H
  C213     1.0000 0.72150  0.34120  0.44650  Biso   1.000  C
  H105     1.0000 0.72210  0.33860  0.48620  Biso   1.000  H
  C214     1.0000 0.78250  0.36090  0.36010  Biso   1.000  C
  H106     1.0000 0.82640  0.37350  0.34150  Biso   1.000  H
  C215     1.0000 0.78680  0.35720  0.41930  Biso   1.000  C
  C216     1.0000 0.36220  0.13400  0.95040  Biso   1.000  C
  C217     1.0000 0.51840  0.21450  0.78620  Biso   1.000  C
  C218     1.0000 0.45590  0.20410  0.74010  Biso   1.000  C
  C219     1.0000 0.87940  0.29720  0.25530  Biso   1.000  C
  H107     1.0000 0.86810  0.28850  0.29300  Biso   1.000  H
  C220     1.0000 0.47160  0.19300  0.68260  Biso   1.000  C
  H108     1.0000 0.52190  0.19520  0.67050  Biso   1.000  H
  C221     1.0000 0.41350  0.17900  0.64470  Biso   1.000  C
  H109     1.0000 0.42380  0.17100  0.60660  Biso   1.000  H
  C222     1.0000 0.83680  0.32320  0.16330  Biso   1.000  C
  C223     1.0000 0.77150  0.33920  0.12650  Biso   1.000  C
  C224     1.0000 0.77300  0.33530  0.06590  Biso   1.000  C
  H110     1.0000 0.81710  0.32190  0.04800  Biso   1.000  H
  C225     1.0000 0.70840  0.35180  0.03470  Biso   1.000  C
  H111     1.0000 0.70860  0.34950  0.99500  Biso   1.000  H
  C226     1.0000 0.64440  0.37220  0.11960  Biso   1.000  C
  H112     1.0000 0.59990  0.38420  0.13770  Biso   1.000  H
  C227     1.0000 0.64240  0.37160  0.06080  Biso   1.000  C
  C228     1.0000 0.07440  0.10250  0.52710  Biso   1.000  C
  C229     1.0000 0.25570  0.98760  0.38440  Biso   1.000  C
  C230     1.0000 0.33140  0.99280  0.41630  Biso   1.000  C
  C231     1.0000 0.37430  0.93910  0.43000  Biso   1.000  C
  H113     1.0000 0.35780  0.89980  0.41620  Biso   1.000  H
  C232     1.0000 0.46510  0.99790  0.48320  Biso   1.000  C
  C233     1.0000 0.57150  0.95230  0.53040  Biso   1.000  C
  C234     1.0000 0.35720  0.05000  0.43740  Biso   1.000  C
  H114     1.0000 0.33020  0.08770  0.43110  Biso   1.000  H
  Pr13     1.0000 0.07184  0.66647  0.40633  Biso   1.000  Pr
  Pr14     1.0000 0.95032  0.67236  0.57550  Biso   1.000  Pr
  Pr15     1.0000 0.43508  0.50309  0.08503  Biso   1.000  Pr
  Pr16     1.0000 0.26965  0.41381  0.25176  Biso   1.000  Pr
  Cu13     1.0000 0.73025  0.66505  0.22557  Biso   1.000  Cu
  Cu14     1.0000 0.77484  0.49809  0.26840  Biso   1.000  Cu
  Cu15     1.0000 0.78887  0.83016  0.26000  Biso   1.000  Cu
  Cu16     1.0000 0.99021  0.38332  0.00643  Biso   1.000  Cu
  Cl4      1.0000 0.97620  0.27900  0.00180  Biso   1.000  Cl
  O82      1.0000 0.08410  0.78400  0.03020  Biso   1.000  O
  O83      1.0000 0.11530  0.61870  0.24380  Biso   1.000  O
  O84      1.0000 0.03390  0.62380  0.31470  Biso   1.000  O
  O85      1.0000 0.09530  0.76840  0.46130  Biso   1.000  O
  O86      1.0000 0.03690  0.75230  0.54310  Biso   1.000  O
  O87      1.0000 0.42670  0.59360  0.14970  Biso   1.000  O
  O88      1.0000 0.34530  0.62140  0.21630  Biso   1.000  O
  O89      1.0000 0.94470  0.71550  0.39780  Biso   1.000  O
  O90      1.0000 0.89150  0.70110  0.48240  Biso   1.000  O
  O91      1.0000 0.47780  0.46160  0.18010  Biso   1.000  O
  O92      1.0000 0.39510  0.46000  0.24960  Biso   1.000  O
  O93      1.0000 0.92740  0.57090  0.52340  Biso   1.000  O
  O94      1.0000 0.97940  0.58760  0.43970  Biso   1.000  O
  O95      1.0000 0.93590  0.58760  0.64470  Biso   1.000  O
  O96      1.0000 0.14910  0.43690  0.29300  Biso   1.000  O
  O97      1.0000 0.37750  0.47420  0.99130  Biso   1.000  O
  O98      1.0000 0.56590  0.54620  0.09140  Biso   1.000  O
  O99      1.0000 0.09280  0.75530  0.33990  Biso   1.000  O
  O100     1.0000 0.34320  0.33120  0.20360  Biso   1.000  O
  O101     1.0000 0.13680  0.63980  0.49710  Biso   1.000  O
  O102     1.0000 0.07850  0.62370  0.57870  Biso   1.000  O
  O103     1.0000 0.00480  0.71730  0.66400  Biso   1.000  O
  O104     1.0000 0.91460  0.71810  0.72740  Biso   1.000  O
  O105     1.0000 0.42120  0.60150  0.02630  Biso   1.000  O
  O106     1.0000 0.52060  0.41980  0.05430  Biso   1.000  O
  O107     1.0000 0.24800  0.44790  0.15690  Biso   1.000  O
  O108     1.0000 0.29840  0.52000  0.09730  Biso   1.000  O
  N40      1.0000 0.84710  0.64420  0.20250  Biso   1.000  N
  N41      1.0000 0.72480  0.68680  0.13970  Biso   1.000  N
  N42      1.0000 0.61660  0.63790  0.25070  Biso   1.000  N
  N43      1.0000 0.73940  0.68130  0.31120  Biso   1.000  N
  N44      1.0000 0.66490  0.47910  0.29160  Biso   1.000  N
  N45      1.0000 0.78520  0.52310  0.35220  Biso   1.000  N
  N46      1.0000 0.88360  0.46670  0.24700  Biso   1.000  N
  N47      1.0000 0.76910  0.51680  0.18340  Biso   1.000  N
  N48      1.0000 0.89900  0.80520  0.23780  Biso   1.000  N
  N49      1.0000 0.78100  0.84740  0.17230  Biso   1.000  N
  N50      1.0000 0.67930  0.81050  0.28190  Biso   1.000  N
  N51      1.0000 0.79380  0.85660  0.34740  Biso   1.000  N
  N52      1.0000 0.05980  0.44270  0.03660  Biso   1.000  N
  C235     1.0000 0.05130  0.62560  0.26210  Biso   1.000  C
  C236     1.0000 0.98360  0.63640  0.22040  Biso   1.000  C
  C237     1.0000 0.90750  0.63260  0.23740  Biso   1.000  C
  H115     1.0000 0.89860  0.62130  0.27500  Biso   1.000  H
  C238     1.0000 0.99450  0.65050  0.16390  Biso   1.000  C
  H116     1.0000 0.04400  0.65170  0.15020  Biso   1.000  H
  C239     1.0000 0.93320  0.66280  0.12800  Biso   1.000  C
  H117     1.0000 0.94120  0.67460  0.09040  Biso   1.000  H
  C240     1.0000 0.85720  0.65790  0.14750  Biso   1.000  C
  C241     1.0000 0.78960  0.67120  0.11230  Biso   1.000  C
  C242     1.0000 0.79010  0.66890  0.05210  Biso   1.000  C
  H118     1.0000 0.83480  0.65720  0.03410  Biso   1.000  H
  C243     1.0000 0.72580  0.68370  0.02010  Biso   1.000  C
  H119     1.0000 0.72620  0.68210  0.98040  Biso   1.000  H
  C244     1.0000 0.66250  0.70120  0.10720  Biso   1.000  C
  H120     1.0000 0.61790  0.71190  0.12580  Biso   1.000  H
  C245     1.0000 0.65920  0.70120  0.04760  Biso   1.000  C
  C246     1.0000 0.09170  0.77250  0.51400  Biso   1.000  C
  C247     1.0000 0.41270  0.61250  0.19730  Biso   1.000  C
  C248     1.0000 0.47930  0.62610  0.23690  Biso   1.000  C
  C249     1.0000 0.55390  0.62670  0.21800  Biso   1.000  C
  H121     1.0000 0.56070  0.61880  0.17940  Biso   1.000  H
  C250     1.0000 0.47110  0.64030  0.29590  Biso   1.000  C
  H122     1.0000 0.42230  0.64310  0.31070  Biso   1.000  H
  C251     1.0000 0.53370  0.64980  0.33050  Biso   1.000  C
  H123     1.0000 0.52850  0.65600  0.36950  Biso   1.000  H
  C252     1.0000 0.60620  0.65030  0.30700  Biso   1.000  C
  C253     1.0000 0.67780  0.66560  0.34060  Biso   1.000  C
  C254     1.0000 0.67920  0.66390  0.40200  Biso   1.000  C
  H124     1.0000 0.63570  0.65350  0.42200  Biso   1.000  H
  C255     1.0000 0.74750  0.67830  0.42960  Biso   1.000  C
  H125     1.0000 0.75060  0.67720  0.46930  Biso   1.000  H
  C256     1.0000 0.80260  0.69710  0.34060  Biso   1.000  C
  H126     1.0000 0.84430  0.71100  0.32010  Biso   1.000  H
  C257     1.0000 0.81210  0.69450  0.40010  Biso   1.000  C
  C258     1.0000 0.88910  0.70650  0.42960  Biso   1.000  C
  C259     1.0000 0.46120  0.46300  0.23120  Biso   1.000  C
  C260     1.0000 0.52750  0.47060  0.27430  Biso   1.000  C
  C261     1.0000 0.51630  0.48310  0.33200  Biso   1.000  C
  H127     1.0000 0.46680  0.48450  0.34580  Biso   1.000  H
  C262     1.0000 0.60260  0.46970  0.25630  Biso   1.000  C
  H128     1.0000 0.61070  0.46230  0.21790  Biso   1.000  H
  C263     1.0000 0.57800  0.49320  0.36760  Biso   1.000  C
  H129     1.0000 0.57090  0.50050  0.40620  Biso   1.000  H
  C264     1.0000 0.65190  0.49260  0.34690  Biso   1.000  C
  C265     1.0000 0.72320  0.50780  0.38240  Biso   1.000  C
  C266     1.0000 0.72560  0.50790  0.44270  Biso   1.000  C
  H130     1.0000 0.68200  0.49750  0.46260  Biso   1.000  H
  C267     1.0000 0.79170  0.52330  0.47100  Biso   1.000  C
  H131     1.0000 0.79440  0.52190  0.51080  Biso   1.000  H
  C268     1.0000 0.84940  0.53930  0.38220  Biso   1.000  C
  H132     1.0000 0.89260  0.55020  0.36190  Biso   1.000  H
  C269     1.0000 0.85540  0.54090  0.44160  Biso   1.000  C
  C270     1.0000 0.92630  0.56750  0.47110  Biso   1.000  C
  C271     1.0000 0.91790  0.56740  0.69240  Biso   1.000  C
  C272     1.0000 0.97990  0.54860  0.73410  Biso   1.000  C
  C273     1.0000 0.94310  0.45200  0.28180  Biso   1.000  C
  H133     1.0000 0.93290  0.44140  0.31930  Biso   1.000  H
  C274     1.0000 0.96580  0.53110  0.78990  Biso   1.000  C
  H134     1.0000 0.91570  0.52930  0.80240  Biso   1.000  H
  C275     1.0000 0.02740  0.51630  0.82650  Biso   1.000  C
  H135     1.0000 0.01850  0.50630  0.86440  Biso   1.000  H
  C276     1.0000 0.89990  0.48370  0.19200  Biso   1.000  C
  C277     1.0000 0.83210  0.49770  0.15580  Biso   1.000  C
  C278     1.0000 0.83080  0.49310  0.09570  Biso   1.000  C
  H136     1.0000 0.87480  0.48140  0.07680  Biso   1.000  H
  C279     1.0000 0.76350  0.50640  0.06540  Biso   1.000  C
  H137     1.0000 0.76150  0.50320  0.02580  Biso   1.000  H
  C280     1.0000 0.70550  0.52980  0.15180  Biso   1.000  C
  H138     1.0000 0.66200  0.54340  0.17040  Biso   1.000  H
  C281     1.0000 0.70080  0.52400  0.09310  Biso   1.000  C
  C282     1.0000 0.37660  0.46590  0.93900  Biso   1.000  C
  C283     1.0000 0.09900  0.79350  0.30070  Biso   1.000  C
  C284     1.0000 0.03540  0.80000  0.25550  Biso   1.000  C
  C285     1.0000 0.95980  0.79570  0.27260  Biso   1.000  C
  H139     1.0000 0.95130  0.78570  0.31050  Biso   1.000  H
  C286     1.0000 0.04660  0.81260  0.19960  Biso   1.000  C
  H140     1.0000 0.09650  0.81610  0.18680  Biso   1.000  H
  C287     1.0000 0.98690  0.82010  0.16240  Biso   1.000  C
  H141     1.0000 0.99570  0.82630  0.12380  Biso   1.000  H
  C288     1.0000 0.91390  0.81860  0.18060  Biso   1.000  C
  C289     1.0000 0.84470  0.83080  0.14500  Biso   1.000  C
  C290     1.0000 0.84530  0.82880  0.08460  Biso   1.000  C
  H142     1.0000 0.89040  0.81910  0.06610  Biso   1.000  H
  C291     1.0000 0.77850  0.84120  0.05350  Biso   1.000  C
  H143     1.0000 0.77790  0.83860  0.01380  Biso   1.000  H
  C292     1.0000 0.71750  0.86090  0.13990  Biso   1.000  C
  H144     1.0000 0.67360  0.87350  0.15850  Biso   1.000  H
  C293     1.0000 0.71320  0.85720  0.08070  Biso   1.000  C
  C294     1.0000 0.13780  0.63400  0.54960  Biso   1.000  C
  C295     1.0000 0.98160  0.71450  0.71380  Biso   1.000  C
  C296     1.0000 0.04410  0.70410  0.75990  Biso   1.000  C
  C297     1.0000 0.62060  0.79720  0.24470  Biso   1.000  C
  H145     1.0000 0.63190  0.78850  0.20700  Biso   1.000  H
  C298     1.0000 0.02840  0.69300  0.81740  Biso   1.000  C
  H146     1.0000 0.97810  0.69520  0.82950  Biso   1.000  H
  C299     1.0000 0.08650  0.67900  0.85530  Biso   1.000  C
  H147     1.0000 0.07620  0.67100  0.89340  Biso   1.000  H
  C300     1.0000 0.66320  0.82320  0.33670  Biso   1.000  C
  C301     1.0000 0.72850  0.83920  0.37350  Biso   1.000  C
  C302     1.0000 0.72700  0.83530  0.43410  Biso   1.000  C
  H148     1.0000 0.68290  0.82190  0.45200  Biso   1.000  H
  C303     1.0000 0.79160  0.85180  0.46530  Biso   1.000  C
  H149     1.0000 0.79140  0.84950  0.50500  Biso   1.000  H
  C304     1.0000 0.85560  0.87220  0.38040  Biso   1.000  C
  H150     1.0000 0.90010  0.88420  0.36230  Biso   1.000  H
  C305     1.0000 0.85760  0.87160  0.43920  Biso   1.000  C
  C306     1.0000 0.42560  0.60250  0.97290  Biso   1.000  C
  C307     1.0000 0.24430  0.48760  0.11560  Biso   1.000  C
  C308     1.0000 0.16860  0.49280  0.08370  Biso   1.000  C
  C309     1.0000 0.12570  0.43910  0.07000  Biso   1.000  C
  H151     1.0000 0.14220  0.39980  0.08380  Biso   1.000  H
  C310     1.0000 0.03490  0.49790  0.01680  Biso   1.000  C
  C311     1.0000 0.92850  0.45230  0.96960  Biso   1.000  C
  C312     1.0000 0.14280  0.55000  0.06260  Biso   1.000  C
  H152     1.0000 0.16980  0.58770  0.06890  Biso   1.000  H
