data_image0
_cell_length_a       26.939
_cell_length_b       12.335
_cell_length_c       33.458
_cell_angle_alpha    90
_cell_angle_beta     90
_cell_angle_gamma    90

_symmetry_space_group_name_H-M    "P 1"
_symmetry_int_tables_number       1

loop_
  _symmetry_equiv_pos_as_xyz
  'x, y, z'

loop_
  _atom_site_label
  _atom_site_occupancy
  _atom_site_fract_x
  _atom_site_fract_y
  _atom_site_fract_z
  _atom_site_thermal_displace_type
  _atom_site_B_iso_or_equiv
  _atom_site_type_symbol
  Ag1      1.0000 0.77889  0.26124  0.63987  Biso   1.000  Ag
  Fe1      1.0000 0.43123  0.47744  0.61377  Biso   1.000  Fe
  C1       1.0000 0.48830  0.66490  0.64419  Biso   1.000  C
  H1       1.0000 0.46000  0.71070  0.64400  Biso   1.000  H
  C2       1.0000 0.53540  0.69760  0.65820  Biso   1.000  C
  H2       1.0000 0.54410  0.76610  0.66910  Biso   1.000  H
  C3       1.0000 0.56520  0.61190  0.65300  Biso   1.000  C
  H3       1.0000 0.59960  0.60910  0.65920  Biso   1.000  H
  C4       1.0000 0.53670  0.52600  0.63676  Biso   1.000  C
  C5       1.0000 0.55250  0.42100  0.62579  Biso   1.000  C
  C6       1.0000 0.52390  0.34300  0.60873  Biso   1.000  C
  C7       1.0000 0.53910  0.23690  0.59610  Biso   1.000  C
  H4       1.0000 0.57150  0.20690  0.59790  Biso   1.000  H
  C8       1.0000 0.49700  0.18670  0.58080  Biso   1.000  C
  H5       1.0000 0.49480  0.11530  0.57030  Biso   1.000  H
  C9       1.0000 0.45910  0.26130  0.58390  Biso   1.000  C
  H6       1.0000 0.42620  0.24710  0.57510  Biso   1.000  H
  C10      1.0000 0.60580  0.39480  0.63340  Biso   1.000  C
  C11      1.0000 0.61920  0.31760  0.66072  Biso   1.000  C
  H7       1.0000 0.59470  0.28220  0.67640  Biso   1.000  H
  C12      1.0000 0.66780  0.29190  0.66528  Biso   1.000  C
  H8       1.0000 0.67620  0.23840  0.68460  Biso   1.000  H
  C13      1.0000 0.69130  0.41580  0.61900  Biso   1.000  C
  H9       1.0000 0.71690  0.45250  0.60500  Biso   1.000  H
  C14      1.0000 0.64410  0.44690  0.61190  Biso   1.000  C
  H10      1.0000 0.63680  0.50220  0.59300  Biso   1.000  H
  C15      1.0000 0.97080  0.89810  0.45432  Biso   1.000  C
  H11      1.0000 0.99330  0.85900  0.43790  Biso   1.000  H
  C16      1.0000 0.96610  0.88520  0.49590  Biso   1.000  C
  H12      1.0000 0.98420  0.83580  0.51210  Biso   1.000  H
  C17      1.0000 0.93180  0.95470  0.50850  Biso   1.000  C
  H13      1.0000 0.92130  0.96550  0.53530  Biso   1.000  H
  C18      1.0000 0.91390  0.00910  0.47450  Biso   1.000  C
  C19      1.0000 0.87330  0.08630  0.47210  Biso   1.000  C
  C20      1.0000 0.85380  0.12550  0.43770  Biso   1.000  C
  C21      1.0000 0.81150  0.19670  0.43370  Biso   1.000  C
  H14      1.0000 0.79240  0.22740  0.45480  Biso   1.000  H
  C22      1.0000 0.80440  0.21110  0.39380  Biso   1.000  C
  H15      1.0000 0.77870  0.25150  0.38140  Biso   1.000  H
  C23      1.0000 0.84310  0.15370  0.37430  Biso   1.000  C
  H16      1.0000 0.84780  0.15180  0.34620  Biso   1.000  H
  C24      1.0000 0.85150  0.12030  0.51064  Biso   1.000  C
  C25      1.0000 0.88070  0.18760  0.53750  Biso   1.000  C
  H17      1.0000 0.91420  0.20540  0.53140  Biso   1.000  H
  C26      1.0000 0.85880  0.22500  0.57220  Biso   1.000  C
  H18      1.0000 0.87830  0.26690  0.59010  Biso   1.000  H
  C27      1.0000 0.78570  0.13760  0.55750  Biso   1.000  C
  H19      1.0000 0.75300  0.11790  0.56510  Biso   1.000  H
  C28      1.0000 0.80412  0.09600  0.52260  Biso   1.000  C
  H20      1.0000 0.78400  0.05000  0.50660  Biso   1.000  H
  C29      1.0000 0.86830  0.16750  0.90100  Biso   1.000  C
  H21      1.0000 0.87540  0.16590  0.92880  Biso   1.000  H
  C30      1.0000 0.83700  0.24310  0.88280  Biso   1.000  C
  H22      1.0000 0.81870  0.29950  0.89530  Biso   1.000  H
  C31      1.0000 0.83850  0.21800  0.84260  Biso   1.000  C
  H23      1.0000 0.82080  0.25390  0.82190  Biso   1.000  H
  C32      1.0000 0.87110  0.12940  0.83780  Biso   1.000  C
  C33      1.0000 0.88130  0.07390  0.80230  Biso   1.000  C
  C34      1.0000 0.90800  0.98010  0.79920  Biso   1.000  C
  C35      1.0000 0.91610  0.91840  0.76360  Biso   1.000  C
  H24      1.0000 0.90530  0.93590  0.73730  Biso   1.000  H
  C36      1.0000 0.94270  0.82840  0.77510  Biso   1.000  C
  H25      1.0000 0.95520  0.77290  0.75820  Biso   1.000  H
  C37      1.0000 0.94790  0.83470  0.81670  Biso   1.000  C
  H26      1.0000 0.96410  0.78130  0.83250  Biso   1.000  H
  C38      1.0000 0.85850  0.12090  0.76450  Biso   1.000  C
  C39      1.0000 0.82150  0.05960  0.74360  Biso   1.000  C
  H27      1.0000 0.81140  0.99020  0.75280  Biso   1.000  H
  C40      1.0000 0.80110  0.10450  0.70960  Biso   1.000  C
  H28      1.0000 0.77560  0.06610  0.69600  Biso   1.000  H
  C41      1.0000 0.85010  0.25830  0.71480  Biso   1.000  C
  H29      1.0000 0.85930  0.32690  0.70420  Biso   1.000  H
  C42      1.0000 0.87250  0.22110  0.75020  Biso   1.000  C
  H30      1.0000 0.89660  0.26360  0.76380  Biso   1.000  H
  N1       1.0000 0.48802  0.56300  0.63123  Biso   1.000  N
  N2       1.0000 0.47287  0.35570  0.60028  Biso   1.000  N
  N3       1.0000 0.70480  0.33720  0.64432  Biso   1.000  N
  N4       1.0000 0.93912  0.97350  0.44143  Biso   1.000  N
  N5       1.0000 0.87147  0.10370  0.40012  Biso   1.000  N
  N6       1.0000 0.81114  0.20500  0.58192  Biso   1.000  N
  N7       1.0000 0.88714  0.09720  0.87432  Biso   1.000  N
  N8       1.0000 0.92802  0.92140  0.83121  Biso   1.000  N
  N9       1.0000 0.81540  0.19740  0.69556  Biso   1.000  N
  Co1      1.0000 0.93123  0.02256  0.38623  Biso   1.000  Co
  Ag2      1.0000 0.27889  0.23876  0.36013  Biso   1.000  Ag
  C43      1.0000 0.98830  0.83510  0.35581  Biso   1.000  C
  H31      1.0000 0.96000  0.78930  0.35600  Biso   1.000  H
  C44      1.0000 0.03540  0.80240  0.34180  Biso   1.000  C
  H32      1.0000 0.04410  0.73390  0.33090  Biso   1.000  H
  C45      1.0000 0.06520  0.88810  0.34700  Biso   1.000  C
  H33      1.0000 0.09960  0.89090  0.34080  Biso   1.000  H
  C46      1.0000 0.03670  0.97400  0.36324  Biso   1.000  C
  C47      1.0000 0.05250  0.07900  0.37421  Biso   1.000  C
  C48      1.0000 0.02390  0.15700  0.39127  Biso   1.000  C
  C49      1.0000 0.03910  0.26310  0.40390  Biso   1.000  C
  H34      1.0000 0.07150  0.29310  0.40210  Biso   1.000  H
  C50      1.0000 0.99700  0.31330  0.41920  Biso   1.000  C
  H35      1.0000 0.99480  0.38470  0.42970  Biso   1.000  H
  C51      1.0000 0.95910  0.23870  0.41610  Biso   1.000  C
  H36      1.0000 0.92620  0.25290  0.42490  Biso   1.000  H
  C52      1.0000 0.10580  0.10520  0.36660  Biso   1.000  C
  C53      1.0000 0.11920  0.18240  0.33928  Biso   1.000  C
  H37      1.0000 0.09470  0.21780  0.32360  Biso   1.000  H
  C54      1.0000 0.16780  0.20810  0.33472  Biso   1.000  C
  H38      1.0000 0.17620  0.26160  0.31540  Biso   1.000  H
  C55      1.0000 0.19130  0.08420  0.38100  Biso   1.000  C
  H39      1.0000 0.21690  0.04750  0.39500  Biso   1.000  H
  C56      1.0000 0.14410  0.05310  0.38810  Biso   1.000  C
  H40      1.0000 0.13680  0.99780  0.40700  Biso   1.000  H
  C57      1.0000 0.47080  0.60190  0.54568  Biso   1.000  C
  H41      1.0000 0.49330  0.64100  0.56210  Biso   1.000  H
  C58      1.0000 0.46610  0.61480  0.50410  Biso   1.000  C
  H42      1.0000 0.48420  0.66420  0.48790  Biso   1.000  H
  C59      1.0000 0.43180  0.54530  0.49150  Biso   1.000  C
  H43      1.0000 0.42130  0.53450  0.46470  Biso   1.000  H
  C60      1.0000 0.41390  0.49090  0.52550  Biso   1.000  C
  C61      1.0000 0.37330  0.41370  0.52790  Biso   1.000  C
  C62      1.0000 0.35380  0.37450  0.56230  Biso   1.000  C
  C63      1.0000 0.31150  0.30330  0.56630  Biso   1.000  C
  H44      1.0000 0.29240  0.27260  0.54520  Biso   1.000  H
  C64      1.0000 0.30440  0.28890  0.60620  Biso   1.000  C
  H45      1.0000 0.27870  0.24850  0.61860  Biso   1.000  H
  C65      1.0000 0.34310  0.34630  0.62570  Biso   1.000  C
  H46      1.0000 0.34780  0.34820  0.65380  Biso   1.000  H
  C66      1.0000 0.35150  0.37970  0.48936  Biso   1.000  C
  C67      1.0000 0.38070  0.31240  0.46250  Biso   1.000  C
  H47      1.0000 0.41420  0.29460  0.46860  Biso   1.000  H
  C68      1.0000 0.35880  0.27500  0.42780  Biso   1.000  C
  H48      1.0000 0.37830  0.23310  0.40990  Biso   1.000  H
  C69      1.0000 0.28570  0.36240  0.44250  Biso   1.000  C
  H49      1.0000 0.25300  0.38210  0.43490  Biso   1.000  H
  C70      1.0000 0.30412  0.40400  0.47740  Biso   1.000  C
  H50      1.0000 0.28400  0.45000  0.49340  Biso   1.000  H
  C71      1.0000 0.36830  0.33250  0.09900  Biso   1.000  C
  H51      1.0000 0.37540  0.33410  0.07120  Biso   1.000  H
  C72      1.0000 0.33700  0.25690  0.11720  Biso   1.000  C
  H52      1.0000 0.31870  0.20050  0.10470  Biso   1.000  H
  C73      1.0000 0.33850  0.28200  0.15740  Biso   1.000  C
  H53      1.0000 0.32080  0.24610  0.17810  Biso   1.000  H
  C74      1.0000 0.37110  0.37060  0.16220  Biso   1.000  C
  C75      1.0000 0.38130  0.42610  0.19770  Biso   1.000  C
  C76      1.0000 0.40800  0.51990  0.20080  Biso   1.000  C
  C77      1.0000 0.41610  0.58160  0.23640  Biso   1.000  C
  H54      1.0000 0.40530  0.56410  0.26270  Biso   1.000  H
  C78      1.0000 0.44270  0.67160  0.22490  Biso   1.000  C
  H55      1.0000 0.45520  0.72710  0.24180  Biso   1.000  H
  C79      1.0000 0.44790  0.66530  0.18330  Biso   1.000  C
  H56      1.0000 0.46410  0.71870  0.16750  Biso   1.000  H
  C80      1.0000 0.35850  0.37910  0.23550  Biso   1.000  C
  C81      1.0000 0.32150  0.44040  0.25640  Biso   1.000  C
  H57      1.0000 0.31140  0.50980  0.24720  Biso   1.000  H
  C82      1.0000 0.30110  0.39550  0.29040  Biso   1.000  C
  H58      1.0000 0.27560  0.43390  0.30400  Biso   1.000  H
  C83      1.0000 0.35010  0.24170  0.28520  Biso   1.000  C
  H59      1.0000 0.35930  0.17310  0.29580  Biso   1.000  H
  C84      1.0000 0.37250  0.27890  0.24980  Biso   1.000  C
  H60      1.0000 0.39660  0.23640  0.23620  Biso   1.000  H
  N10      1.0000 0.98802  0.93700  0.36877  Biso   1.000  N
  N11      1.0000 0.97287  0.14430  0.39972  Biso   1.000  N
  N12      1.0000 0.20480  0.16280  0.35568  Biso   1.000  N
  N13      1.0000 0.43912  0.52650  0.55857  Biso   1.000  N
  N14      1.0000 0.37147  0.39630  0.59988  Biso   1.000  N
  N15      1.0000 0.31114  0.29500  0.41808  Biso   1.000  N
  N16      1.0000 0.38714  0.40280  0.12568  Biso   1.000  N
  N17      1.0000 0.42802  0.57860  0.16879  Biso   1.000  N
  N18      1.0000 0.31540  0.30260  0.30444  Biso   1.000  N
  Ag3      1.0000 0.27889  0.76124  0.86013  Biso   1.000  Ag
  Fe2      1.0000 0.93123  0.97744  0.88623  Biso   1.000  Fe
  C85      1.0000 0.98830  0.16490  0.85581  Biso   1.000  C
  H61      1.0000 0.96000  0.21070  0.85600  Biso   1.000  H
  C86      1.0000 0.03540  0.19760  0.84180  Biso   1.000  C
  H62      1.0000 0.04410  0.26610  0.83090  Biso   1.000  H
  C87      1.0000 0.06520  0.11190  0.84700  Biso   1.000  C
  H63      1.0000 0.09960  0.10910  0.84080  Biso   1.000  H
  C88      1.0000 0.03670  0.02600  0.86324  Biso   1.000  C
  C89      1.0000 0.05250  0.92100  0.87421  Biso   1.000  C
  C90      1.0000 0.02390  0.84300  0.89127  Biso   1.000  C
  C91      1.0000 0.03910  0.73690  0.90390  Biso   1.000  C
  H64      1.0000 0.07150  0.70690  0.90210  Biso   1.000  H
  C92      1.0000 0.99700  0.68670  0.91920  Biso   1.000  C
  H65      1.0000 0.99480  0.61530  0.92970  Biso   1.000  H
  C93      1.0000 0.95910  0.76130  0.91610  Biso   1.000  C
  H66      1.0000 0.92620  0.74710  0.92490  Biso   1.000  H
  C94      1.0000 0.10580  0.89480  0.86660  Biso   1.000  C
  C95      1.0000 0.11920  0.81760  0.83928  Biso   1.000  C
  H67      1.0000 0.09470  0.78220  0.82360  Biso   1.000  H
  C96      1.0000 0.16780  0.79190  0.83472  Biso   1.000  C
  H68      1.0000 0.17620  0.73840  0.81540  Biso   1.000  H
  C97      1.0000 0.19130  0.91580  0.88100  Biso   1.000  C
  H69      1.0000 0.21690  0.95250  0.89500  Biso   1.000  H
  C98      1.0000 0.14410  0.94690  0.88810  Biso   1.000  C
  H70      1.0000 0.13680  0.00220  0.90700  Biso   1.000  H
  C99      1.0000 0.47080  0.39810  0.04568  Biso   1.000  C
  H71      1.0000 0.49330  0.35900  0.06210  Biso   1.000  H
  C100     1.0000 0.46610  0.38520  0.00410  Biso   1.000  C
  H72      1.0000 0.48420  0.33580  0.98790  Biso   1.000  H
  C101     1.0000 0.43180  0.45470  0.99150  Biso   1.000  C
  H73      1.0000 0.42130  0.46550  0.96470  Biso   1.000  H
  C102     1.0000 0.41390  0.50910  0.02550  Biso   1.000  C
  C103     1.0000 0.37330  0.58630  0.02790  Biso   1.000  C
  C104     1.0000 0.35380  0.62550  0.06230  Biso   1.000  C
  C105     1.0000 0.31150  0.69670  0.06630  Biso   1.000  C
  H74      1.0000 0.29240  0.72740  0.04520  Biso   1.000  H
  C106     1.0000 0.30440  0.71110  0.10620  Biso   1.000  C
  H75      1.0000 0.27870  0.75150  0.11860  Biso   1.000  H
  C107     1.0000 0.34310  0.65370  0.12570  Biso   1.000  C
  H76      1.0000 0.34780  0.65180  0.15380  Biso   1.000  H
  C108     1.0000 0.35150  0.62030  0.98936  Biso   1.000  C
  C109     1.0000 0.38070  0.68760  0.96250  Biso   1.000  C
  H77      1.0000 0.41420  0.70540  0.96860  Biso   1.000  H
  C110     1.0000 0.35880  0.72500  0.92780  Biso   1.000  C
  H78      1.0000 0.37830  0.76690  0.90990  Biso   1.000  H
  C111     1.0000 0.28570  0.63760  0.94250  Biso   1.000  C
  H79      1.0000 0.25300  0.61790  0.93490  Biso   1.000  H
  C112     1.0000 0.30412  0.59600  0.97740  Biso   1.000  C
  H80      1.0000 0.28400  0.55000  0.99340  Biso   1.000  H
  C113     1.0000 0.36830  0.66750  0.59900  Biso   1.000  C
  H81      1.0000 0.37540  0.66590  0.57120  Biso   1.000  H
  C114     1.0000 0.33700  0.74310  0.61720  Biso   1.000  C
  H82      1.0000 0.31870  0.79950  0.60470  Biso   1.000  H
  C115     1.0000 0.33850  0.71800  0.65740  Biso   1.000  C
  H83      1.0000 0.32080  0.75390  0.67810  Biso   1.000  H
  C116     1.0000 0.37110  0.62940  0.66220  Biso   1.000  C
  C117     1.0000 0.38130  0.57390  0.69770  Biso   1.000  C
  C118     1.0000 0.40800  0.48010  0.70080  Biso   1.000  C
  C119     1.0000 0.41610  0.41840  0.73640  Biso   1.000  C
  H84      1.0000 0.40530  0.43590  0.76270  Biso   1.000  H
  C120     1.0000 0.44270  0.32840  0.72490  Biso   1.000  C
  H85      1.0000 0.45520  0.27290  0.74180  Biso   1.000  H
  C121     1.0000 0.44790  0.33470  0.68330  Biso   1.000  C
  H86      1.0000 0.46410  0.28130  0.66750  Biso   1.000  H
  C122     1.0000 0.35850  0.62090  0.73550  Biso   1.000  C
  C123     1.0000 0.32150  0.55960  0.75640  Biso   1.000  C
  H87      1.0000 0.31140  0.49020  0.74720  Biso   1.000  H
  C124     1.0000 0.30110  0.60450  0.79040  Biso   1.000  C
  H88      1.0000 0.27560  0.56610  0.80400  Biso   1.000  H
  C125     1.0000 0.35010  0.75830  0.78520  Biso   1.000  C
  H89      1.0000 0.35930  0.82690  0.79580  Biso   1.000  H
  C126     1.0000 0.37250  0.72110  0.74980  Biso   1.000  C
  H90      1.0000 0.39660  0.76360  0.73620  Biso   1.000  H
  N19      1.0000 0.98802  0.06300  0.86877  Biso   1.000  N
  N20      1.0000 0.97287  0.85570  0.89972  Biso   1.000  N
  N21      1.0000 0.20480  0.83720  0.85568  Biso   1.000  N
  N22      1.0000 0.43912  0.47350  0.05857  Biso   1.000  N
  N23      1.0000 0.37147  0.60370  0.09988  Biso   1.000  N
  N24      1.0000 0.31114  0.70500  0.91808  Biso   1.000  N
  N25      1.0000 0.38714  0.59720  0.62568  Biso   1.000  N
  N26      1.0000 0.42802  0.42140  0.66879  Biso   1.000  N
  N27      1.0000 0.31540  0.69740  0.80444  Biso   1.000  N
  Co2      1.0000 0.43123  0.52256  0.11377  Biso   1.000  Co
  Ag4      1.0000 0.77889  0.73876  0.13987  Biso   1.000  Ag
  C127     1.0000 0.48830  0.33510  0.14419  Biso   1.000  C
  H91      1.0000 0.46000  0.28930  0.14400  Biso   1.000  H
  C128     1.0000 0.53540  0.30240  0.15820  Biso   1.000  C
  H92      1.0000 0.54410  0.23390  0.16910  Biso   1.000  H
  C129     1.0000 0.56520  0.38810  0.15300  Biso   1.000  C
  H93      1.0000 0.59960  0.39090  0.15920  Biso   1.000  H
  C130     1.0000 0.53670  0.47400  0.13676  Biso   1.000  C
  C131     1.0000 0.55250  0.57900  0.12579  Biso   1.000  C
  C132     1.0000 0.52390  0.65700  0.10873  Biso   1.000  C
  C133     1.0000 0.53910  0.76310  0.09610  Biso   1.000  C
  H94      1.0000 0.57150  0.79310  0.09790  Biso   1.000  H
  C134     1.0000 0.49700  0.81330  0.08080  Biso   1.000  C
  H95      1.0000 0.49480  0.88470  0.07030  Biso   1.000  H
  C135     1.0000 0.45910  0.73870  0.08390  Biso   1.000  C
  H96      1.0000 0.42620  0.75290  0.07510  Biso   1.000  H
  C136     1.0000 0.60580  0.60520  0.13340  Biso   1.000  C
  C137     1.0000 0.61920  0.68240  0.16072  Biso   1.000  C
  H97      1.0000 0.59470  0.71780  0.17640  Biso   1.000  H
  C138     1.0000 0.66780  0.70810  0.16528  Biso   1.000  C
  H98      1.0000 0.67620  0.76160  0.18460  Biso   1.000  H
  C139     1.0000 0.69130  0.58420  0.11900  Biso   1.000  C
  H99      1.0000 0.71690  0.54750  0.10500  Biso   1.000  H
  C140     1.0000 0.64410  0.55310  0.11190  Biso   1.000  C
  H100     1.0000 0.63680  0.49780  0.09300  Biso   1.000  H
  C141     1.0000 0.97080  0.10190  0.95432  Biso   1.000  C
  H101     1.0000 0.99330  0.14100  0.93790  Biso   1.000  H
  C142     1.0000 0.96610  0.11480  0.99590  Biso   1.000  C
  H102     1.0000 0.98420  0.16420  0.01210  Biso   1.000  H
  C143     1.0000 0.93180  0.04530  0.00850  Biso   1.000  C
  H103     1.0000 0.92130  0.03450  0.03530  Biso   1.000  H
  C144     1.0000 0.91390  0.99090  0.97450  Biso   1.000  C
  C145     1.0000 0.87330  0.91370  0.97210  Biso   1.000  C
  C146     1.0000 0.85380  0.87450  0.93770  Biso   1.000  C
  C147     1.0000 0.81150  0.80330  0.93370  Biso   1.000  C
  H104     1.0000 0.79240  0.77260  0.95480  Biso   1.000  H
  C148     1.0000 0.80440  0.78890  0.89380  Biso   1.000  C
  H105     1.0000 0.77870  0.74850  0.88140  Biso   1.000  H
  C149     1.0000 0.84310  0.84630  0.87430  Biso   1.000  C
  H106     1.0000 0.84780  0.84820  0.84620  Biso   1.000  H
  C150     1.0000 0.85150  0.87970  0.01064  Biso   1.000  C
  C151     1.0000 0.88070  0.81240  0.03750  Biso   1.000  C
  H107     1.0000 0.91420  0.79460  0.03140  Biso   1.000  H
  C152     1.0000 0.85880  0.77500  0.07220  Biso   1.000  C
  H108     1.0000 0.87830  0.73310  0.09010  Biso   1.000  H
  C153     1.0000 0.78570  0.86240  0.05750  Biso   1.000  C
  H109     1.0000 0.75300  0.88210  0.06510  Biso   1.000  H
  C154     1.0000 0.80412  0.90400  0.02260  Biso   1.000  C
  H110     1.0000 0.78400  0.95000  0.00660  Biso   1.000  H
  C155     1.0000 0.86830  0.83250  0.40100  Biso   1.000  C
  H111     1.0000 0.87540  0.83410  0.42880  Biso   1.000  H
  C156     1.0000 0.83700  0.75690  0.38280  Biso   1.000  C
  H112     1.0000 0.81870  0.70050  0.39530  Biso   1.000  H
  C157     1.0000 0.83850  0.78200  0.34260  Biso   1.000  C
  H113     1.0000 0.82080  0.74610  0.32190  Biso   1.000  H
  C158     1.0000 0.87110  0.87060  0.33780  Biso   1.000  C
  C159     1.0000 0.88130  0.92610  0.30230  Biso   1.000  C
  C160     1.0000 0.90800  0.01990  0.29920  Biso   1.000  C
  C161     1.0000 0.91610  0.08160  0.26360  Biso   1.000  C
  H114     1.0000 0.90530  0.06410  0.23730  Biso   1.000  H
  C162     1.0000 0.94270  0.17160  0.27510  Biso   1.000  C
  H115     1.0000 0.95520  0.22710  0.25820  Biso   1.000  H
  C163     1.0000 0.94790  0.16530  0.31670  Biso   1.000  C
  H116     1.0000 0.96410  0.21870  0.33250  Biso   1.000  H
  C164     1.0000 0.85850  0.87910  0.26450  Biso   1.000  C
  C165     1.0000 0.82150  0.94040  0.24360  Biso   1.000  C
  H117     1.0000 0.81140  0.00980  0.25280  Biso   1.000  H
  C166     1.0000 0.80110  0.89550  0.20960  Biso   1.000  C
  H118     1.0000 0.77560  0.93390  0.19600  Biso   1.000  H
  C167     1.0000 0.85010  0.74170  0.21480  Biso   1.000  C
  H119     1.0000 0.85930  0.67310  0.20420  Biso   1.000  H
  C168     1.0000 0.87250  0.77890  0.25020  Biso   1.000  C
  H120     1.0000 0.89660  0.73640  0.26380  Biso   1.000  H
  N28      1.0000 0.48802  0.43700  0.13123  Biso   1.000  N
  N29      1.0000 0.47287  0.64430  0.10028  Biso   1.000  N
  N30      1.0000 0.70480  0.66280  0.14432  Biso   1.000  N
  N31      1.0000 0.93912  0.02650  0.94143  Biso   1.000  N
  N32      1.0000 0.87147  0.89630  0.90012  Biso   1.000  N
  N33      1.0000 0.81114  0.79500  0.08192  Biso   1.000  N
  N34      1.0000 0.88714  0.90280  0.37432  Biso   1.000  N
  N35      1.0000 0.92802  0.07860  0.33121  Biso   1.000  N
  N36      1.0000 0.81540  0.80260  0.19556  Biso   1.000  N
  Ag5      1.0000 0.72111  0.23876  0.13987  Biso   1.000  Ag
  Fe3      1.0000 0.06877  0.02256  0.11377  Biso   1.000  Fe
  C169     1.0000 0.01170  0.83510  0.14419  Biso   1.000  C
  H121     1.0000 0.04000  0.78930  0.14400  Biso   1.000  H
  C170     1.0000 0.96460  0.80240  0.15820  Biso   1.000  C
  H122     1.0000 0.95590  0.73390  0.16910  Biso   1.000  H
  C171     1.0000 0.93480  0.88810  0.15300  Biso   1.000  C
  H123     1.0000 0.90040  0.89090  0.15920  Biso   1.000  H
  C172     1.0000 0.96330  0.97400  0.13676  Biso   1.000  C
  C173     1.0000 0.94750  0.07900  0.12579  Biso   1.000  C
  C174     1.0000 0.97610  0.15700  0.10873  Biso   1.000  C
  C175     1.0000 0.96090  0.26310  0.09610  Biso   1.000  C
  H124     1.0000 0.92850  0.29310  0.09790  Biso   1.000  H
  C176     1.0000 0.00300  0.31330  0.08080  Biso   1.000  C
  H125     1.0000 0.00520  0.38470  0.07030  Biso   1.000  H
  C177     1.0000 0.04090  0.23870  0.08390  Biso   1.000  C
  H126     1.0000 0.07380  0.25290  0.07510  Biso   1.000  H
  C178     1.0000 0.89420  0.10520  0.13340  Biso   1.000  C
  C179     1.0000 0.88080  0.18240  0.16072  Biso   1.000  C
  H127     1.0000 0.90530  0.21780  0.17640  Biso   1.000  H
  C180     1.0000 0.83220  0.20810  0.16528  Biso   1.000  C
  H128     1.0000 0.82380  0.26160  0.18460  Biso   1.000  H
  C181     1.0000 0.80870  0.08420  0.11900  Biso   1.000  C
  H129     1.0000 0.78310  0.04750  0.10500  Biso   1.000  H
  C182     1.0000 0.85590  0.05310  0.11190  Biso   1.000  C
  H130     1.0000 0.86320  0.99780  0.09300  Biso   1.000  H
  C183     1.0000 0.52920  0.60190  0.95432  Biso   1.000  C
  H131     1.0000 0.50670  0.64100  0.93790  Biso   1.000  H
  C184     1.0000 0.53390  0.61480  0.99590  Biso   1.000  C
  H132     1.0000 0.51580  0.66420  0.01210  Biso   1.000  H
  C185     1.0000 0.56820  0.54530  0.00850  Biso   1.000  C
  H133     1.0000 0.57870  0.53450  0.03530  Biso   1.000  H
  C186     1.0000 0.58610  0.49090  0.97450  Biso   1.000  C
  C187     1.0000 0.62670  0.41370  0.97210  Biso   1.000  C
  C188     1.0000 0.64620  0.37450  0.93770  Biso   1.000  C
  C189     1.0000 0.68850  0.30330  0.93370  Biso   1.000  C
  H134     1.0000 0.70760  0.27260  0.95480  Biso   1.000  H
  C190     1.0000 0.69560  0.28890  0.89380  Biso   1.000  C
  H135     1.0000 0.72130  0.24850  0.88140  Biso   1.000  H
  C191     1.0000 0.65690  0.34630  0.87430  Biso   1.000  C
  H136     1.0000 0.65220  0.34820  0.84620  Biso   1.000  H
  C192     1.0000 0.64850  0.37970  0.01064  Biso   1.000  C
  C193     1.0000 0.61930  0.31240  0.03750  Biso   1.000  C
  H137     1.0000 0.58580  0.29460  0.03140  Biso   1.000  H
  C194     1.0000 0.64120  0.27500  0.07220  Biso   1.000  C
  H138     1.0000 0.62170  0.23310  0.09010  Biso   1.000  H
  C195     1.0000 0.71430  0.36240  0.05750  Biso   1.000  C
  H139     1.0000 0.74700  0.38210  0.06510  Biso   1.000  H
  C196     1.0000 0.69588  0.40400  0.02260  Biso   1.000  C
  H140     1.0000 0.71600  0.45000  0.00660  Biso   1.000  H
  C197     1.0000 0.63170  0.33250  0.40100  Biso   1.000  C
  H141     1.0000 0.62460  0.33410  0.42880  Biso   1.000  H
  C198     1.0000 0.66300  0.25690  0.38280  Biso   1.000  C
  H142     1.0000 0.68130  0.20050  0.39530  Biso   1.000  H
  C199     1.0000 0.66150  0.28200  0.34260  Biso   1.000  C
  H143     1.0000 0.67920  0.24610  0.32190  Biso   1.000  H
  C200     1.0000 0.62890  0.37060  0.33780  Biso   1.000  C
  C201     1.0000 0.61870  0.42610  0.30230  Biso   1.000  C
  C202     1.0000 0.59200  0.51990  0.29920  Biso   1.000  C
  C203     1.0000 0.58390  0.58160  0.26360  Biso   1.000  C
  H144     1.0000 0.59470  0.56410  0.23730  Biso   1.000  H
  C204     1.0000 0.55730  0.67160  0.27510  Biso   1.000  C
  H145     1.0000 0.54480  0.72710  0.25820  Biso   1.000  H
  C205     1.0000 0.55210  0.66530  0.31670  Biso   1.000  C
  H146     1.0000 0.53590  0.71870  0.33250  Biso   1.000  H
  C206     1.0000 0.64150  0.37910  0.26450  Biso   1.000  C
  C207     1.0000 0.67850  0.44040  0.24360  Biso   1.000  C
  H147     1.0000 0.68860  0.50980  0.25280  Biso   1.000  H
  C208     1.0000 0.69890  0.39550  0.20960  Biso   1.000  C
  H148     1.0000 0.72440  0.43390  0.19600  Biso   1.000  H
  C209     1.0000 0.64990  0.24170  0.21480  Biso   1.000  C
  H149     1.0000 0.64070  0.17310  0.20420  Biso   1.000  H
  C210     1.0000 0.62750  0.27890  0.25020  Biso   1.000  C
  H150     1.0000 0.60340  0.23640  0.26380  Biso   1.000  H
  N37      1.0000 0.01198  0.93700  0.13123  Biso   1.000  N
  N38      1.0000 0.02713  0.14430  0.10028  Biso   1.000  N
  N39      1.0000 0.79520  0.16280  0.14432  Biso   1.000  N
  N40      1.0000 0.56088  0.52650  0.94143  Biso   1.000  N
  N41      1.0000 0.62853  0.39630  0.90012  Biso   1.000  N
  N42      1.0000 0.68886  0.29500  0.08192  Biso   1.000  N
  N43      1.0000 0.61286  0.40280  0.37432  Biso   1.000  N
  N44      1.0000 0.57198  0.57860  0.33121  Biso   1.000  N
  N45      1.0000 0.68460  0.30260  0.19556  Biso   1.000  N
  Co3      1.0000 0.56877  0.47744  0.88623  Biso   1.000  Co
  Ag6      1.0000 0.22111  0.26124  0.86013  Biso   1.000  Ag
  C211     1.0000 0.51170  0.66490  0.85581  Biso   1.000  C
  H151     1.0000 0.54000  0.71070  0.85600  Biso   1.000  H
  C212     1.0000 0.46460  0.69760  0.84180  Biso   1.000  C
  H152     1.0000 0.45590  0.76610  0.83090  Biso   1.000  H
  C213     1.0000 0.43480  0.61190  0.84700  Biso   1.000  C
  H153     1.0000 0.40040  0.60910  0.84080  Biso   1.000  H
  C214     1.0000 0.46330  0.52600  0.86324  Biso   1.000  C
  C215     1.0000 0.44750  0.42100  0.87421  Biso   1.000  C
  C216     1.0000 0.47610  0.34300  0.89127  Biso   1.000  C
  C217     1.0000 0.46090  0.23690  0.90390  Biso   1.000  C
  H154     1.0000 0.42850  0.20690  0.90210  Biso   1.000  H
  C218     1.0000 0.50300  0.18670  0.91920  Biso   1.000  C
  H155     1.0000 0.50520  0.11530  0.92970  Biso   1.000  H
  C219     1.0000 0.54090  0.26130  0.91610  Biso   1.000  C
  H156     1.0000 0.57380  0.24710  0.92490  Biso   1.000  H
  C220     1.0000 0.39420  0.39480  0.86660  Biso   1.000  C
  C221     1.0000 0.38080  0.31760  0.83928  Biso   1.000  C
  H157     1.0000 0.40530  0.28220  0.82360  Biso   1.000  H
  C222     1.0000 0.33220  0.29190  0.83472  Biso   1.000  C
  H158     1.0000 0.32380  0.23840  0.81540  Biso   1.000  H
  C223     1.0000 0.30870  0.41580  0.88100  Biso   1.000  C
  H159     1.0000 0.28310  0.45250  0.89500  Biso   1.000  H
  C224     1.0000 0.35590  0.44690  0.88810  Biso   1.000  C
  H160     1.0000 0.36320  0.50220  0.90700  Biso   1.000  H
  C225     1.0000 0.02920  0.89810  0.04568  Biso   1.000  C
  H161     1.0000 0.00670  0.85900  0.06210  Biso   1.000  H
  C226     1.0000 0.03390  0.88520  0.00410  Biso   1.000  C
  H162     1.0000 0.01580  0.83580  0.98790  Biso   1.000  H
  C227     1.0000 0.06820  0.95470  0.99150  Biso   1.000  C
  H163     1.0000 0.07870  0.96550  0.96470  Biso   1.000  H
  C228     1.0000 0.08610  0.00910  0.02550  Biso   1.000  C
  C229     1.0000 0.12670  0.08630  0.02790  Biso   1.000  C
  C230     1.0000 0.14620  0.12550  0.06230  Biso   1.000  C
  C231     1.0000 0.18850  0.19670  0.06630  Biso   1.000  C
  H164     1.0000 0.20760  0.22740  0.04520  Biso   1.000  H
  C232     1.0000 0.19560  0.21110  0.10620  Biso   1.000  C
  H165     1.0000 0.22130  0.25150  0.11860  Biso   1.000  H
  C233     1.0000 0.15690  0.15370  0.12570  Biso   1.000  C
  H166     1.0000 0.15220  0.15180  0.15380  Biso   1.000  H
  C234     1.0000 0.14850  0.12030  0.98936  Biso   1.000  C
  C235     1.0000 0.11930  0.18760  0.96250  Biso   1.000  C
  H167     1.0000 0.08580  0.20540  0.96860  Biso   1.000  H
  C236     1.0000 0.14120  0.22500  0.92780  Biso   1.000  C
  H168     1.0000 0.12170  0.26690  0.90990  Biso   1.000  H
  C237     1.0000 0.21430  0.13760  0.94250  Biso   1.000  C
  H169     1.0000 0.24700  0.11790  0.93490  Biso   1.000  H
  C238     1.0000 0.19588  0.09600  0.97740  Biso   1.000  C
  H170     1.0000 0.21600  0.05000  0.99340  Biso   1.000  H
  C239     1.0000 0.13170  0.16750  0.59900  Biso   1.000  C
  H171     1.0000 0.12460  0.16590  0.57120  Biso   1.000  H
  C240     1.0000 0.16300  0.24310  0.61720  Biso   1.000  C
  H172     1.0000 0.18130  0.29950  0.60470  Biso   1.000  H
  C241     1.0000 0.16150  0.21800  0.65740  Biso   1.000  C
  H173     1.0000 0.17920  0.25390  0.67810  Biso   1.000  H
  C242     1.0000 0.12890  0.12940  0.66220  Biso   1.000  C
  C243     1.0000 0.11870  0.07390  0.69770  Biso   1.000  C
  C244     1.0000 0.09200  0.98010  0.70080  Biso   1.000  C
  C245     1.0000 0.08390  0.91840  0.73640  Biso   1.000  C
  H174     1.0000 0.09470  0.93590  0.76270  Biso   1.000  H
  C246     1.0000 0.05730  0.82840  0.72490  Biso   1.000  C
  H175     1.0000 0.04480  0.77290  0.74180  Biso   1.000  H
  C247     1.0000 0.05210  0.83470  0.68330  Biso   1.000  C
  H176     1.0000 0.03590  0.78130  0.66750  Biso   1.000  H
  C248     1.0000 0.14150  0.12090  0.73550  Biso   1.000  C
  C249     1.0000 0.17850  0.05960  0.75640  Biso   1.000  C
  H177     1.0000 0.18860  0.99020  0.74720  Biso   1.000  H
  C250     1.0000 0.19890  0.10450  0.79040  Biso   1.000  C
  H178     1.0000 0.22440  0.06610  0.80400  Biso   1.000  H
  C251     1.0000 0.14990  0.25830  0.78520  Biso   1.000  C
  H179     1.0000 0.14070  0.32690  0.79580  Biso   1.000  H
  C252     1.0000 0.12750  0.22110  0.74980  Biso   1.000  C
  H180     1.0000 0.10340  0.26360  0.73620  Biso   1.000  H
  N46      1.0000 0.51198  0.56300  0.86877  Biso   1.000  N
  N47      1.0000 0.52713  0.35570  0.89972  Biso   1.000  N
  N48      1.0000 0.29520  0.33720  0.85568  Biso   1.000  N
  N49      1.0000 0.06088  0.97350  0.05857  Biso   1.000  N
  N50      1.0000 0.12853  0.10370  0.09988  Biso   1.000  N
  N51      1.0000 0.18886  0.20500  0.91808  Biso   1.000  N
  N52      1.0000 0.11286  0.09720  0.62568  Biso   1.000  N
  N53      1.0000 0.07198  0.92140  0.66879  Biso   1.000  N
  N54      1.0000 0.18460  0.19740  0.80444  Biso   1.000  N
  Ag7      1.0000 0.22111  0.73876  0.36013  Biso   1.000  Ag
  Fe4      1.0000 0.56877  0.52256  0.38623  Biso   1.000  Fe
  C253     1.0000 0.51170  0.33510  0.35581  Biso   1.000  C
  H181     1.0000 0.54000  0.28930  0.35600  Biso   1.000  H
  C254     1.0000 0.46460  0.30240  0.34180  Biso   1.000  C
  H182     1.0000 0.45590  0.23390  0.33090  Biso   1.000  H
  C255     1.0000 0.43480  0.38810  0.34700  Biso   1.000  C
  H183     1.0000 0.40040  0.39090  0.34080  Biso   1.000  H
  C256     1.0000 0.46330  0.47400  0.36324  Biso   1.000  C
  C257     1.0000 0.44750  0.57900  0.37421  Biso   1.000  C
  C258     1.0000 0.47610  0.65700  0.39127  Biso   1.000  C
  C259     1.0000 0.46090  0.76310  0.40390  Biso   1.000  C
  H184     1.0000 0.42850  0.79310  0.40210  Biso   1.000  H
  C260     1.0000 0.50300  0.81330  0.41920  Biso   1.000  C
  H185     1.0000 0.50520  0.88470  0.42970  Biso   1.000  H
  C261     1.0000 0.54090  0.73870  0.41610  Biso   1.000  C
  H186     1.0000 0.57380  0.75290  0.42490  Biso   1.000  H
  C262     1.0000 0.39420  0.60520  0.36660  Biso   1.000  C
  C263     1.0000 0.38080  0.68240  0.33928  Biso   1.000  C
  H187     1.0000 0.40530  0.71780  0.32360  Biso   1.000  H
  C264     1.0000 0.33220  0.70810  0.33472  Biso   1.000  C
  H188     1.0000 0.32380  0.76160  0.31540  Biso   1.000  H
  C265     1.0000 0.30870  0.58420  0.38100  Biso   1.000  C
  H189     1.0000 0.28310  0.54750  0.39500  Biso   1.000  H
  C266     1.0000 0.35590  0.55310  0.38810  Biso   1.000  C
  H190     1.0000 0.36320  0.49780  0.40700  Biso   1.000  H
  C267     1.0000 0.02920  0.10190  0.54568  Biso   1.000  C
  H191     1.0000 0.00670  0.14100  0.56210  Biso   1.000  H
  C268     1.0000 0.03390  0.11480  0.50410  Biso   1.000  C
  H192     1.0000 0.01580  0.16420  0.48790  Biso   1.000  H
  C269     1.0000 0.06820  0.04530  0.49150  Biso   1.000  C
  H193     1.0000 0.07870  0.03450  0.46470  Biso   1.000  H
  C270     1.0000 0.08610  0.99090  0.52550  Biso   1.000  C
  C271     1.0000 0.12670  0.91370  0.52790  Biso   1.000  C
  C272     1.0000 0.14620  0.87450  0.56230  Biso   1.000  C
  C273     1.0000 0.18850  0.80330  0.56630  Biso   1.000  C
  H194     1.0000 0.20760  0.77260  0.54520  Biso   1.000  H
  C274     1.0000 0.19560  0.78890  0.60620  Biso   1.000  C
  H195     1.0000 0.22130  0.74850  0.61860  Biso   1.000  H
  C275     1.0000 0.15690  0.84630  0.62570  Biso   1.000  C
  H196     1.0000 0.15220  0.84820  0.65380  Biso   1.000  H
  C276     1.0000 0.14850  0.87970  0.48936  Biso   1.000  C
  C277     1.0000 0.11930  0.81240  0.46250  Biso   1.000  C
  H197     1.0000 0.08580  0.79460  0.46860  Biso   1.000  H
  C278     1.0000 0.14120  0.77500  0.42780  Biso   1.000  C
  H198     1.0000 0.12170  0.73310  0.40990  Biso   1.000  H
  C279     1.0000 0.21430  0.86240  0.44250  Biso   1.000  C
  H199     1.0000 0.24700  0.88210  0.43490  Biso   1.000  H
  C280     1.0000 0.19588  0.90400  0.47740  Biso   1.000  C
  H200     1.0000 0.21600  0.95000  0.49340  Biso   1.000  H
  C281     1.0000 0.13170  0.83250  0.09900  Biso   1.000  C
  H201     1.0000 0.12460  0.83410  0.07120  Biso   1.000  H
  C282     1.0000 0.16300  0.75690  0.11720  Biso   1.000  C
  H202     1.0000 0.18130  0.70050  0.10470  Biso   1.000  H
  C283     1.0000 0.16150  0.78200  0.15740  Biso   1.000  C
  H203     1.0000 0.17920  0.74610  0.17810  Biso   1.000  H
  C284     1.0000 0.12890  0.87060  0.16220  Biso   1.000  C
  C285     1.0000 0.11870  0.92610  0.19770  Biso   1.000  C
  C286     1.0000 0.09200  0.01990  0.20080  Biso   1.000  C
  C287     1.0000 0.08390  0.08160  0.23640  Biso   1.000  C
  H204     1.0000 0.09470  0.06410  0.26270  Biso   1.000  H
  C288     1.0000 0.05730  0.17160  0.22490  Biso   1.000  C
  H205     1.0000 0.04480  0.22710  0.24180  Biso   1.000  H
  C289     1.0000 0.05210  0.16530  0.18330  Biso   1.000  C
  H206     1.0000 0.03590  0.21870  0.16750  Biso   1.000  H
  C290     1.0000 0.14150  0.87910  0.23550  Biso   1.000  C
  C291     1.0000 0.17850  0.94040  0.25640  Biso   1.000  C
  H207     1.0000 0.18860  0.00980  0.24720  Biso   1.000  H
  C292     1.0000 0.19890  0.89550  0.29040  Biso   1.000  C
  H208     1.0000 0.22440  0.93390  0.30400  Biso   1.000  H
  C293     1.0000 0.14990  0.74170  0.28520  Biso   1.000  C
  H209     1.0000 0.14070  0.67310  0.29580  Biso   1.000  H
  C294     1.0000 0.12750  0.77890  0.24980  Biso   1.000  C
  H210     1.0000 0.10340  0.73640  0.23620  Biso   1.000  H
  N55      1.0000 0.51198  0.43700  0.36877  Biso   1.000  N
  N56      1.0000 0.52713  0.64430  0.39972  Biso   1.000  N
  N57      1.0000 0.29520  0.66280  0.35568  Biso   1.000  N
  N58      1.0000 0.06088  0.02650  0.55857  Biso   1.000  N
  N59      1.0000 0.12853  0.89630  0.59988  Biso   1.000  N
  N60      1.0000 0.18886  0.79500  0.41808  Biso   1.000  N
  N61      1.0000 0.11286  0.90280  0.12568  Biso   1.000  N
  N62      1.0000 0.07198  0.07860  0.16879  Biso   1.000  N
  N63      1.0000 0.18460  0.80260  0.30444  Biso   1.000  N
  Co4      1.0000 0.06877  0.97744  0.61377  Biso   1.000  Co
  Ag8      1.0000 0.72111  0.76124  0.63987  Biso   1.000  Ag
  C295     1.0000 0.01170  0.16490  0.64419  Biso   1.000  C
  H211     1.0000 0.04000  0.21070  0.64400  Biso   1.000  H
  C296     1.0000 0.96460  0.19760  0.65820  Biso   1.000  C
  H212     1.0000 0.95590  0.26610  0.66910  Biso   1.000  H
  C297     1.0000 0.93480  0.11190  0.65300  Biso   1.000  C
  H213     1.0000 0.90040  0.10910  0.65920  Biso   1.000  H
  C298     1.0000 0.96330  0.02600  0.63676  Biso   1.000  C
  C299     1.0000 0.94750  0.92100  0.62579  Biso   1.000  C
  C300     1.0000 0.97610  0.84300  0.60873  Biso   1.000  C
  C301     1.0000 0.96090  0.73690  0.59610  Biso   1.000  C
  H214     1.0000 0.92850  0.70690  0.59790  Biso   1.000  H
  C302     1.0000 0.00300  0.68670  0.58080  Biso   1.000  C
  H215     1.0000 0.00520  0.61530  0.57030  Biso   1.000  H
  C303     1.0000 0.04090  0.76130  0.58390  Biso   1.000  C
  H216     1.0000 0.07380  0.74710  0.57510  Biso   1.000  H
  C304     1.0000 0.89420  0.89480  0.63340  Biso   1.000  C
  C305     1.0000 0.88080  0.81760  0.66072  Biso   1.000  C
  H217     1.0000 0.90530  0.78220  0.67640  Biso   1.000  H
  C306     1.0000 0.83220  0.79190  0.66528  Biso   1.000  C
  H218     1.0000 0.82380  0.73840  0.68460  Biso   1.000  H
  C307     1.0000 0.80870  0.91580  0.61900  Biso   1.000  C
  H219     1.0000 0.78310  0.95250  0.60500  Biso   1.000  H
  C308     1.0000 0.85590  0.94690  0.61190  Biso   1.000  C
  H220     1.0000 0.86320  0.00220  0.59300  Biso   1.000  H
  C309     1.0000 0.52920  0.39810  0.45432  Biso   1.000  C
  H221     1.0000 0.50670  0.35900  0.43790  Biso   1.000  H
  C310     1.0000 0.53390  0.38520  0.49590  Biso   1.000  C
  H222     1.0000 0.51580  0.33580  0.51210  Biso   1.000  H
  C311     1.0000 0.56820  0.45470  0.50850  Biso   1.000  C
  H223     1.0000 0.57870  0.46550  0.53530  Biso   1.000  H
  C312     1.0000 0.58610  0.50910  0.47450  Biso   1.000  C
  C313     1.0000 0.62670  0.58630  0.47210  Biso   1.000  C
  C314     1.0000 0.64620  0.62550  0.43770  Biso   1.000  C
  C315     1.0000 0.68850  0.69670  0.43370  Biso   1.000  C
  H224     1.0000 0.70760  0.72740  0.45480  Biso   1.000  H
  C316     1.0000 0.69560  0.71110  0.39380  Biso   1.000  C
  H225     1.0000 0.72130  0.75150  0.38140  Biso   1.000  H
  C317     1.0000 0.65690  0.65370  0.37430  Biso   1.000  C
  H226     1.0000 0.65220  0.65180  0.34620  Biso   1.000  H
  C318     1.0000 0.64850  0.62030  0.51064  Biso   1.000  C
  C319     1.0000 0.61930  0.68760  0.53750  Biso   1.000  C
  H227     1.0000 0.58580  0.70540  0.53140  Biso   1.000  H
  C320     1.0000 0.64120  0.72500  0.57220  Biso   1.000  C
  H228     1.0000 0.62170  0.76690  0.59010  Biso   1.000  H
  C321     1.0000 0.71430  0.63760  0.55750  Biso   1.000  C
  H229     1.0000 0.74700  0.61790  0.56510  Biso   1.000  H
  C322     1.0000 0.69588  0.59600  0.52260  Biso   1.000  C
  H230     1.0000 0.71600  0.55000  0.50660  Biso   1.000  H
  C323     1.0000 0.63170  0.66750  0.90100  Biso   1.000  C
  H231     1.0000 0.62460  0.66590  0.92880  Biso   1.000  H
  C324     1.0000 0.66300  0.74310  0.88280  Biso   1.000  C
  H232     1.0000 0.68130  0.79950  0.89530  Biso   1.000  H
  C325     1.0000 0.66150  0.71800  0.84260  Biso   1.000  C
  H233     1.0000 0.67920  0.75390  0.82190  Biso   1.000  H
  C326     1.0000 0.62890  0.62940  0.83780  Biso   1.000  C
  C327     1.0000 0.61870  0.57390  0.80230  Biso   1.000  C
  C328     1.0000 0.59200  0.48010  0.79920  Biso   1.000  C
  C329     1.0000 0.58390  0.41840  0.76360  Biso   1.000  C
  H234     1.0000 0.59470  0.43590  0.73730  Biso   1.000  H
  C330     1.0000 0.55730  0.32840  0.77510  Biso   1.000  C
  H235     1.0000 0.54480  0.27290  0.75820  Biso   1.000  H
  C331     1.0000 0.55210  0.33470  0.81670  Biso   1.000  C
  H236     1.0000 0.53590  0.28130  0.83250  Biso   1.000  H
  C332     1.0000 0.64150  0.62090  0.76450  Biso   1.000  C
  C333     1.0000 0.67850  0.55960  0.74360  Biso   1.000  C
  H237     1.0000 0.68860  0.49020  0.75280  Biso   1.000  H
  C334     1.0000 0.69890  0.60450  0.70960  Biso   1.000  C
  H238     1.0000 0.72440  0.56610  0.69600  Biso   1.000  H
  C335     1.0000 0.64990  0.75830  0.71480  Biso   1.000  C
  H239     1.0000 0.64070  0.82690  0.70420  Biso   1.000  H
  C336     1.0000 0.62750  0.72110  0.75020  Biso   1.000  C
  H240     1.0000 0.60340  0.76360  0.76380  Biso   1.000  H
  N64      1.0000 0.01198  0.06300  0.63123  Biso   1.000  N
  N65      1.0000 0.02713  0.85570  0.60028  Biso   1.000  N
  N66      1.0000 0.79520  0.83720  0.64432  Biso   1.000  N
  N67      1.0000 0.56088  0.47350  0.44143  Biso   1.000  N
  N68      1.0000 0.62853  0.60370  0.40012  Biso   1.000  N
  N69      1.0000 0.68886  0.70500  0.58192  Biso   1.000  N
  N70      1.0000 0.61286  0.59720  0.87432  Biso   1.000  N
  N71      1.0000 0.57198  0.42140  0.83121  Biso   1.000  N
  N72      1.0000 0.68460  0.69740  0.69556  Biso   1.000  N
