data_image0
_cell_length_a       38.002
_cell_length_b       38.002
_cell_length_c       24.348
_cell_angle_alpha    90
_cell_angle_beta     90
_cell_angle_gamma    120

_symmetry_space_group_name_H-M    "P 1"
_symmetry_int_tables_number       1

loop_
  _symmetry_equiv_pos_as_xyz
  'x, y, z'

loop_
  _atom_site_label
  _atom_site_occupancy
  _atom_site_fract_x
  _atom_site_fract_y
  _atom_site_fract_z
  _atom_site_thermal_displace_type
  _atom_site_B_iso_or_equiv
  _atom_site_type_symbol
  Tb1      1.0000 0.21779  0.43127  0.00817  Biso   1.000  Tb
  Tb2      1.0000 0.10354  0.20809  0.16699  Biso   1.000  Tb
  Cu1      1.0000 0.14078  0.33418  0.04339  Biso   1.000  Cu
  Cu2      1.0000 0.29850  0.43601  0.08276  Biso   1.000  Cu
  Cu3      1.0000 0.19177  0.48678  0.09446  Biso   1.000  Cu
  Cu4      1.0000 0.15418  0.35940  0.91416  Biso   1.000  Cu
  Cu5      1.0000 0.31345  0.46019  0.95224  Biso   1.000  Cu
  Cu6      1.0000 0.20492  0.51091  0.96599  Biso   1.000  Cu
  O1       1.0000 0.15879  0.39044  0.06876  Biso   1.000  O
  O2       1.0000 0.14834  0.42434  0.13470  Biso   1.000  O
  O3       1.0000 0.24008  0.39617  0.07124  Biso   1.000  O
  O4       1.0000 0.19269  0.33348  0.09380  Biso   1.000  O
  O5       1.0000 0.23479  0.47214  0.09208  Biso   1.000  O
  O6       1.0000 0.28267  0.47195  0.14340  Biso   1.000  O
  O7       1.0000 0.17183  0.41671  0.92834  Biso   1.000  O
  O8       1.0000 0.16439  0.46727  0.89710  Biso   1.000  O
  O9       1.0000 0.25525  0.42151  0.93382  Biso   1.000  O
  O10      1.0000 0.21604  0.38270  0.86646  Biso   1.000  O
  O11      1.0000 0.24685  0.49455  0.95698  Biso   1.000  O
  O12      1.0000 0.30596  0.51236  0.91690  Biso   1.000  O
  O13      1.0000 0.17978  0.36047  0.98380  Biso   1.000  O
  O14      1.0000 0.29147  0.46514  0.02253  Biso   1.000  O
  O15      1.0000 0.18092  0.46659  0.01955  Biso   1.000  O
  O16      1.0000 0.12269  0.28077  0.01065  Biso   1.000  O
  O17      1.0000 0.10917  0.24717  0.09000  Biso   1.000  O
  O18      1.0000 0.36852  0.48632  0.98100  Biso   1.000  O
  O19      1.0000 0.39898  0.51945  0.90660  Biso   1.000  O
  O20      1.0000 0.16448  0.52570  0.98820  Biso   1.000  O
  O21      1.0000 0.15550  0.54605  0.90640  Biso   1.000  O
  N1       1.0000 0.10290  0.31890  0.10580  Biso   1.000  N
  H1       1.0000 0.07720  0.30480  0.09340  Biso   1.000  H
  H2       1.0000 0.10690  0.30270  0.12880  Biso   1.000  H
  N2       1.0000 0.29550  0.39690  0.13810  Biso   1.000  N
  H3       1.0000 0.31580  0.39150  0.13280  Biso   1.000  H
  H4       1.0000 0.29820  0.40740  0.17200  Biso   1.000  H
  N3       1.0000 0.21530  0.51230  0.16540  Biso   1.000  N
  H5       1.0000 0.22960  0.53950  0.16180  Biso   1.000  H
  H6       1.0000 0.19550  0.50590  0.19030  Biso   1.000  H
  N4       1.0000 0.12780  0.36606  0.84870  Biso   1.000  N
  H7       1.0000 0.13630  0.35880  0.81850  Biso   1.000  H
  H8       1.0000 0.10070  0.35000  0.85130  Biso   1.000  H
  N5       1.0000 0.32410  0.44560  0.87990  Biso   1.000  N
  H9       1.0000 0.34040  0.46830  0.86080  Biso   1.000  H
  H10      1.0000 0.33700  0.43130  0.88360  Biso   1.000  H
  N6       1.0000 0.23870  0.55378  0.91370  Biso   1.000  N
  H11      1.0000 0.22500  0.54970  0.88200  Biso   1.000  H
  H12      1.0000 0.24410  0.57800  0.92730  Biso   1.000  H
  C1       1.0000 0.14110  0.39270  0.11140  Biso   1.000  C
  C2       1.0000 0.25660  0.35980  0.13320  Biso   1.000  C
  H13      1.0000 0.24470  0.35170  0.16950  Biso   1.000  H
  H14      1.0000 0.26110  0.33850  0.11930  Biso   1.000  H
  C3       1.0000 0.22760  0.36320  0.09720  Biso   1.000  C
  C4       1.0000 0.25460  0.47860  0.13550  Biso   1.000  C
  C5       1.0000 0.13780  0.40720  0.84430  Biso   1.000  C
  H15      1.0000 0.11310  0.40810  0.83800  Biso   1.000  H
  H16      1.0000 0.15520  0.41920  0.81250  Biso   1.000  H
  C6       1.0000 0.15890  0.43260  0.89390  Biso   1.000  C
  C7       1.0000 0.28700  0.42190  0.85060  Biso   1.000  C
  H17      1.0000 0.28720  0.39860  0.83460  Biso   1.000  H
  H18      1.0000 0.28580  0.43810  0.82060  Biso   1.000  H
  C8       1.0000 0.24950  0.40700  0.88500  Biso   1.000  C
  C9       1.0000 0.27660  0.55430  0.90330  Biso   1.000  C
  H19      1.0000 0.29880  0.57870  0.91930  Biso   1.000  H
  H20      1.0000 0.28110  0.55550  0.86390  Biso   1.000  H
  C10      1.0000 0.27750  0.51750  0.92640  Biso   1.000  C
  C11      1.0000 0.11320  0.24890  0.03900  Biso   1.000  C
  H21      1.0000 0.10900  0.22570  0.02050  Biso   1.000  H
  C12      1.0000 0.39880  0.50810  0.95400  Biso   1.000  C
  H22      1.0000 0.42380  0.51680  0.97060  Biso   1.000  H
  C13      1.0000 0.14640  0.53640  0.95540  Biso   1.000  C
  H23      1.0000 0.12390  0.53720  0.96890  Biso   1.000  H
  C14      1.0000 0.24140  0.49730  0.18290  Biso   1.000  C
  H24      1.0000 0.22750  0.47680  0.21090  Biso   1.000  H
  H25      1.0000 0.26550  0.51940  0.19950  Biso   1.000  H
  C15      1.0000 0.10860  0.35480  0.13550  Biso   1.000  C
  H26      1.0000 0.11530  0.35300  0.17350  Biso   1.000  H
  H27      1.0000 0.08340  0.35530  0.13520  Biso   1.000  H
  Tb3      1.0000 0.88446  0.76460  0.34150  Biso   1.000  Tb
  Tb4      1.0000 0.77020  0.54142  0.50032  Biso   1.000  Tb
  Cu7      1.0000 0.80745  0.66751  0.37672  Biso   1.000  Cu
  Cu8      1.0000 0.96517  0.76934  0.41609  Biso   1.000  Cu
  Cu9      1.0000 0.85844  0.82011  0.42779  Biso   1.000  Cu
  Cu10     1.0000 0.82085  0.69273  0.24749  Biso   1.000  Cu
  Cu11     1.0000 0.98012  0.79352  0.28557  Biso   1.000  Cu
  Cu12     1.0000 0.87159  0.84424  0.29932  Biso   1.000  Cu
  O22      1.0000 0.82546  0.72377  0.40209  Biso   1.000  O
  O23      1.0000 0.81501  0.75767  0.46803  Biso   1.000  O
  O24      1.0000 0.90675  0.72950  0.40457  Biso   1.000  O
  O25      1.0000 0.85936  0.66681  0.42713  Biso   1.000  O
  O26      1.0000 0.90146  0.80547  0.42541  Biso   1.000  O
  O27      1.0000 0.94934  0.80528  0.47673  Biso   1.000  O
  O28      1.0000 0.83850  0.75004  0.26167  Biso   1.000  O
  O29      1.0000 0.83106  0.80060  0.23043  Biso   1.000  O
  O30      1.0000 0.92192  0.75484  0.26715  Biso   1.000  O
  O31      1.0000 0.88271  0.71603  0.19979  Biso   1.000  O
  O32      1.0000 0.91352  0.82788  0.29031  Biso   1.000  O
  O33      1.0000 0.97263  0.84569  0.25023  Biso   1.000  O
  O34      1.0000 0.84645  0.69380  0.31713  Biso   1.000  O
  O35      1.0000 0.95814  0.79847  0.35586  Biso   1.000  O
  O36      1.0000 0.84759  0.79992  0.35288  Biso   1.000  O
  O37      1.0000 0.78936  0.61410  0.34398  Biso   1.000  O
  O38      1.0000 0.77584  0.58050  0.42333  Biso   1.000  O
  O39      1.0000 0.03519  0.81965  0.31433  Biso   1.000  O
  O40      1.0000 0.06565  0.85278  0.23993  Biso   1.000  O
  O41      1.0000 0.83115  0.85903  0.32153  Biso   1.000  O
  O42      1.0000 0.82217  0.87938  0.23973  Biso   1.000  O
  N7       1.0000 0.76957  0.65223  0.43913  Biso   1.000  N
  H28      1.0000 0.74387  0.63813  0.42673  Biso   1.000  H
  H29      1.0000 0.77357  0.63603  0.46213  Biso   1.000  H
  N8       1.0000 0.96217  0.73023  0.47143  Biso   1.000  N
  H30      1.0000 0.98247  0.72483  0.46613  Biso   1.000  H
  H31      1.0000 0.96487  0.74073  0.50533  Biso   1.000  H
  N9       1.0000 0.88197  0.84563  0.49873  Biso   1.000  N
  H32      1.0000 0.89627  0.87283  0.49513  Biso   1.000  H
  H33      1.0000 0.86217  0.83923  0.52363  Biso   1.000  H
  N10      1.0000 0.79447  0.69939  0.18203  Biso   1.000  N
  H34      1.0000 0.80297  0.69213  0.15183  Biso   1.000  H
  H35      1.0000 0.76737  0.68333  0.18463  Biso   1.000  H
  N11      1.0000 0.99077  0.77893  0.21323  Biso   1.000  N
  H36      1.0000 0.00707  0.80163  0.19413  Biso   1.000  H
  H37      1.0000 0.00367  0.76463  0.21693  Biso   1.000  H
  N12      1.0000 0.90537  0.88711  0.24703  Biso   1.000  N
  H38      1.0000 0.89167  0.88303  0.21533  Biso   1.000  H
  H39      1.0000 0.91077  0.91133  0.26063  Biso   1.000  H
  C16      1.0000 0.80777  0.72603  0.44473  Biso   1.000  C
  C17      1.0000 0.92327  0.69313  0.46653  Biso   1.000  C
  H40      1.0000 0.91137  0.68503  0.50283  Biso   1.000  H
  H41      1.0000 0.92777  0.67183  0.45263  Biso   1.000  H
  C18      1.0000 0.89427  0.69653  0.43053  Biso   1.000  C
  C19      1.0000 0.92127  0.81193  0.46883  Biso   1.000  C
  C20      1.0000 0.80447  0.74053  0.17763  Biso   1.000  C
  H42      1.0000 0.77977  0.74143  0.17133  Biso   1.000  H
  H43      1.0000 0.82187  0.75253  0.14583  Biso   1.000  H
  C21      1.0000 0.82557  0.76593  0.22723  Biso   1.000  C
  C22      1.0000 0.95367  0.75523  0.18393  Biso   1.000  C
  H44      1.0000 0.95387  0.73193  0.16793  Biso   1.000  H
  H45      1.0000 0.95247  0.77143  0.15393  Biso   1.000  H
  C23      1.0000 0.91617  0.74033  0.21833  Biso   1.000  C
  C24      1.0000 0.94327  0.88763  0.23663  Biso   1.000  C
  H46      1.0000 0.96547  0.91203  0.25263  Biso   1.000  H
  H47      1.0000 0.94777  0.88883  0.19723  Biso   1.000  H
  C25      1.0000 0.94417  0.85083  0.25973  Biso   1.000  C
  C26      1.0000 0.77987  0.58223  0.37233  Biso   1.000  C
  H48      1.0000 0.77567  0.55903  0.35383  Biso   1.000  H
  C27      1.0000 0.06547  0.84143  0.28733  Biso   1.000  C
  H49      1.0000 0.09047  0.85013  0.30393  Biso   1.000  H
  C28      1.0000 0.81307  0.86973  0.28873  Biso   1.000  C
  H50      1.0000 0.79057  0.87053  0.30223  Biso   1.000  H
  C29      1.0000 0.90807  0.83063  0.51623  Biso   1.000  C
  H51      1.0000 0.89417  0.81013  0.54423  Biso   1.000  H
  H52      1.0000 0.93217  0.85273  0.53283  Biso   1.000  H
  C30      1.0000 0.77527  0.68813  0.46883  Biso   1.000  C
  H53      1.0000 0.78197  0.68633  0.50683  Biso   1.000  H
  H54      1.0000 0.75007  0.68863  0.46853  Biso   1.000  H
  Tb5      1.0000 0.55112  0.09794  0.67484  Biso   1.000  Tb
  Tb6      1.0000 0.43687  0.87476  0.83365  Biso   1.000  Tb
  Cu13     1.0000 0.47411  0.00085  0.71006  Biso   1.000  Cu
  Cu14     1.0000 0.63183  0.10268  0.74943  Biso   1.000  Cu
  Cu15     1.0000 0.52510  0.15345  0.76113  Biso   1.000  Cu
  Cu16     1.0000 0.48751  0.02607  0.58083  Biso   1.000  Cu
  Cu17     1.0000 0.64678  0.12686  0.61891  Biso   1.000  Cu
  Cu18     1.0000 0.53825  0.17758  0.63266  Biso   1.000  Cu
  O43      1.0000 0.49212  0.05711  0.73543  Biso   1.000  O
  O44      1.0000 0.48167  0.09101  0.80137  Biso   1.000  O
  O45      1.0000 0.57341  0.06284  0.73791  Biso   1.000  O
  O46      1.0000 0.52602  0.00015  0.76047  Biso   1.000  O
  O47      1.0000 0.56812  0.13881  0.75875  Biso   1.000  O
  O48      1.0000 0.61600  0.13862  0.81007  Biso   1.000  O
  O49      1.0000 0.50516  0.08338  0.59501  Biso   1.000  O
  O50      1.0000 0.49772  0.13394  0.56377  Biso   1.000  O
  O51      1.0000 0.58858  0.08818  0.60049  Biso   1.000  O
  O52      1.0000 0.54937  0.04937  0.53313  Biso   1.000  O
  O53      1.0000 0.58018  0.16122  0.62365  Biso   1.000  O
  O54      1.0000 0.63929  0.17903  0.58357  Biso   1.000  O
  O55      1.0000 0.51311  0.02714  0.65047  Biso   1.000  O
  O56      1.0000 0.62480  0.13181  0.68920  Biso   1.000  O
  O57      1.0000 0.51425  0.13326  0.68622  Biso   1.000  O
  O58      1.0000 0.45602  0.94744  0.67732  Biso   1.000  O
  O59      1.0000 0.44250  0.91384  0.75667  Biso   1.000  O
  O60      1.0000 0.70185  0.15299  0.64767  Biso   1.000  O
  O61      1.0000 0.73231  0.18612  0.57327  Biso   1.000  O
  O62      1.0000 0.49781  0.19237  0.65487  Biso   1.000  O
  O63      1.0000 0.48883  0.21272  0.57307  Biso   1.000  O
  N13      1.0000 0.43623  0.98557  0.77247  Biso   1.000  N
  H55      1.0000 0.41053  0.97147  0.76007  Biso   1.000  H
  H56      1.0000 0.44023  0.96937  0.79547  Biso   1.000  H
  N14      1.0000 0.62883  0.06357  0.80477  Biso   1.000  N
  H57      1.0000 0.64913  0.05817  0.79947  Biso   1.000  H
  H58      1.0000 0.63153  0.07407  0.83867  Biso   1.000  H
  N15      1.0000 0.54863  0.17897  0.83207  Biso   1.000  N
  H59      1.0000 0.56293  0.20617  0.82847  Biso   1.000  H
  H60      1.0000 0.52883  0.17257  0.85697  Biso   1.000  H
  N16      1.0000 0.46113  0.03273  0.51537  Biso   1.000  N
  H61      1.0000 0.46963  0.02547  0.48517  Biso   1.000  H
  H62      1.0000 0.43403  0.01667  0.51797  Biso   1.000  H
  N17      1.0000 0.65743  0.11227  0.54657  Biso   1.000  N
  H63      1.0000 0.67373  0.13497  0.52747  Biso   1.000  H
  H64      1.0000 0.67033  0.09797  0.55027  Biso   1.000  H
  N18      1.0000 0.57203  0.22045  0.58037  Biso   1.000  N
  H65      1.0000 0.55833  0.21637  0.54867  Biso   1.000  H
  H66      1.0000 0.57743  0.24467  0.59397  Biso   1.000  H
  C31      1.0000 0.47443  0.05937  0.77807  Biso   1.000  C
  C32      1.0000 0.58993  0.02647  0.79987  Biso   1.000  C
  H67      1.0000 0.57803  0.01837  0.83617  Biso   1.000  H
  H68      1.0000 0.59443  0.00517  0.78597  Biso   1.000  H
  C33      1.0000 0.56093  0.02987  0.76387  Biso   1.000  C
  C34      1.0000 0.58793  0.14527  0.80217  Biso   1.000  C
  C35      1.0000 0.47113  0.07387  0.51097  Biso   1.000  C
  H69      1.0000 0.44643  0.07477  0.50467  Biso   1.000  H
  H70      1.0000 0.48853  0.08587  0.47917  Biso   1.000  H
  C36      1.0000 0.49223  0.09927  0.56057  Biso   1.000  C
  C37      1.0000 0.62033  0.08857  0.51727  Biso   1.000  C
  H71      1.0000 0.62053  0.06527  0.50127  Biso   1.000  H
  H72      1.0000 0.61913  0.10477  0.48727  Biso   1.000  H
  C38      1.0000 0.58283  0.07367  0.55167  Biso   1.000  C
  C39      1.0000 0.60993  0.22097  0.56997  Biso   1.000  C
  H73      1.0000 0.63213  0.24537  0.58597  Biso   1.000  H
  H74      1.0000 0.61443  0.22217  0.53057  Biso   1.000  H
  C40      1.0000 0.61083  0.18417  0.59307  Biso   1.000  C
  C41      1.0000 0.44653  0.91557  0.70567  Biso   1.000  C
  H75      1.0000 0.44233  0.89237  0.68717  Biso   1.000  H
  C42      1.0000 0.73213  0.17477  0.62067  Biso   1.000  C
  H76      1.0000 0.75713  0.18347  0.63727  Biso   1.000  H
  C43      1.0000 0.47973  0.20307  0.62207  Biso   1.000  C
  H77      1.0000 0.45723  0.20387  0.63557  Biso   1.000  H
  C44      1.0000 0.57473  0.16397  0.84957  Biso   1.000  C
  H78      1.0000 0.56083  0.14347  0.87757  Biso   1.000  H
  H79      1.0000 0.59883  0.18607  0.86617  Biso   1.000  H
  C45      1.0000 0.44193  0.02147  0.80217  Biso   1.000  C
  H80      1.0000 0.44863  0.01967  0.84017  Biso   1.000  H
  H81      1.0000 0.41673  0.02197  0.80187  Biso   1.000  H
  Tb7      1.0000 0.56873  0.78652  0.00817  Biso   1.000  Tb
  Tb8      1.0000 0.79191  0.89545  0.16699  Biso   1.000  Tb
  Cu19     1.0000 0.66582  0.80660  0.04339  Biso   1.000  Cu
  Cu20     1.0000 0.56399  0.86249  0.08276  Biso   1.000  Cu
  Cu21     1.0000 0.51322  0.70499  0.09446  Biso   1.000  Cu
  Cu22     1.0000 0.64060  0.79478  0.91416  Biso   1.000  Cu
  Cu23     1.0000 0.53981  0.85326  0.95224  Biso   1.000  Cu
  Cu24     1.0000 0.48909  0.69401  0.96599  Biso   1.000  Cu
  O64      1.0000 0.60956  0.76835  0.06876  Biso   1.000  O
  O65      1.0000 0.57566  0.72400  0.13470  Biso   1.000  O
  O66      1.0000 0.60383  0.84391  0.07124  Biso   1.000  O
  O67      1.0000 0.66652  0.85921  0.09380  Biso   1.000  O
  O68      1.0000 0.52786  0.76265  0.09208  Biso   1.000  O
  O69      1.0000 0.52805  0.81072  0.14340  Biso   1.000  O
  O70      1.0000 0.58329  0.75512  0.92834  Biso   1.000  O
  O71      1.0000 0.53273  0.69712  0.89710  Biso   1.000  O
  O72      1.0000 0.57849  0.83374  0.93382  Biso   1.000  O
  O73      1.0000 0.61730  0.83334  0.86646  Biso   1.000  O
  O74      1.0000 0.50545  0.75230  0.95698  Biso   1.000  O
  O75      1.0000 0.48764  0.79360  0.91690  Biso   1.000  O
  O76      1.0000 0.63953  0.81931  0.98380  Biso   1.000  O
  O77      1.0000 0.53486  0.82633  0.02253  Biso   1.000  O
  O78      1.0000 0.53341  0.71433  0.01955  Biso   1.000  O
  O79      1.0000 0.71923  0.84192  0.01065  Biso   1.000  O
  O80      1.0000 0.75283  0.86200  0.09000  Biso   1.000  O
  O81      1.0000 0.51368  0.88220  0.98100  Biso   1.000  O
  O82      1.0000 0.48055  0.87953  0.90660  Biso   1.000  O
  O83      1.0000 0.47430  0.63878  0.98820  Biso   1.000  O
  O84      1.0000 0.45395  0.60945  0.90640  Biso   1.000  O
  N19      1.0000 0.68110  0.78400  0.10580  Biso   1.000  N
  H82      1.0000 0.69520  0.77240  0.09340  Biso   1.000  H
  H83      1.0000 0.69730  0.80420  0.12880  Biso   1.000  H
  N20      1.0000 0.60310  0.89860  0.13810  Biso   1.000  N
  H84      1.0000 0.60850  0.92430  0.13280  Biso   1.000  H
  H85      1.0000 0.59260  0.89080  0.17200  Biso   1.000  H
  N21      1.0000 0.48770  0.70300  0.16540  Biso   1.000  N
  H86      1.0000 0.46050  0.69010  0.16180  Biso   1.000  H
  H87      1.0000 0.49410  0.68960  0.19030  Biso   1.000  H
  N22      1.0000 0.63394  0.76174  0.84870  Biso   1.000  N
  H88      1.0000 0.64120  0.77750  0.81850  Biso   1.000  H
  H89      1.0000 0.65000  0.75070  0.85130  Biso   1.000  H
  N23      1.0000 0.55440  0.87850  0.87990  Biso   1.000  N
  H90      1.0000 0.53170  0.87210  0.86080  Biso   1.000  H
  H91      1.0000 0.56870  0.90570  0.88360  Biso   1.000  H
  N24      1.0000 0.44622  0.68492  0.91370  Biso   1.000  N
  H92      1.0000 0.45030  0.67530  0.88200  Biso   1.000  H
  H93      1.0000 0.42200  0.66610  0.92730  Biso   1.000  H
  C46      1.0000 0.60730  0.74840  0.11140  Biso   1.000  C
  C47      1.0000 0.64020  0.89680  0.13320  Biso   1.000  C
  H94      1.0000 0.64830  0.89300  0.16950  Biso   1.000  H
  H95      1.0000 0.66150  0.92260  0.11930  Biso   1.000  H
  C48      1.0000 0.63680  0.86440  0.09720  Biso   1.000  C
  C49      1.0000 0.52140  0.77600  0.13550  Biso   1.000  C
  C50      1.0000 0.59280  0.73060  0.84430  Biso   1.000  C
  H96      1.0000 0.59190  0.70500  0.83800  Biso   1.000  H
  H97      1.0000 0.58080  0.73600  0.81250  Biso   1.000  H
  C51      1.0000 0.56740  0.72630  0.89390  Biso   1.000  C
  C52      1.0000 0.57810  0.86510  0.85060  Biso   1.000  C
  H98      1.0000 0.60140  0.88860  0.83460  Biso   1.000  H
  H99      1.0000 0.56190  0.84770  0.82060  Biso   1.000  H
  C53      1.0000 0.59300  0.84250  0.88500  Biso   1.000  C
  C54      1.0000 0.44570  0.72230  0.90330  Biso   1.000  C
  H100     1.0000 0.42130  0.72010  0.91930  Biso   1.000  H
  H101     1.0000 0.44450  0.72560  0.86390  Biso   1.000  H
  C55      1.0000 0.48250  0.76000  0.92640  Biso   1.000  C
  C56      1.0000 0.75110  0.86430  0.03900  Biso   1.000  C
  H102     1.0000 0.77430  0.88330  0.02050  Biso   1.000  H
  C57      1.0000 0.49190  0.89070  0.95400  Biso   1.000  C
  H103     1.0000 0.48320  0.90700  0.97060  Biso   1.000  H
  C58      1.0000 0.46360  0.61000  0.95540  Biso   1.000  C
  H104     1.0000 0.46280  0.58670  0.96890  Biso   1.000  H
  C59      1.0000 0.50270  0.74410  0.18290  Biso   1.000  C
  H105     1.0000 0.52320  0.75070  0.21090  Biso   1.000  H
  H106     1.0000 0.48060  0.74610  0.19950  Biso   1.000  H
  C60      1.0000 0.64520  0.75380  0.13550  Biso   1.000  C
  H107     1.0000 0.64700  0.76230  0.17350  Biso   1.000  H
  H108     1.0000 0.64470  0.72810  0.13520  Biso   1.000  H
  Tb9      1.0000 0.23540  0.11985  0.34150  Biso   1.000  Tb
  Tb10     1.0000 0.45858  0.22878  0.50032  Biso   1.000  Tb
  Cu25     1.0000 0.33249  0.13993  0.37672  Biso   1.000  Cu
  Cu26     1.0000 0.23066  0.19582  0.41609  Biso   1.000  Cu
  Cu27     1.0000 0.17989  0.03832  0.42779  Biso   1.000  Cu
  Cu28     1.0000 0.30727  0.12811  0.24749  Biso   1.000  Cu
  Cu29     1.0000 0.20648  0.18659  0.28557  Biso   1.000  Cu
  Cu30     1.0000 0.15576  0.02734  0.29932  Biso   1.000  Cu
  O85      1.0000 0.27623  0.10168  0.40209  Biso   1.000  O
  O86      1.0000 0.24233  0.05733  0.46803  Biso   1.000  O
  O87      1.0000 0.27050  0.17724  0.40457  Biso   1.000  O
  O88      1.0000 0.33319  0.19254  0.42713  Biso   1.000  O
  O89      1.0000 0.19453  0.09598  0.42541  Biso   1.000  O
  O90      1.0000 0.19472  0.14405  0.47673  Biso   1.000  O
  O91      1.0000 0.24996  0.08845  0.26167  Biso   1.000  O
  O92      1.0000 0.19940  0.03045  0.23043  Biso   1.000  O
  O93      1.0000 0.24516  0.16707  0.26715  Biso   1.000  O
  O94      1.0000 0.28397  0.16667  0.19979  Biso   1.000  O
  O95      1.0000 0.17212  0.08563  0.29031  Biso   1.000  O
  O96      1.0000 0.15431  0.12693  0.25023  Biso   1.000  O
  O97      1.0000 0.30620  0.15264  0.31713  Biso   1.000  O
  O98      1.0000 0.20153  0.15966  0.35586  Biso   1.000  O
  O99      1.0000 0.20008  0.04766  0.35288  Biso   1.000  O
  O100     1.0000 0.38590  0.17525  0.34398  Biso   1.000  O
  O101     1.0000 0.41950  0.19533  0.42333  Biso   1.000  O
  O102     1.0000 0.18035  0.21553  0.31433  Biso   1.000  O
  O103     1.0000 0.14722  0.21286  0.23993  Biso   1.000  O
  O104     1.0000 0.14097  0.97211  0.32153  Biso   1.000  O
  O105     1.0000 0.12062  0.94278  0.23973  Biso   1.000  O
  N25      1.0000 0.34777  0.11733  0.43913  Biso   1.000  N
  H109     1.0000 0.36187  0.10573  0.42673  Biso   1.000  H
  H110     1.0000 0.36397  0.13753  0.46213  Biso   1.000  H
  N26      1.0000 0.26977  0.23193  0.47143  Biso   1.000  N
  H111     1.0000 0.27517  0.25763  0.46613  Biso   1.000  H
  H112     1.0000 0.25927  0.22413  0.50533  Biso   1.000  H
  N27      1.0000 0.15437  0.03633  0.49873  Biso   1.000  N
  H113     1.0000 0.12717  0.02343  0.49513  Biso   1.000  H
  H114     1.0000 0.16077  0.02293  0.52363  Biso   1.000  H
  N28      1.0000 0.30061  0.09507  0.18203  Biso   1.000  N
  H115     1.0000 0.30787  0.11083  0.15183  Biso   1.000  H
  H116     1.0000 0.31667  0.08403  0.18463  Biso   1.000  H
  N29      1.0000 0.22107  0.21183  0.21323  Biso   1.000  N
  H117     1.0000 0.19837  0.20543  0.19413  Biso   1.000  H
  H118     1.0000 0.23537  0.23903  0.21693  Biso   1.000  H
  N30      1.0000 0.11289  0.01825  0.24703  Biso   1.000  N
  H119     1.0000 0.11697  0.00863  0.21533  Biso   1.000  H
  H120     1.0000 0.08867  0.99943  0.26063  Biso   1.000  H
  C61      1.0000 0.27397  0.08173  0.44473  Biso   1.000  C
  C62      1.0000 0.30687  0.23013  0.46653  Biso   1.000  C
  H121     1.0000 0.31497  0.22633  0.50283  Biso   1.000  H
  H122     1.0000 0.32817  0.25593  0.45263  Biso   1.000  H
  C63      1.0000 0.30347  0.19773  0.43053  Biso   1.000  C
  C64      1.0000 0.18807  0.10933  0.46883  Biso   1.000  C
  C65      1.0000 0.25947  0.06393  0.17763  Biso   1.000  C
  H123     1.0000 0.25857  0.03833  0.17133  Biso   1.000  H
  H124     1.0000 0.24747  0.06933  0.14583  Biso   1.000  H
  C66      1.0000 0.23407  0.05963  0.22723  Biso   1.000  C
  C67      1.0000 0.24477  0.19843  0.18393  Biso   1.000  C
  H125     1.0000 0.26807  0.22193  0.16793  Biso   1.000  H
  H126     1.0000 0.22857  0.18103  0.15393  Biso   1.000  H
  C68      1.0000 0.25967  0.17583  0.21833  Biso   1.000  C
  C69      1.0000 0.11237  0.05563  0.23663  Biso   1.000  C
  H127     1.0000 0.08797  0.05343  0.25263  Biso   1.000  H
  H128     1.0000 0.11117  0.05893  0.19723  Biso   1.000  H
  C70      1.0000 0.14917  0.09333  0.25973  Biso   1.000  C
  C71      1.0000 0.41777  0.19763  0.37233  Biso   1.000  C
  H129     1.0000 0.44097  0.21663  0.35383  Biso   1.000  H
  C72      1.0000 0.15857  0.22403  0.28733  Biso   1.000  C
  H130     1.0000 0.14987  0.24033  0.30393  Biso   1.000  H
  C73      1.0000 0.13027  0.94333  0.28873  Biso   1.000  C
  H131     1.0000 0.12947  0.92003  0.30223  Biso   1.000  H
  C74      1.0000 0.16937  0.07743  0.51623  Biso   1.000  C
  H132     1.0000 0.18987  0.08403  0.54423  Biso   1.000  H
  H133     1.0000 0.14727  0.07943  0.53283  Biso   1.000  H
  C75      1.0000 0.31187  0.08713  0.46883  Biso   1.000  C
  H134     1.0000 0.31367  0.09563  0.50683  Biso   1.000  H
  H135     1.0000 0.31137  0.06143  0.46853  Biso   1.000  H
  Tb11     1.0000 0.90206  0.45319  0.67484  Biso   1.000  Tb
  Tb12     1.0000 0.12524  0.56211  0.83365  Biso   1.000  Tb
  Cu31     1.0000 0.99915  0.47327  0.71006  Biso   1.000  Cu
  Cu32     1.0000 0.89732  0.52916  0.74943  Biso   1.000  Cu
  Cu33     1.0000 0.84655  0.37166  0.76113  Biso   1.000  Cu
  Cu34     1.0000 0.97393  0.46145  0.58083  Biso   1.000  Cu
  Cu35     1.0000 0.87314  0.51993  0.61891  Biso   1.000  Cu
  Cu36     1.0000 0.82242  0.36068  0.63266  Biso   1.000  Cu
  O106     1.0000 0.94289  0.43502  0.73543  Biso   1.000  O
  O107     1.0000 0.90899  0.39067  0.80137  Biso   1.000  O
  O108     1.0000 0.93716  0.51058  0.73791  Biso   1.000  O
  O109     1.0000 0.99985  0.52588  0.76047  Biso   1.000  O
  O110     1.0000 0.86119  0.42932  0.75875  Biso   1.000  O
  O111     1.0000 0.86138  0.47739  0.81007  Biso   1.000  O
  O112     1.0000 0.91662  0.42179  0.59501  Biso   1.000  O
  O113     1.0000 0.86606  0.36379  0.56377  Biso   1.000  O
  O114     1.0000 0.91182  0.50041  0.60049  Biso   1.000  O
  O115     1.0000 0.95063  0.50001  0.53313  Biso   1.000  O
  O116     1.0000 0.83878  0.41897  0.62365  Biso   1.000  O
  O117     1.0000 0.82097  0.46027  0.58357  Biso   1.000  O
  O118     1.0000 0.97286  0.48598  0.65047  Biso   1.000  O
  O119     1.0000 0.86819  0.49300  0.68920  Biso   1.000  O
  O120     1.0000 0.86674  0.38100  0.68622  Biso   1.000  O
  O121     1.0000 0.05256  0.50859  0.67732  Biso   1.000  O
  O122     1.0000 0.08616  0.52867  0.75667  Biso   1.000  O
  O123     1.0000 0.84701  0.54887  0.64767  Biso   1.000  O
  O124     1.0000 0.81388  0.54620  0.57327  Biso   1.000  O
  O125     1.0000 0.80763  0.30545  0.65487  Biso   1.000  O
  O126     1.0000 0.78728  0.27612  0.57307  Biso   1.000  O
  N31      1.0000 0.01443  0.45067  0.77247  Biso   1.000  N
  H136     1.0000 0.02853  0.43907  0.76007  Biso   1.000  H
  H137     1.0000 0.03063  0.47087  0.79547  Biso   1.000  H
  N32      1.0000 0.93643  0.56527  0.80477  Biso   1.000  N
  H138     1.0000 0.94183  0.59097  0.79947  Biso   1.000  H
  H139     1.0000 0.92593  0.55747  0.83867  Biso   1.000  H
  N33      1.0000 0.82103  0.36967  0.83207  Biso   1.000  N
  H140     1.0000 0.79383  0.35677  0.82847  Biso   1.000  H
  H141     1.0000 0.82743  0.35627  0.85697  Biso   1.000  H
  N34      1.0000 0.96727  0.42841  0.51537  Biso   1.000  N
  H142     1.0000 0.97453  0.44417  0.48517  Biso   1.000  H
  H143     1.0000 0.98333  0.41737  0.51797  Biso   1.000  H
  N35      1.0000 0.88773  0.54517  0.54657  Biso   1.000  N
  H144     1.0000 0.86503  0.53877  0.52747  Biso   1.000  H
  H145     1.0000 0.90203  0.57237  0.55027  Biso   1.000  H
  N36      1.0000 0.77955  0.35159  0.58037  Biso   1.000  N
  H146     1.0000 0.78363  0.34197  0.54867  Biso   1.000  H
  H147     1.0000 0.75533  0.33277  0.59397  Biso   1.000  H
  C76      1.0000 0.94063  0.41507  0.77807  Biso   1.000  C
  C77      1.0000 0.97353  0.56347  0.79987  Biso   1.000  C
  H148     1.0000 0.98163  0.55967  0.83617  Biso   1.000  H
  H149     1.0000 0.99483  0.58927  0.78597  Biso   1.000  H
  C78      1.0000 0.97013  0.53107  0.76387  Biso   1.000  C
  C79      1.0000 0.85473  0.44267  0.80217  Biso   1.000  C
  C80      1.0000 0.92613  0.39727  0.51097  Biso   1.000  C
  H150     1.0000 0.92523  0.37167  0.50467  Biso   1.000  H
  H151     1.0000 0.91413  0.40267  0.47917  Biso   1.000  H
  C81      1.0000 0.90073  0.39297  0.56057  Biso   1.000  C
  C82      1.0000 0.91143  0.53177  0.51727  Biso   1.000  C
  H152     1.0000 0.93473  0.55527  0.50127  Biso   1.000  H
  H153     1.0000 0.89523  0.51437  0.48727  Biso   1.000  H
  C83      1.0000 0.92633  0.50917  0.55167  Biso   1.000  C
  C84      1.0000 0.77903  0.38897  0.56997  Biso   1.000  C
  H154     1.0000 0.75463  0.38677  0.58597  Biso   1.000  H
  H155     1.0000 0.77783  0.39227  0.53057  Biso   1.000  H
  C85      1.0000 0.81583  0.42667  0.59307  Biso   1.000  C
  C86      1.0000 0.08443  0.53097  0.70567  Biso   1.000  C
  H156     1.0000 0.10763  0.54997  0.68717  Biso   1.000  H
  C87      1.0000 0.82523  0.55737  0.62067  Biso   1.000  C
  H157     1.0000 0.81653  0.57367  0.63727  Biso   1.000  H
  C88      1.0000 0.79693  0.27667  0.62207  Biso   1.000  C
  H158     1.0000 0.79613  0.25337  0.63557  Biso   1.000  H
  C89      1.0000 0.83603  0.41077  0.84957  Biso   1.000  C
  H159     1.0000 0.85653  0.41737  0.87757  Biso   1.000  H
  H160     1.0000 0.81393  0.41277  0.86617  Biso   1.000  H
  C90      1.0000 0.97853  0.42047  0.80217  Biso   1.000  C
  H161     1.0000 0.98033  0.42897  0.84017  Biso   1.000  H
  H162     1.0000 0.97803  0.39477  0.80187  Biso   1.000  H
  Tb13     1.0000 0.21348  0.78221  0.00817  Biso   1.000  Tb
  Tb14     1.0000 0.10455  0.89646  0.16699  Biso   1.000  Tb
  Cu37     1.0000 0.19340  0.85922  0.04339  Biso   1.000  Cu
  Cu38     1.0000 0.13751  0.70150  0.08276  Biso   1.000  Cu
  Cu39     1.0000 0.29501  0.80823  0.09446  Biso   1.000  Cu
  Cu40     1.0000 0.20522  0.84582  0.91416  Biso   1.000  Cu
  Cu41     1.0000 0.14674  0.68655  0.95224  Biso   1.000  Cu
  Cu42     1.0000 0.30599  0.79508  0.96599  Biso   1.000  Cu
  O127     1.0000 0.23165  0.84121  0.06876  Biso   1.000  O
  O128     1.0000 0.27600  0.85166  0.13470  Biso   1.000  O
  O129     1.0000 0.15609  0.75992  0.07124  Biso   1.000  O
  O130     1.0000 0.14079  0.80731  0.09380  Biso   1.000  O
  O131     1.0000 0.23735  0.76521  0.09208  Biso   1.000  O
  O132     1.0000 0.18928  0.71733  0.14340  Biso   1.000  O
  O133     1.0000 0.24488  0.82817  0.92834  Biso   1.000  O
  O134     1.0000 0.30288  0.83561  0.89710  Biso   1.000  O
  O135     1.0000 0.16626  0.74475  0.93382  Biso   1.000  O
  O136     1.0000 0.16666  0.78396  0.86646  Biso   1.000  O
  O137     1.0000 0.24770  0.75315  0.95698  Biso   1.000  O
  O138     1.0000 0.20640  0.69404  0.91690  Biso   1.000  O
  O139     1.0000 0.18069  0.82022  0.98380  Biso   1.000  O
  O140     1.0000 0.17367  0.70853  0.02253  Biso   1.000  O
  O141     1.0000 0.28567  0.81908  0.01955  Biso   1.000  O
  O142     1.0000 0.15808  0.87731  0.01065  Biso   1.000  O
  O143     1.0000 0.13800  0.89083  0.09000  Biso   1.000  O
  O144     1.0000 0.11780  0.63148  0.98100  Biso   1.000  O
  O145     1.0000 0.12047  0.60102  0.90660  Biso   1.000  O
  O146     1.0000 0.36122  0.83552  0.98820  Biso   1.000  O
  O147     1.0000 0.39055  0.84450  0.90640  Biso   1.000  O
  N37      1.0000 0.21600  0.89710  0.10580  Biso   1.000  N
  H163     1.0000 0.22760  0.92280  0.09340  Biso   1.000  H
  H164     1.0000 0.19580  0.89310  0.12880  Biso   1.000  H
  N38      1.0000 0.10140  0.70450  0.13810  Biso   1.000  N
  H165     1.0000 0.07570  0.68420  0.13280  Biso   1.000  H
  H166     1.0000 0.10920  0.70180  0.17200  Biso   1.000  H
  N39      1.0000 0.29700  0.78470  0.16540  Biso   1.000  N
  H167     1.0000 0.30990  0.77040  0.16180  Biso   1.000  H
  H168     1.0000 0.31040  0.80450  0.19030  Biso   1.000  H
  N40      1.0000 0.23826  0.87220  0.84870  Biso   1.000  N
  H169     1.0000 0.22250  0.86370  0.81850  Biso   1.000  H
  H170     1.0000 0.24930  0.89930  0.85130  Biso   1.000  H
  N41      1.0000 0.12150  0.67590  0.87990  Biso   1.000  N
  H171     1.0000 0.12790  0.65960  0.86080  Biso   1.000  H
  H172     1.0000 0.09430  0.66300  0.88360  Biso   1.000  H
  N42      1.0000 0.31508  0.76130  0.91370  Biso   1.000  N
  H173     1.0000 0.32470  0.77500  0.88200  Biso   1.000  H
  H174     1.0000 0.33390  0.75590  0.92730  Biso   1.000  H
  C91      1.0000 0.25160  0.85890  0.11140  Biso   1.000  C
  C92      1.0000 0.10320  0.74340  0.13320  Biso   1.000  C
  H175     1.0000 0.10700  0.75530  0.16950  Biso   1.000  H
  H176     1.0000 0.07740  0.73890  0.11930  Biso   1.000  H
  C93      1.0000 0.13560  0.77240  0.09720  Biso   1.000  C
  C94      1.0000 0.22400  0.74540  0.13550  Biso   1.000  C
  C95      1.0000 0.26940  0.86220  0.84430  Biso   1.000  C
  H177     1.0000 0.29500  0.88690  0.83800  Biso   1.000  H
  H178     1.0000 0.26400  0.84480  0.81250  Biso   1.000  H
  C96      1.0000 0.27370  0.84110  0.89390  Biso   1.000  C
  C97      1.0000 0.13490  0.71300  0.85060  Biso   1.000  C
  H179     1.0000 0.11140  0.71280  0.83460  Biso   1.000  H
  H180     1.0000 0.15230  0.71420  0.82060  Biso   1.000  H
  C98      1.0000 0.15750  0.75050  0.88500  Biso   1.000  C
  C99      1.0000 0.27770  0.72340  0.90330  Biso   1.000  C
  H181     1.0000 0.27990  0.70120  0.91930  Biso   1.000  H
  H182     1.0000 0.27440  0.71890  0.86390  Biso   1.000  H
  C100     1.0000 0.24000  0.72250  0.92640  Biso   1.000  C
  C101     1.0000 0.13570  0.88680  0.03900  Biso   1.000  C
  H183     1.0000 0.11670  0.89100  0.02050  Biso   1.000  H
  C102     1.0000 0.10930  0.60120  0.95400  Biso   1.000  C
  H184     1.0000 0.09300  0.57620  0.97060  Biso   1.000  H
  C103     1.0000 0.39000  0.85360  0.95540  Biso   1.000  C
  H185     1.0000 0.41330  0.87610  0.96890  Biso   1.000  H
  C104     1.0000 0.25590  0.75860  0.18290  Biso   1.000  C
  H186     1.0000 0.24930  0.77250  0.21090  Biso   1.000  H
  H187     1.0000 0.25390  0.73450  0.19950  Biso   1.000  H
  C105     1.0000 0.24620  0.89140  0.13550  Biso   1.000  C
  H188     1.0000 0.23770  0.88470  0.17350  Biso   1.000  H
  H189     1.0000 0.27190  0.91660  0.13520  Biso   1.000  H
  Tb15     1.0000 0.88015  0.11554  0.34150  Biso   1.000  Tb
  Tb16     1.0000 0.77122  0.22980  0.50032  Biso   1.000  Tb
  Cu43     1.0000 0.86007  0.19255  0.37672  Biso   1.000  Cu
  Cu44     1.0000 0.80418  0.03483  0.41609  Biso   1.000  Cu
  Cu45     1.0000 0.96168  0.14156  0.42779  Biso   1.000  Cu
  Cu46     1.0000 0.87189  0.17915  0.24749  Biso   1.000  Cu
  Cu47     1.0000 0.81341  0.01988  0.28557  Biso   1.000  Cu
  Cu48     1.0000 0.97266  0.12841  0.29932  Biso   1.000  Cu
  O148     1.0000 0.89832  0.17454  0.40209  Biso   1.000  O
  O149     1.0000 0.94267  0.18499  0.46803  Biso   1.000  O
  O150     1.0000 0.82276  0.09325  0.40457  Biso   1.000  O
  O151     1.0000 0.80746  0.14064  0.42713  Biso   1.000  O
  O152     1.0000 0.90402  0.09854  0.42541  Biso   1.000  O
  O153     1.0000 0.85595  0.05066  0.47673  Biso   1.000  O
  O154     1.0000 0.91155  0.16150  0.26167  Biso   1.000  O
  O155     1.0000 0.96955  0.16894  0.23043  Biso   1.000  O
  O156     1.0000 0.83293  0.07808  0.26715  Biso   1.000  O
  O157     1.0000 0.83333  0.11729  0.19979  Biso   1.000  O
  O158     1.0000 0.91437  0.08648  0.29031  Biso   1.000  O
  O159     1.0000 0.87307  0.02737  0.25023  Biso   1.000  O
  O160     1.0000 0.84736  0.15355  0.31713  Biso   1.000  O
  O161     1.0000 0.84034  0.04186  0.35586  Biso   1.000  O
  O162     1.0000 0.95234  0.15241  0.35288  Biso   1.000  O
  O163     1.0000 0.82475  0.21064  0.34398  Biso   1.000  O
  O164     1.0000 0.80467  0.22416  0.42333  Biso   1.000  O
  O165     1.0000 0.78447  0.96481  0.31433  Biso   1.000  O
  O166     1.0000 0.78714  0.93435  0.23993  Biso   1.000  O
  O167     1.0000 0.02789  0.16885  0.32153  Biso   1.000  O
  O168     1.0000 0.05722  0.17783  0.23973  Biso   1.000  O
  N43      1.0000 0.88267  0.23043  0.43913  Biso   1.000  N
  H190     1.0000 0.89427  0.25613  0.42673  Biso   1.000  H
  H191     1.0000 0.86247  0.22643  0.46213  Biso   1.000  H
  N44      1.0000 0.76807  0.03783  0.47143  Biso   1.000  N
  H192     1.0000 0.74237  0.01753  0.46613  Biso   1.000  H
  H193     1.0000 0.77587  0.03513  0.50533  Biso   1.000  H
  N45      1.0000 0.96367  0.11803  0.49873  Biso   1.000  N
  H194     1.0000 0.97657  0.10373  0.49513  Biso   1.000  H
  H195     1.0000 0.97707  0.13783  0.52363  Biso   1.000  H
  N46      1.0000 0.90493  0.20553  0.18203  Biso   1.000  N
  H196     1.0000 0.88917  0.19703  0.15183  Biso   1.000  H
  H197     1.0000 0.91597  0.23263  0.18463  Biso   1.000  H
  N47      1.0000 0.78817  0.00923  0.21323  Biso   1.000  N
  H198     1.0000 0.79457  0.99293  0.19413  Biso   1.000  H
  H199     1.0000 0.76097  0.99633  0.21693  Biso   1.000  H
  N48      1.0000 0.98175  0.09463  0.24703  Biso   1.000  N
  H200     1.0000 0.99137  0.10833  0.21533  Biso   1.000  H
  H201     1.0000 0.00057  0.08923  0.26063  Biso   1.000  H
  C106     1.0000 0.91827  0.19223  0.44473  Biso   1.000  C
  C107     1.0000 0.76987  0.07673  0.46653  Biso   1.000  C
  H202     1.0000 0.77367  0.08863  0.50283  Biso   1.000  H
  H203     1.0000 0.74407  0.07223  0.45263  Biso   1.000  H
  C108     1.0000 0.80227  0.10573  0.43053  Biso   1.000  C
  C109     1.0000 0.89067  0.07873  0.46883  Biso   1.000  C
  C110     1.0000 0.93607  0.19553  0.17763  Biso   1.000  C
  H204     1.0000 0.96167  0.22023  0.17133  Biso   1.000  H
  H205     1.0000 0.93067  0.17813  0.14583  Biso   1.000  H
  C111     1.0000 0.94037  0.17443  0.22723  Biso   1.000  C
  C112     1.0000 0.80157  0.04633  0.18393  Biso   1.000  C
  H206     1.0000 0.77807  0.04613  0.16793  Biso   1.000  H
  H207     1.0000 0.81897  0.04753  0.15393  Biso   1.000  H
  C113     1.0000 0.82417  0.08383  0.21833  Biso   1.000  C
  C114     1.0000 0.94437  0.05673  0.23663  Biso   1.000  C
  H208     1.0000 0.94657  0.03453  0.25263  Biso   1.000  H
  H209     1.0000 0.94107  0.05223  0.19723  Biso   1.000  H
  C115     1.0000 0.90667  0.05583  0.25973  Biso   1.000  C
  C116     1.0000 0.80237  0.22013  0.37233  Biso   1.000  C
  H210     1.0000 0.78337  0.22433  0.35383  Biso   1.000  H
  C117     1.0000 0.77597  0.93453  0.28733  Biso   1.000  C
  H211     1.0000 0.75967  0.90953  0.30393  Biso   1.000  H
  C118     1.0000 0.05667  0.18693  0.28873  Biso   1.000  C
  H212     1.0000 0.07997  0.20943  0.30223  Biso   1.000  H
  C119     1.0000 0.92257  0.09193  0.51623  Biso   1.000  C
  H213     1.0000 0.91597  0.10583  0.54423  Biso   1.000  H
  H214     1.0000 0.92057  0.06783  0.53283  Biso   1.000  H
  C120     1.0000 0.91287  0.22473  0.46883  Biso   1.000  C
  H215     1.0000 0.90437  0.21803  0.50683  Biso   1.000  H
  H216     1.0000 0.93857  0.24993  0.46853  Biso   1.000  H
  Tb17     1.0000 0.54681  0.44888  0.67484  Biso   1.000  Tb
  Tb18     1.0000 0.43789  0.56313  0.83365  Biso   1.000  Tb
  Cu49     1.0000 0.52673  0.52589  0.71006  Biso   1.000  Cu
  Cu50     1.0000 0.47084  0.36817  0.74943  Biso   1.000  Cu
  Cu51     1.0000 0.62834  0.47490  0.76113  Biso   1.000  Cu
  Cu52     1.0000 0.53855  0.51249  0.58083  Biso   1.000  Cu
  Cu53     1.0000 0.48007  0.35322  0.61891  Biso   1.000  Cu
  Cu54     1.0000 0.63932  0.46175  0.63266  Biso   1.000  Cu
  O169     1.0000 0.56498  0.50788  0.73543  Biso   1.000  O
  O170     1.0000 0.60933  0.51833  0.80137  Biso   1.000  O
  O171     1.0000 0.48942  0.42659  0.73791  Biso   1.000  O
  O172     1.0000 0.47412  0.47398  0.76047  Biso   1.000  O
  O173     1.0000 0.57068  0.43188  0.75875  Biso   1.000  O
  O174     1.0000 0.52261  0.38400  0.81007  Biso   1.000  O
  O175     1.0000 0.57821  0.49484  0.59501  Biso   1.000  O
  O176     1.0000 0.63621  0.50228  0.56377  Biso   1.000  O
  O177     1.0000 0.49959  0.41142  0.60049  Biso   1.000  O
  O178     1.0000 0.49999  0.45063  0.53313  Biso   1.000  O
  O179     1.0000 0.58103  0.41982  0.62365  Biso   1.000  O
  O180     1.0000 0.53973  0.36071  0.58357  Biso   1.000  O
  O181     1.0000 0.51402  0.48689  0.65047  Biso   1.000  O
  O182     1.0000 0.50700  0.37520  0.68920  Biso   1.000  O
  O183     1.0000 0.61900  0.48575  0.68622  Biso   1.000  O
  O184     1.0000 0.49141  0.54398  0.67732  Biso   1.000  O
  O185     1.0000 0.47133  0.55750  0.75667  Biso   1.000  O
  O186     1.0000 0.45113  0.29815  0.64767  Biso   1.000  O
  O187     1.0000 0.45380  0.26769  0.57327  Biso   1.000  O
  O188     1.0000 0.69455  0.50219  0.65487  Biso   1.000  O
  O189     1.0000 0.72388  0.51117  0.57307  Biso   1.000  O
  N49      1.0000 0.54933  0.56377  0.77247  Biso   1.000  N
  H217     1.0000 0.56093  0.58947  0.76007  Biso   1.000  H
  H218     1.0000 0.52913  0.55977  0.79547  Biso   1.000  H
  N50      1.0000 0.43473  0.37117  0.80477  Biso   1.000  N
  H219     1.0000 0.40903  0.35087  0.79947  Biso   1.000  H
  H220     1.0000 0.44253  0.36847  0.83867  Biso   1.000  H
  N51      1.0000 0.63033  0.45137  0.83207  Biso   1.000  N
  H221     1.0000 0.64323  0.43707  0.82847  Biso   1.000  H
  H222     1.0000 0.64373  0.47117  0.85697  Biso   1.000  H
  N52      1.0000 0.57159  0.53887  0.51537  Biso   1.000  N
  H223     1.0000 0.55583  0.53037  0.48517  Biso   1.000  H
  H224     1.0000 0.58263  0.56597  0.51797  Biso   1.000  H
  N53      1.0000 0.45483  0.34257  0.54657  Biso   1.000  N
  H225     1.0000 0.46123  0.32627  0.52747  Biso   1.000  H
  H226     1.0000 0.42763  0.32967  0.55027  Biso   1.000  H
  N54      1.0000 0.64841  0.42797  0.58037  Biso   1.000  N
  H227     1.0000 0.65803  0.44167  0.54867  Biso   1.000  H
  H228     1.0000 0.66723  0.42257  0.59397  Biso   1.000  H
  C121     1.0000 0.58493  0.52557  0.77807  Biso   1.000  C
  C122     1.0000 0.43653  0.41007  0.79987  Biso   1.000  C
  H229     1.0000 0.44033  0.42197  0.83617  Biso   1.000  H
  H230     1.0000 0.41073  0.40557  0.78597  Biso   1.000  H
  C123     1.0000 0.46893  0.43907  0.76387  Biso   1.000  C
  C124     1.0000 0.55733  0.41207  0.80217  Biso   1.000  C
  C125     1.0000 0.60273  0.52887  0.51097  Biso   1.000  C
  H231     1.0000 0.62833  0.55357  0.50467  Biso   1.000  H
  H232     1.0000 0.59733  0.51147  0.47917  Biso   1.000  H
  C126     1.0000 0.60703  0.50777  0.56057  Biso   1.000  C
  C127     1.0000 0.46823  0.37967  0.51727  Biso   1.000  C
  H233     1.0000 0.44473  0.37947  0.50127  Biso   1.000  H
  H234     1.0000 0.48563  0.38087  0.48727  Biso   1.000  H
  C128     1.0000 0.49083  0.41717  0.55167  Biso   1.000  C
  C129     1.0000 0.61103  0.39007  0.56997  Biso   1.000  C
  H235     1.0000 0.61323  0.36787  0.58597  Biso   1.000  H
  H236     1.0000 0.60773  0.38557  0.53057  Biso   1.000  H
  C130     1.0000 0.57333  0.38917  0.59307  Biso   1.000  C
  C131     1.0000 0.46903  0.55347  0.70567  Biso   1.000  C
  H237     1.0000 0.45003  0.55767  0.68717  Biso   1.000  H
  C132     1.0000 0.44263  0.26787  0.62067  Biso   1.000  C
  H238     1.0000 0.42633  0.24287  0.63727  Biso   1.000  H
  C133     1.0000 0.72333  0.52027  0.62207  Biso   1.000  C
  H239     1.0000 0.74663  0.54277  0.63557  Biso   1.000  H
  C134     1.0000 0.58923  0.42527  0.84957  Biso   1.000  C
  H240     1.0000 0.58263  0.43917  0.87757  Biso   1.000  H
  H241     1.0000 0.58723  0.40117  0.86617  Biso   1.000  H
  C135     1.0000 0.57953  0.55807  0.80217  Biso   1.000  C
  H242     1.0000 0.57103  0.55137  0.84017  Biso   1.000  H
  H243     1.0000 0.60523  0.58327  0.80187  Biso   1.000  H
  Tb19     1.0000 0.78221  0.56873  0.99183  Biso   1.000  Tb
  Tb20     1.0000 0.89646  0.79191  0.83301  Biso   1.000  Tb
  Cu55     1.0000 0.85922  0.66582  0.95661  Biso   1.000  Cu
  Cu56     1.0000 0.70150  0.56399  0.91724  Biso   1.000  Cu
  Cu57     1.0000 0.80823  0.51322  0.90554  Biso   1.000  Cu
  Cu58     1.0000 0.84582  0.64060  0.08584  Biso   1.000  Cu
  Cu59     1.0000 0.68655  0.53981  0.04776  Biso   1.000  Cu
  Cu60     1.0000 0.79508  0.48909  0.03401  Biso   1.000  Cu
  O190     1.0000 0.84121  0.60956  0.93124  Biso   1.000  O
  O191     1.0000 0.85166  0.57566  0.86530  Biso   1.000  O
  O192     1.0000 0.75992  0.60383  0.92876  Biso   1.000  O
  O193     1.0000 0.80731  0.66652  0.90620  Biso   1.000  O
  O194     1.0000 0.76521  0.52786  0.90792  Biso   1.000  O
  O195     1.0000 0.71733  0.52805  0.85660  Biso   1.000  O
  O196     1.0000 0.82817  0.58329  0.07166  Biso   1.000  O
  O197     1.0000 0.83561  0.53273  0.10290  Biso   1.000  O
  O198     1.0000 0.74475  0.57849  0.06618  Biso   1.000  O
  O199     1.0000 0.78396  0.61730  0.13354  Biso   1.000  O
  O200     1.0000 0.75315  0.50545  0.04302  Biso   1.000  O
  O201     1.0000 0.69404  0.48764  0.08310  Biso   1.000  O
  O202     1.0000 0.82022  0.63953  0.01620  Biso   1.000  O
  O203     1.0000 0.70853  0.53486  0.97747  Biso   1.000  O
  O204     1.0000 0.81908  0.53341  0.98045  Biso   1.000  O
  O205     1.0000 0.87731  0.71923  0.98935  Biso   1.000  O
  O206     1.0000 0.89083  0.75283  0.91000  Biso   1.000  O
  O207     1.0000 0.63148  0.51368  0.01900  Biso   1.000  O
  O208     1.0000 0.60102  0.48055  0.09340  Biso   1.000  O
  O209     1.0000 0.83552  0.47430  0.01180  Biso   1.000  O
  O210     1.0000 0.84450  0.45395  0.09360  Biso   1.000  O
  N55      1.0000 0.89710  0.68110  0.89420  Biso   1.000  N
  H244     1.0000 0.92280  0.69520  0.90660  Biso   1.000  H
  H245     1.0000 0.89310  0.69730  0.87120  Biso   1.000  H
  N56      1.0000 0.70450  0.60310  0.86190  Biso   1.000  N
  H246     1.0000 0.68420  0.60850  0.86720  Biso   1.000  H
  H247     1.0000 0.70180  0.59260  0.82800  Biso   1.000  H
  N57      1.0000 0.78470  0.48770  0.83460  Biso   1.000  N
  H248     1.0000 0.77040  0.46050  0.83820  Biso   1.000  H
  H249     1.0000 0.80450  0.49410  0.80970  Biso   1.000  H
  N58      1.0000 0.87220  0.63394  0.15130  Biso   1.000  N
  H250     1.0000 0.86370  0.64120  0.18150  Biso   1.000  H
  H251     1.0000 0.89930  0.65000  0.14870  Biso   1.000  H
  N59      1.0000 0.67590  0.55440  0.12010  Biso   1.000  N
  H252     1.0000 0.65960  0.53170  0.13920  Biso   1.000  H
  H253     1.0000 0.66300  0.56870  0.11640  Biso   1.000  H
  N60      1.0000 0.76130  0.44622  0.08630  Biso   1.000  N
  H254     1.0000 0.77500  0.45030  0.11800  Biso   1.000  H
  H255     1.0000 0.75590  0.42200  0.07270  Biso   1.000  H
  C136     1.0000 0.85890  0.60730  0.88860  Biso   1.000  C
  C137     1.0000 0.74340  0.64020  0.86680  Biso   1.000  C
  H256     1.0000 0.75530  0.64830  0.83050  Biso   1.000  H
  H257     1.0000 0.73890  0.66150  0.88070  Biso   1.000  H
  C138     1.0000 0.77240  0.63680  0.90280  Biso   1.000  C
  C139     1.0000 0.74540  0.52140  0.86450  Biso   1.000  C
  C140     1.0000 0.86220  0.59280  0.15570  Biso   1.000  C
  H258     1.0000 0.88690  0.59190  0.16200  Biso   1.000  H
  H259     1.0000 0.84480  0.58080  0.18750  Biso   1.000  H
  C141     1.0000 0.84110  0.56740  0.10610  Biso   1.000  C
  C142     1.0000 0.71300  0.57810  0.14940  Biso   1.000  C
  H260     1.0000 0.71280  0.60140  0.16540  Biso   1.000  H
  H261     1.0000 0.71420  0.56190  0.17940  Biso   1.000  H
  C143     1.0000 0.75050  0.59300  0.11500  Biso   1.000  C
  C144     1.0000 0.72340  0.44570  0.09670  Biso   1.000  C
  H262     1.0000 0.70120  0.42130  0.08070  Biso   1.000  H
  H263     1.0000 0.71890  0.44450  0.13610  Biso   1.000  H
  C145     1.0000 0.72250  0.48250  0.07360  Biso   1.000  C
  C146     1.0000 0.88680  0.75110  0.96100  Biso   1.000  C
  H264     1.0000 0.89100  0.77430  0.97950  Biso   1.000  H
  C147     1.0000 0.60120  0.49190  0.04600  Biso   1.000  C
  H265     1.0000 0.57620  0.48320  0.02940  Biso   1.000  H
  C148     1.0000 0.85360  0.46360  0.04460  Biso   1.000  C
  H266     1.0000 0.87610  0.46280  0.03110  Biso   1.000  H
  C149     1.0000 0.75860  0.50270  0.81710  Biso   1.000  C
  H267     1.0000 0.77250  0.52320  0.78910  Biso   1.000  H
  H268     1.0000 0.73450  0.48060  0.80050  Biso   1.000  H
  C150     1.0000 0.89140  0.64520  0.86450  Biso   1.000  C
  H269     1.0000 0.88470  0.64700  0.82650  Biso   1.000  H
  H270     1.0000 0.91660  0.64470  0.86480  Biso   1.000  H
  Tb21     1.0000 0.44888  0.90206  0.32516  Biso   1.000  Tb
  Tb22     1.0000 0.56313  0.12524  0.16635  Biso   1.000  Tb
  Cu61     1.0000 0.52589  0.99915  0.28994  Biso   1.000  Cu
  Cu62     1.0000 0.36817  0.89732  0.25057  Biso   1.000  Cu
  Cu63     1.0000 0.47490  0.84655  0.23887  Biso   1.000  Cu
  Cu64     1.0000 0.51249  0.97393  0.41917  Biso   1.000  Cu
  Cu65     1.0000 0.35322  0.87314  0.38109  Biso   1.000  Cu
  Cu66     1.0000 0.46175  0.82242  0.36734  Biso   1.000  Cu
  O211     1.0000 0.50788  0.94289  0.26457  Biso   1.000  O
  O212     1.0000 0.51833  0.90899  0.19863  Biso   1.000  O
  O213     1.0000 0.42659  0.93716  0.26209  Biso   1.000  O
  O214     1.0000 0.47398  0.99985  0.23953  Biso   1.000  O
  O215     1.0000 0.43188  0.86119  0.24125  Biso   1.000  O
  O216     1.0000 0.38400  0.86138  0.18993  Biso   1.000  O
  O217     1.0000 0.49484  0.91662  0.40499  Biso   1.000  O
  O218     1.0000 0.50228  0.86606  0.43623  Biso   1.000  O
  O219     1.0000 0.41142  0.91182  0.39951  Biso   1.000  O
  O220     1.0000 0.45063  0.95063  0.46687  Biso   1.000  O
  O221     1.0000 0.41982  0.83878  0.37635  Biso   1.000  O
  O222     1.0000 0.36071  0.82097  0.41643  Biso   1.000  O
  O223     1.0000 0.48689  0.97286  0.34953  Biso   1.000  O
  O224     1.0000 0.37520  0.86819  0.31080  Biso   1.000  O
  O225     1.0000 0.48575  0.86674  0.31378  Biso   1.000  O
  O226     1.0000 0.54398  0.05256  0.32268  Biso   1.000  O
  O227     1.0000 0.55750  0.08616  0.24333  Biso   1.000  O
  O228     1.0000 0.29815  0.84701  0.35233  Biso   1.000  O
  O229     1.0000 0.26769  0.81388  0.42673  Biso   1.000  O
  O230     1.0000 0.50219  0.80763  0.34513  Biso   1.000  O
  O231     1.0000 0.51117  0.78728  0.42693  Biso   1.000  O
  N61      1.0000 0.56377  0.01443  0.22753  Biso   1.000  N
  H271     1.0000 0.58947  0.02853  0.23993  Biso   1.000  H
  H272     1.0000 0.55977  0.03063  0.20453  Biso   1.000  H
  N62      1.0000 0.37117  0.93643  0.19523  Biso   1.000  N
  H273     1.0000 0.35087  0.94183  0.20053  Biso   1.000  H
  H274     1.0000 0.36847  0.92593  0.16133  Biso   1.000  H
  N63      1.0000 0.45137  0.82103  0.16793  Biso   1.000  N
  H275     1.0000 0.43707  0.79383  0.17153  Biso   1.000  H
  H276     1.0000 0.47117  0.82743  0.14303  Biso   1.000  H
  N64      1.0000 0.53887  0.96727  0.48463  Biso   1.000  N
  H277     1.0000 0.53037  0.97453  0.51483  Biso   1.000  H
  H278     1.0000 0.56597  0.98333  0.48203  Biso   1.000  H
  N65      1.0000 0.34257  0.88773  0.45343  Biso   1.000  N
  H279     1.0000 0.32627  0.86503  0.47253  Biso   1.000  H
  H280     1.0000 0.32967  0.90203  0.44973  Biso   1.000  H
  N66      1.0000 0.42797  0.77955  0.41963  Biso   1.000  N
  H281     1.0000 0.44167  0.78363  0.45133  Biso   1.000  H
  H282     1.0000 0.42257  0.75533  0.40603  Biso   1.000  H
  C151     1.0000 0.52557  0.94063  0.22193  Biso   1.000  C
  C152     1.0000 0.41007  0.97353  0.20013  Biso   1.000  C
  H283     1.0000 0.42197  0.98163  0.16383  Biso   1.000  H
  H284     1.0000 0.40557  0.99483  0.21403  Biso   1.000  H
  C153     1.0000 0.43907  0.97013  0.23613  Biso   1.000  C
  C154     1.0000 0.41207  0.85473  0.19783  Biso   1.000  C
  C155     1.0000 0.52887  0.92613  0.48903  Biso   1.000  C
  H285     1.0000 0.55357  0.92523  0.49533  Biso   1.000  H
  H286     1.0000 0.51147  0.91413  0.52083  Biso   1.000  H
  C156     1.0000 0.50777  0.90073  0.43943  Biso   1.000  C
  C157     1.0000 0.37967  0.91143  0.48273  Biso   1.000  C
  H287     1.0000 0.37947  0.93473  0.49873  Biso   1.000  H
  H288     1.0000 0.38087  0.89523  0.51273  Biso   1.000  H
  C158     1.0000 0.41717  0.92633  0.44833  Biso   1.000  C
  C159     1.0000 0.39007  0.77903  0.43003  Biso   1.000  C
  H289     1.0000 0.36787  0.75463  0.41403  Biso   1.000  H
  H290     1.0000 0.38557  0.77783  0.46943  Biso   1.000  H
  C160     1.0000 0.38917  0.81583  0.40693  Biso   1.000  C
  C161     1.0000 0.55347  0.08443  0.29433  Biso   1.000  C
  H291     1.0000 0.55767  0.10763  0.31283  Biso   1.000  H
  C162     1.0000 0.26787  0.82523  0.37933  Biso   1.000  C
  H292     1.0000 0.24287  0.81653  0.36273  Biso   1.000  H
  C163     1.0000 0.52027  0.79693  0.37793  Biso   1.000  C
  H293     1.0000 0.54277  0.79613  0.36443  Biso   1.000  H
  C164     1.0000 0.42527  0.83603  0.15043  Biso   1.000  C
  H294     1.0000 0.43917  0.85653  0.12243  Biso   1.000  H
  H295     1.0000 0.40117  0.81393  0.13383  Biso   1.000  H
  C165     1.0000 0.55807  0.97853  0.19783  Biso   1.000  C
  H296     1.0000 0.55137  0.98033  0.15983  Biso   1.000  H
  H297     1.0000 0.58327  0.97803  0.19813  Biso   1.000  H
  Tb23     1.0000 0.11554  0.23540  0.65850  Biso   1.000  Tb
  Tb24     1.0000 0.22980  0.45858  0.49968  Biso   1.000  Tb
  Cu67     1.0000 0.19255  0.33249  0.62328  Biso   1.000  Cu
  Cu68     1.0000 0.03483  0.23066  0.58391  Biso   1.000  Cu
  Cu69     1.0000 0.14156  0.17989  0.57221  Biso   1.000  Cu
  Cu70     1.0000 0.17915  0.30727  0.75251  Biso   1.000  Cu
  Cu71     1.0000 0.01988  0.20648  0.71443  Biso   1.000  Cu
  Cu72     1.0000 0.12841  0.15576  0.70068  Biso   1.000  Cu
  O232     1.0000 0.17454  0.27623  0.59791  Biso   1.000  O
  O233     1.0000 0.18499  0.24233  0.53197  Biso   1.000  O
  O234     1.0000 0.09325  0.27050  0.59543  Biso   1.000  O
  O235     1.0000 0.14064  0.33319  0.57287  Biso   1.000  O
  O236     1.0000 0.09854  0.19453  0.57459  Biso   1.000  O
  O237     1.0000 0.05066  0.19472  0.52327  Biso   1.000  O
  O238     1.0000 0.16150  0.24996  0.73833  Biso   1.000  O
  O239     1.0000 0.16894  0.19940  0.76957  Biso   1.000  O
  O240     1.0000 0.07808  0.24516  0.73285  Biso   1.000  O
  O241     1.0000 0.11729  0.28397  0.80021  Biso   1.000  O
  O242     1.0000 0.08648  0.17212  0.70969  Biso   1.000  O
  O243     1.0000 0.02737  0.15431  0.74977  Biso   1.000  O
  O244     1.0000 0.15355  0.30620  0.68287  Biso   1.000  O
  O245     1.0000 0.04186  0.20153  0.64414  Biso   1.000  O
  O246     1.0000 0.15241  0.20008  0.64712  Biso   1.000  O
  O247     1.0000 0.21064  0.38590  0.65602  Biso   1.000  O
  O248     1.0000 0.22416  0.41950  0.57667  Biso   1.000  O
  O249     1.0000 0.96481  0.18035  0.68567  Biso   1.000  O
  O250     1.0000 0.93435  0.14722  0.76007  Biso   1.000  O
  O251     1.0000 0.16885  0.14097  0.67847  Biso   1.000  O
  O252     1.0000 0.17783  0.12062  0.76027  Biso   1.000  O
  N67      1.0000 0.23043  0.34777  0.56087  Biso   1.000  N
  H298     1.0000 0.25613  0.36187  0.57327  Biso   1.000  H
  H299     1.0000 0.22643  0.36397  0.53787  Biso   1.000  H
  N68      1.0000 0.03783  0.26977  0.52857  Biso   1.000  N
  H300     1.0000 0.01753  0.27517  0.53387  Biso   1.000  H
  H301     1.0000 0.03513  0.25927  0.49467  Biso   1.000  H
  N69      1.0000 0.11803  0.15437  0.50127  Biso   1.000  N
  H302     1.0000 0.10373  0.12717  0.50487  Biso   1.000  H
  H303     1.0000 0.13783  0.16077  0.47637  Biso   1.000  H
  N70      1.0000 0.20553  0.30061  0.81797  Biso   1.000  N
  H304     1.0000 0.19703  0.30787  0.84817  Biso   1.000  H
  H305     1.0000 0.23263  0.31667  0.81537  Biso   1.000  H
  N71      1.0000 0.00923  0.22107  0.78677  Biso   1.000  N
  H306     1.0000 0.99293  0.19837  0.80587  Biso   1.000  H
  H307     1.0000 0.99633  0.23537  0.78307  Biso   1.000  H
  N72      1.0000 0.09463  0.11289  0.75297  Biso   1.000  N
  H308     1.0000 0.10833  0.11697  0.78467  Biso   1.000  H
  H309     1.0000 0.08923  0.08867  0.73937  Biso   1.000  H
  C166     1.0000 0.19223  0.27397  0.55527  Biso   1.000  C
  C167     1.0000 0.07673  0.30687  0.53347  Biso   1.000  C
  H310     1.0000 0.08863  0.31497  0.49717  Biso   1.000  H
  H311     1.0000 0.07223  0.32817  0.54737  Biso   1.000  H
  C168     1.0000 0.10573  0.30347  0.56947  Biso   1.000  C
  C169     1.0000 0.07873  0.18807  0.53117  Biso   1.000  C
  C170     1.0000 0.19553  0.25947  0.82237  Biso   1.000  C
  H312     1.0000 0.22023  0.25857  0.82867  Biso   1.000  H
  H313     1.0000 0.17813  0.24747  0.85417  Biso   1.000  H
  C171     1.0000 0.17443  0.23407  0.77277  Biso   1.000  C
  C172     1.0000 0.04633  0.24477  0.81607  Biso   1.000  C
  H314     1.0000 0.04613  0.26807  0.83207  Biso   1.000  H
  H315     1.0000 0.04753  0.22857  0.84607  Biso   1.000  H
  C173     1.0000 0.08383  0.25967  0.78167  Biso   1.000  C
  C174     1.0000 0.05673  0.11237  0.76337  Biso   1.000  C
  H316     1.0000 0.03453  0.08797  0.74737  Biso   1.000  H
  H317     1.0000 0.05223  0.11117  0.80277  Biso   1.000  H
  C175     1.0000 0.05583  0.14917  0.74027  Biso   1.000  C
  C176     1.0000 0.22013  0.41777  0.62767  Biso   1.000  C
  H318     1.0000 0.22433  0.44097  0.64617  Biso   1.000  H
  C177     1.0000 0.93453  0.15857  0.71267  Biso   1.000  C
  H319     1.0000 0.90953  0.14987  0.69607  Biso   1.000  H
  C178     1.0000 0.18693  0.13027  0.71127  Biso   1.000  C
  H320     1.0000 0.20943  0.12947  0.69777  Biso   1.000  H
  C179     1.0000 0.09193  0.16937  0.48377  Biso   1.000  C
  H321     1.0000 0.10583  0.18987  0.45577  Biso   1.000  H
  H322     1.0000 0.06783  0.14727  0.46717  Biso   1.000  H
  C180     1.0000 0.22473  0.31187  0.53117  Biso   1.000  C
  H323     1.0000 0.21803  0.31367  0.49317  Biso   1.000  H
  H324     1.0000 0.24993  0.31137  0.53147  Biso   1.000  H
  Tb25     1.0000 0.43127  0.21348  0.99183  Biso   1.000  Tb
  Tb26     1.0000 0.20809  0.10455  0.83301  Biso   1.000  Tb
  Cu73     1.0000 0.33418  0.19340  0.95661  Biso   1.000  Cu
  Cu74     1.0000 0.43601  0.13751  0.91724  Biso   1.000  Cu
  Cu75     1.0000 0.48678  0.29501  0.90554  Biso   1.000  Cu
  Cu76     1.0000 0.35940  0.20522  0.08584  Biso   1.000  Cu
  Cu77     1.0000 0.46019  0.14674  0.04776  Biso   1.000  Cu
  Cu78     1.0000 0.51091  0.30599  0.03401  Biso   1.000  Cu
  O253     1.0000 0.39044  0.23165  0.93124  Biso   1.000  O
  O254     1.0000 0.42434  0.27600  0.86530  Biso   1.000  O
  O255     1.0000 0.39617  0.15609  0.92876  Biso   1.000  O
  O256     1.0000 0.33348  0.14079  0.90620  Biso   1.000  O
  O257     1.0000 0.47214  0.23735  0.90792  Biso   1.000  O
  O258     1.0000 0.47195  0.18928  0.85660  Biso   1.000  O
  O259     1.0000 0.41671  0.24488  0.07166  Biso   1.000  O
  O260     1.0000 0.46727  0.30288  0.10290  Biso   1.000  O
  O261     1.0000 0.42151  0.16626  0.06618  Biso   1.000  O
  O262     1.0000 0.38270  0.16666  0.13354  Biso   1.000  O
  O263     1.0000 0.49455  0.24770  0.04302  Biso   1.000  O
  O264     1.0000 0.51236  0.20640  0.08310  Biso   1.000  O
  O265     1.0000 0.36047  0.18069  0.01620  Biso   1.000  O
  O266     1.0000 0.46514  0.17367  0.97747  Biso   1.000  O
  O267     1.0000 0.46659  0.28567  0.98045  Biso   1.000  O
  O268     1.0000 0.28077  0.15808  0.98935  Biso   1.000  O
  O269     1.0000 0.24717  0.13800  0.91000  Biso   1.000  O
  O270     1.0000 0.48632  0.11780  0.01900  Biso   1.000  O
  O271     1.0000 0.51945  0.12047  0.09340  Biso   1.000  O
  O272     1.0000 0.52570  0.36122  0.01180  Biso   1.000  O
  O273     1.0000 0.54605  0.39055  0.09360  Biso   1.000  O
  N73      1.0000 0.31890  0.21600  0.89420  Biso   1.000  N
  H325     1.0000 0.30480  0.22760  0.90660  Biso   1.000  H
  H326     1.0000 0.30270  0.19580  0.87120  Biso   1.000  H
  N74      1.0000 0.39690  0.10140  0.86190  Biso   1.000  N
  H327     1.0000 0.39150  0.07570  0.86720  Biso   1.000  H
  H328     1.0000 0.40740  0.10920  0.82800  Biso   1.000  H
  N75      1.0000 0.51230  0.29700  0.83460  Biso   1.000  N
  H329     1.0000 0.53950  0.30990  0.83820  Biso   1.000  H
  H330     1.0000 0.50590  0.31040  0.80970  Biso   1.000  H
  N76      1.0000 0.36606  0.23826  0.15130  Biso   1.000  N
  H331     1.0000 0.35880  0.22250  0.18150  Biso   1.000  H
  H332     1.0000 0.35000  0.24930  0.14870  Biso   1.000  H
  N77      1.0000 0.44560  0.12150  0.12010  Biso   1.000  N
  H333     1.0000 0.46830  0.12790  0.13920  Biso   1.000  H
  H334     1.0000 0.43130  0.09430  0.11640  Biso   1.000  H
  N78      1.0000 0.55378  0.31508  0.08630  Biso   1.000  N
  H335     1.0000 0.54970  0.32470  0.11800  Biso   1.000  H
  H336     1.0000 0.57800  0.33390  0.07270  Biso   1.000  H
  C181     1.0000 0.39270  0.25160  0.88860  Biso   1.000  C
  C182     1.0000 0.35980  0.10320  0.86680  Biso   1.000  C
  H337     1.0000 0.35170  0.10700  0.83050  Biso   1.000  H
  H338     1.0000 0.33850  0.07740  0.88070  Biso   1.000  H
  C183     1.0000 0.36320  0.13560  0.90280  Biso   1.000  C
  C184     1.0000 0.47860  0.22400  0.86450  Biso   1.000  C
  C185     1.0000 0.40720  0.26940  0.15570  Biso   1.000  C
  H339     1.0000 0.40810  0.29500  0.16200  Biso   1.000  H
  H340     1.0000 0.41920  0.26400  0.18750  Biso   1.000  H
  C186     1.0000 0.43260  0.27370  0.10610  Biso   1.000  C
  C187     1.0000 0.42190  0.13490  0.14940  Biso   1.000  C
  H341     1.0000 0.39860  0.11140  0.16540  Biso   1.000  H
  H342     1.0000 0.43810  0.15230  0.17940  Biso   1.000  H
  C188     1.0000 0.40700  0.15750  0.11500  Biso   1.000  C
  C189     1.0000 0.55430  0.27770  0.09670  Biso   1.000  C
  H343     1.0000 0.57870  0.27990  0.08070  Biso   1.000  H
  H344     1.0000 0.55550  0.27440  0.13610  Biso   1.000  H
  C190     1.0000 0.51750  0.24000  0.07360  Biso   1.000  C
  C191     1.0000 0.24890  0.13570  0.96100  Biso   1.000  C
  H345     1.0000 0.22570  0.11670  0.97950  Biso   1.000  H
  C192     1.0000 0.50810  0.10930  0.04600  Biso   1.000  C
  H346     1.0000 0.51680  0.09300  0.02940  Biso   1.000  H
  C193     1.0000 0.53640  0.39000  0.04460  Biso   1.000  C
  H347     1.0000 0.53720  0.41330  0.03110  Biso   1.000  H
  C194     1.0000 0.49730  0.25590  0.81710  Biso   1.000  C
  H348     1.0000 0.47680  0.24930  0.78910  Biso   1.000  H
  H349     1.0000 0.51940  0.25390  0.80050  Biso   1.000  H
  C195     1.0000 0.35480  0.24620  0.86450  Biso   1.000  C
  H350     1.0000 0.35300  0.23770  0.82650  Biso   1.000  H
  H351     1.0000 0.35530  0.27190  0.86480  Biso   1.000  H
  Tb27     1.0000 0.09794  0.54681  0.32516  Biso   1.000  Tb
  Tb28     1.0000 0.87476  0.43789  0.16635  Biso   1.000  Tb
  Cu79     1.0000 0.00085  0.52673  0.28994  Biso   1.000  Cu
  Cu80     1.0000 0.10268  0.47084  0.25057  Biso   1.000  Cu
  Cu81     1.0000 0.15345  0.62834  0.23887  Biso   1.000  Cu
  Cu82     1.0000 0.02607  0.53855  0.41917  Biso   1.000  Cu
  Cu83     1.0000 0.12686  0.48007  0.38109  Biso   1.000  Cu
  Cu84     1.0000 0.17758  0.63932  0.36734  Biso   1.000  Cu
  O274     1.0000 0.05711  0.56498  0.26457  Biso   1.000  O
  O275     1.0000 0.09101  0.60933  0.19863  Biso   1.000  O
  O276     1.0000 0.06284  0.48942  0.26209  Biso   1.000  O
  O277     1.0000 0.00015  0.47412  0.23953  Biso   1.000  O
  O278     1.0000 0.13881  0.57068  0.24125  Biso   1.000  O
  O279     1.0000 0.13862  0.52261  0.18993  Biso   1.000  O
  O280     1.0000 0.08338  0.57821  0.40499  Biso   1.000  O
  O281     1.0000 0.13394  0.63621  0.43623  Biso   1.000  O
  O282     1.0000 0.08818  0.49959  0.39951  Biso   1.000  O
  O283     1.0000 0.04937  0.49999  0.46687  Biso   1.000  O
  O284     1.0000 0.16122  0.58103  0.37635  Biso   1.000  O
  O285     1.0000 0.17903  0.53973  0.41643  Biso   1.000  O
  O286     1.0000 0.02714  0.51402  0.34953  Biso   1.000  O
  O287     1.0000 0.13181  0.50700  0.31080  Biso   1.000  O
  O288     1.0000 0.13326  0.61900  0.31378  Biso   1.000  O
  O289     1.0000 0.94744  0.49141  0.32268  Biso   1.000  O
  O290     1.0000 0.91384  0.47133  0.24333  Biso   1.000  O
  O291     1.0000 0.15299  0.45113  0.35233  Biso   1.000  O
  O292     1.0000 0.18612  0.45380  0.42673  Biso   1.000  O
  O293     1.0000 0.19237  0.69455  0.34513  Biso   1.000  O
  O294     1.0000 0.21272  0.72388  0.42693  Biso   1.000  O
  N79      1.0000 0.98557  0.54933  0.22753  Biso   1.000  N
  H352     1.0000 0.97147  0.56093  0.23993  Biso   1.000  H
  H353     1.0000 0.96937  0.52913  0.20453  Biso   1.000  H
  N80      1.0000 0.06357  0.43473  0.19523  Biso   1.000  N
  H354     1.0000 0.05817  0.40903  0.20053  Biso   1.000  H
  H355     1.0000 0.07407  0.44253  0.16133  Biso   1.000  H
  N81      1.0000 0.17897  0.63033  0.16793  Biso   1.000  N
  H356     1.0000 0.20617  0.64323  0.17153  Biso   1.000  H
  H357     1.0000 0.17257  0.64373  0.14303  Biso   1.000  H
  N82      1.0000 0.03273  0.57159  0.48463  Biso   1.000  N
  H358     1.0000 0.02547  0.55583  0.51483  Biso   1.000  H
  H359     1.0000 0.01667  0.58263  0.48203  Biso   1.000  H
  N83      1.0000 0.11227  0.45483  0.45343  Biso   1.000  N
  H360     1.0000 0.13497  0.46123  0.47253  Biso   1.000  H
  H361     1.0000 0.09797  0.42763  0.44973  Biso   1.000  H
  N84      1.0000 0.22045  0.64841  0.41963  Biso   1.000  N
  H362     1.0000 0.21637  0.65803  0.45133  Biso   1.000  H
  H363     1.0000 0.24467  0.66723  0.40603  Biso   1.000  H
  C196     1.0000 0.05937  0.58493  0.22193  Biso   1.000  C
  C197     1.0000 0.02647  0.43653  0.20013  Biso   1.000  C
  H364     1.0000 0.01837  0.44033  0.16383  Biso   1.000  H
  H365     1.0000 0.00517  0.41073  0.21403  Biso   1.000  H
  C198     1.0000 0.02987  0.46893  0.23613  Biso   1.000  C
  C199     1.0000 0.14527  0.55733  0.19783  Biso   1.000  C
  C200     1.0000 0.07387  0.60273  0.48903  Biso   1.000  C
  H366     1.0000 0.07477  0.62833  0.49533  Biso   1.000  H
  H367     1.0000 0.08587  0.59733  0.52083  Biso   1.000  H
  C201     1.0000 0.09927  0.60703  0.43943  Biso   1.000  C
  C202     1.0000 0.08857  0.46823  0.48273  Biso   1.000  C
  H368     1.0000 0.06527  0.44473  0.49873  Biso   1.000  H
  H369     1.0000 0.10477  0.48563  0.51273  Biso   1.000  H
  C203     1.0000 0.07367  0.49083  0.44833  Biso   1.000  C
  C204     1.0000 0.22097  0.61103  0.43003  Biso   1.000  C
  H370     1.0000 0.24537  0.61323  0.41403  Biso   1.000  H
  H371     1.0000 0.22217  0.60773  0.46943  Biso   1.000  H
  C205     1.0000 0.18417  0.57333  0.40693  Biso   1.000  C
  C206     1.0000 0.91557  0.46903  0.29433  Biso   1.000  C
  H372     1.0000 0.89237  0.45003  0.31283  Biso   1.000  H
  C207     1.0000 0.17477  0.44263  0.37933  Biso   1.000  C
  H373     1.0000 0.18347  0.42633  0.36273  Biso   1.000  H
  C208     1.0000 0.20307  0.72333  0.37793  Biso   1.000  C
  H374     1.0000 0.20387  0.74663  0.36443  Biso   1.000  H
  C209     1.0000 0.16397  0.58923  0.15043  Biso   1.000  C
  H375     1.0000 0.14347  0.58263  0.12243  Biso   1.000  H
  H376     1.0000 0.18607  0.58723  0.13383  Biso   1.000  H
  C210     1.0000 0.02147  0.57953  0.19783  Biso   1.000  C
  H377     1.0000 0.01967  0.57103  0.15983  Biso   1.000  H
  H378     1.0000 0.02197  0.60523  0.19813  Biso   1.000  H
  Tb29     1.0000 0.76460  0.88015  0.65850  Biso   1.000  Tb
  Tb30     1.0000 0.54142  0.77122  0.49968  Biso   1.000  Tb
  Cu85     1.0000 0.66751  0.86007  0.62328  Biso   1.000  Cu
  Cu86     1.0000 0.76934  0.80418  0.58391  Biso   1.000  Cu
  Cu87     1.0000 0.82011  0.96168  0.57221  Biso   1.000  Cu
  Cu88     1.0000 0.69273  0.87189  0.75251  Biso   1.000  Cu
  Cu89     1.0000 0.79352  0.81341  0.71443  Biso   1.000  Cu
  Cu90     1.0000 0.84424  0.97266  0.70068  Biso   1.000  Cu
  O295     1.0000 0.72377  0.89832  0.59791  Biso   1.000  O
  O296     1.0000 0.75767  0.94267  0.53197  Biso   1.000  O
  O297     1.0000 0.72950  0.82276  0.59543  Biso   1.000  O
  O298     1.0000 0.66681  0.80746  0.57287  Biso   1.000  O
  O299     1.0000 0.80547  0.90402  0.57459  Biso   1.000  O
  O300     1.0000 0.80528  0.85595  0.52327  Biso   1.000  O
  O301     1.0000 0.75004  0.91155  0.73833  Biso   1.000  O
  O302     1.0000 0.80060  0.96955  0.76957  Biso   1.000  O
  O303     1.0000 0.75484  0.83293  0.73285  Biso   1.000  O
  O304     1.0000 0.71603  0.83333  0.80021  Biso   1.000  O
  O305     1.0000 0.82788  0.91437  0.70969  Biso   1.000  O
  O306     1.0000 0.84569  0.87307  0.74977  Biso   1.000  O
  O307     1.0000 0.69380  0.84736  0.68287  Biso   1.000  O
  O308     1.0000 0.79847  0.84034  0.64414  Biso   1.000  O
  O309     1.0000 0.79992  0.95234  0.64712  Biso   1.000  O
  O310     1.0000 0.61410  0.82475  0.65602  Biso   1.000  O
  O311     1.0000 0.58050  0.80467  0.57667  Biso   1.000  O
  O312     1.0000 0.81965  0.78447  0.68567  Biso   1.000  O
  O313     1.0000 0.85278  0.78714  0.76007  Biso   1.000  O
  O314     1.0000 0.85903  0.02789  0.67847  Biso   1.000  O
  O315     1.0000 0.87938  0.05722  0.76027  Biso   1.000  O
  N85      1.0000 0.65223  0.88267  0.56087  Biso   1.000  N
  H379     1.0000 0.63813  0.89427  0.57327  Biso   1.000  H
  H380     1.0000 0.63603  0.86247  0.53787  Biso   1.000  H
  N86      1.0000 0.73023  0.76807  0.52857  Biso   1.000  N
  H381     1.0000 0.72483  0.74237  0.53387  Biso   1.000  H
  H382     1.0000 0.74073  0.77587  0.49467  Biso   1.000  H
  N87      1.0000 0.84563  0.96367  0.50127  Biso   1.000  N
  H383     1.0000 0.87283  0.97657  0.50487  Biso   1.000  H
  H384     1.0000 0.83923  0.97707  0.47637  Biso   1.000  H
  N88      1.0000 0.69939  0.90493  0.81797  Biso   1.000  N
  H385     1.0000 0.69213  0.88917  0.84817  Biso   1.000  H
  H386     1.0000 0.68333  0.91597  0.81537  Biso   1.000  H
  N89      1.0000 0.77893  0.78817  0.78677  Biso   1.000  N
  H387     1.0000 0.80163  0.79457  0.80587  Biso   1.000  H
  H388     1.0000 0.76463  0.76097  0.78307  Biso   1.000  H
  N90      1.0000 0.88711  0.98175  0.75297  Biso   1.000  N
  H389     1.0000 0.88303  0.99137  0.78467  Biso   1.000  H
  H390     1.0000 0.91133  0.00057  0.73937  Biso   1.000  H
  C211     1.0000 0.72603  0.91827  0.55527  Biso   1.000  C
  C212     1.0000 0.69313  0.76987  0.53347  Biso   1.000  C
  H391     1.0000 0.68503  0.77367  0.49717  Biso   1.000  H
  H392     1.0000 0.67183  0.74407  0.54737  Biso   1.000  H
  C213     1.0000 0.69653  0.80227  0.56947  Biso   1.000  C
  C214     1.0000 0.81193  0.89067  0.53117  Biso   1.000  C
  C215     1.0000 0.74053  0.93607  0.82237  Biso   1.000  C
  H393     1.0000 0.74143  0.96167  0.82867  Biso   1.000  H
  H394     1.0000 0.75253  0.93067  0.85417  Biso   1.000  H
  C216     1.0000 0.76593  0.94037  0.77277  Biso   1.000  C
  C217     1.0000 0.75523  0.80157  0.81607  Biso   1.000  C
  H395     1.0000 0.73193  0.77807  0.83207  Biso   1.000  H
  H396     1.0000 0.77143  0.81897  0.84607  Biso   1.000  H
  C218     1.0000 0.74033  0.82417  0.78167  Biso   1.000  C
  C219     1.0000 0.88763  0.94437  0.76337  Biso   1.000  C
  H397     1.0000 0.91203  0.94657  0.74737  Biso   1.000  H
  H398     1.0000 0.88883  0.94107  0.80277  Biso   1.000  H
  C220     1.0000 0.85083  0.90667  0.74027  Biso   1.000  C
  C221     1.0000 0.58223  0.80237  0.62767  Biso   1.000  C
  H399     1.0000 0.55903  0.78337  0.64617  Biso   1.000  H
  C222     1.0000 0.84143  0.77597  0.71267  Biso   1.000  C
  H400     1.0000 0.85013  0.75967  0.69607  Biso   1.000  H
  C223     1.0000 0.86973  0.05667  0.71127  Biso   1.000  C
  H401     1.0000 0.87053  0.07997  0.69777  Biso   1.000  H
  C224     1.0000 0.83063  0.92257  0.48377  Biso   1.000  C
  H402     1.0000 0.81013  0.91597  0.45577  Biso   1.000  H
  H403     1.0000 0.85273  0.92057  0.46717  Biso   1.000  H
  C225     1.0000 0.68813  0.91287  0.53117  Biso   1.000  C
  H404     1.0000 0.68633  0.90437  0.49317  Biso   1.000  H
  H405     1.0000 0.68863  0.93857  0.53147  Biso   1.000  H
  Tb31     1.0000 0.78652  0.21779  0.99183  Biso   1.000  Tb
  Tb32     1.0000 0.89545  0.10354  0.83301  Biso   1.000  Tb
  Cu91     1.0000 0.80660  0.14078  0.95661  Biso   1.000  Cu
  Cu92     1.0000 0.86249  0.29850  0.91724  Biso   1.000  Cu
  Cu93     1.0000 0.70499  0.19177  0.90554  Biso   1.000  Cu
  Cu94     1.0000 0.79478  0.15418  0.08584  Biso   1.000  Cu
  Cu95     1.0000 0.85326  0.31345  0.04776  Biso   1.000  Cu
  Cu96     1.0000 0.69401  0.20492  0.03401  Biso   1.000  Cu
  O316     1.0000 0.76835  0.15879  0.93124  Biso   1.000  O
  O317     1.0000 0.72400  0.14834  0.86530  Biso   1.000  O
  O318     1.0000 0.84391  0.24008  0.92876  Biso   1.000  O
  O319     1.0000 0.85921  0.19269  0.90620  Biso   1.000  O
  O320     1.0000 0.76265  0.23479  0.90792  Biso   1.000  O
  O321     1.0000 0.81072  0.28267  0.85660  Biso   1.000  O
  O322     1.0000 0.75512  0.17183  0.07166  Biso   1.000  O
  O323     1.0000 0.69712  0.16439  0.10290  Biso   1.000  O
  O324     1.0000 0.83374  0.25525  0.06618  Biso   1.000  O
  O325     1.0000 0.83334  0.21604  0.13354  Biso   1.000  O
  O326     1.0000 0.75230  0.24685  0.04302  Biso   1.000  O
  O327     1.0000 0.79360  0.30596  0.08310  Biso   1.000  O
  O328     1.0000 0.81931  0.17978  0.01620  Biso   1.000  O
  O329     1.0000 0.82633  0.29147  0.97747  Biso   1.000  O
  O330     1.0000 0.71433  0.18092  0.98045  Biso   1.000  O
  O331     1.0000 0.84192  0.12269  0.98935  Biso   1.000  O
  O332     1.0000 0.86200  0.10917  0.91000  Biso   1.000  O
  O333     1.0000 0.88220  0.36852  0.01900  Biso   1.000  O
  O334     1.0000 0.87953  0.39898  0.09340  Biso   1.000  O
  O335     1.0000 0.63878  0.16448  0.01180  Biso   1.000  O
  O336     1.0000 0.60945  0.15550  0.09360  Biso   1.000  O
  N91      1.0000 0.78400  0.10290  0.89420  Biso   1.000  N
  H406     1.0000 0.77240  0.07720  0.90660  Biso   1.000  H
  H407     1.0000 0.80420  0.10690  0.87120  Biso   1.000  H
  N92      1.0000 0.89860  0.29550  0.86190  Biso   1.000  N
  H408     1.0000 0.92430  0.31580  0.86720  Biso   1.000  H
  H409     1.0000 0.89080  0.29820  0.82800  Biso   1.000  H
  N93      1.0000 0.70300  0.21530  0.83460  Biso   1.000  N
  H410     1.0000 0.69010  0.22960  0.83820  Biso   1.000  H
  H411     1.0000 0.68960  0.19550  0.80970  Biso   1.000  H
  N94      1.0000 0.76174  0.12780  0.15130  Biso   1.000  N
  H412     1.0000 0.77750  0.13630  0.18150  Biso   1.000  H
  H413     1.0000 0.75070  0.10070  0.14870  Biso   1.000  H
  N95      1.0000 0.87850  0.32410  0.12010  Biso   1.000  N
  H414     1.0000 0.87210  0.34040  0.13920  Biso   1.000  H
  H415     1.0000 0.90570  0.33700  0.11640  Biso   1.000  H
  N96      1.0000 0.68492  0.23870  0.08630  Biso   1.000  N
  H416     1.0000 0.67530  0.22500  0.11800  Biso   1.000  H
  H417     1.0000 0.66610  0.24410  0.07270  Biso   1.000  H
  C226     1.0000 0.74840  0.14110  0.88860  Biso   1.000  C
  C227     1.0000 0.89680  0.25660  0.86680  Biso   1.000  C
  H418     1.0000 0.89300  0.24470  0.83050  Biso   1.000  H
  H419     1.0000 0.92260  0.26110  0.88070  Biso   1.000  H
  C228     1.0000 0.86440  0.22760  0.90280  Biso   1.000  C
  C229     1.0000 0.77600  0.25460  0.86450  Biso   1.000  C
  C230     1.0000 0.73060  0.13780  0.15570  Biso   1.000  C
  H420     1.0000 0.70500  0.11310  0.16200  Biso   1.000  H
  H421     1.0000 0.73600  0.15520  0.18750  Biso   1.000  H
  C231     1.0000 0.72630  0.15890  0.10610  Biso   1.000  C
  C232     1.0000 0.86510  0.28700  0.14940  Biso   1.000  C
  H422     1.0000 0.88860  0.28720  0.16540  Biso   1.000  H
  H423     1.0000 0.84770  0.28580  0.17940  Biso   1.000  H
  C233     1.0000 0.84250  0.24950  0.11500  Biso   1.000  C
  C234     1.0000 0.72230  0.27660  0.09670  Biso   1.000  C
  H424     1.0000 0.72010  0.29880  0.08070  Biso   1.000  H
  H425     1.0000 0.72560  0.28110  0.13610  Biso   1.000  H
  C235     1.0000 0.76000  0.27750  0.07360  Biso   1.000  C
  C236     1.0000 0.86430  0.11320  0.96100  Biso   1.000  C
  H426     1.0000 0.88330  0.10900  0.97950  Biso   1.000  H
  C237     1.0000 0.89070  0.39880  0.04600  Biso   1.000  C
  H427     1.0000 0.90700  0.42380  0.02940  Biso   1.000  H
  C238     1.0000 0.61000  0.14640  0.04460  Biso   1.000  C
  H428     1.0000 0.58670  0.12390  0.03110  Biso   1.000  H
  C239     1.0000 0.74410  0.24140  0.81710  Biso   1.000  C
  H429     1.0000 0.75070  0.22750  0.78910  Biso   1.000  H
  H430     1.0000 0.74610  0.26550  0.80050  Biso   1.000  H
  C240     1.0000 0.75380  0.10860  0.86450  Biso   1.000  C
  H431     1.0000 0.76230  0.11530  0.82650  Biso   1.000  H
  H432     1.0000 0.72810  0.08340  0.86480  Biso   1.000  H
  Tb33     1.0000 0.45319  0.55112  0.32516  Biso   1.000  Tb
  Tb34     1.0000 0.56211  0.43687  0.16635  Biso   1.000  Tb
  Cu97     1.0000 0.47327  0.47411  0.28994  Biso   1.000  Cu
  Cu98     1.0000 0.52916  0.63183  0.25057  Biso   1.000  Cu
  Cu99     1.0000 0.37166  0.52510  0.23887  Biso   1.000  Cu
  Cu100    1.0000 0.46145  0.48751  0.41917  Biso   1.000  Cu
  Cu101    1.0000 0.51993  0.64678  0.38109  Biso   1.000  Cu
  Cu102    1.0000 0.36068  0.53825  0.36734  Biso   1.000  Cu
  O337     1.0000 0.43502  0.49212  0.26457  Biso   1.000  O
  O338     1.0000 0.39067  0.48167  0.19863  Biso   1.000  O
  O339     1.0000 0.51058  0.57341  0.26209  Biso   1.000  O
  O340     1.0000 0.52588  0.52602  0.23953  Biso   1.000  O
  O341     1.0000 0.42932  0.56812  0.24125  Biso   1.000  O
  O342     1.0000 0.47739  0.61600  0.18993  Biso   1.000  O
  O343     1.0000 0.42179  0.50516  0.40499  Biso   1.000  O
  O344     1.0000 0.36379  0.49772  0.43623  Biso   1.000  O
  O345     1.0000 0.50041  0.58858  0.39951  Biso   1.000  O
  O346     1.0000 0.50001  0.54937  0.46687  Biso   1.000  O
  O347     1.0000 0.41897  0.58018  0.37635  Biso   1.000  O
  O348     1.0000 0.46027  0.63929  0.41643  Biso   1.000  O
  O349     1.0000 0.48598  0.51311  0.34953  Biso   1.000  O
  O350     1.0000 0.49300  0.62480  0.31080  Biso   1.000  O
  O351     1.0000 0.38100  0.51425  0.31378  Biso   1.000  O
  O352     1.0000 0.50859  0.45602  0.32268  Biso   1.000  O
  O353     1.0000 0.52867  0.44250  0.24333  Biso   1.000  O
  O354     1.0000 0.54887  0.70185  0.35233  Biso   1.000  O
  O355     1.0000 0.54620  0.73231  0.42673  Biso   1.000  O
  O356     1.0000 0.30545  0.49781  0.34513  Biso   1.000  O
  O357     1.0000 0.27612  0.48883  0.42693  Biso   1.000  O
  N97      1.0000 0.45067  0.43623  0.22753  Biso   1.000  N
  H433     1.0000 0.43907  0.41053  0.23993  Biso   1.000  H
  H434     1.0000 0.47087  0.44023  0.20453  Biso   1.000  H
  N98      1.0000 0.56527  0.62883  0.19523  Biso   1.000  N
  H435     1.0000 0.59097  0.64913  0.20053  Biso   1.000  H
  H436     1.0000 0.55747  0.63153  0.16133  Biso   1.000  H
  N99      1.0000 0.36967  0.54863  0.16793  Biso   1.000  N
  H437     1.0000 0.35677  0.56293  0.17153  Biso   1.000  H
  H438     1.0000 0.35627  0.52883  0.14303  Biso   1.000  H
  N100     1.0000 0.42841  0.46113  0.48463  Biso   1.000  N
  H439     1.0000 0.44417  0.46963  0.51483  Biso   1.000  H
  H440     1.0000 0.41737  0.43403  0.48203  Biso   1.000  H
  N101     1.0000 0.54517  0.65743  0.45343  Biso   1.000  N
  H441     1.0000 0.53877  0.67373  0.47253  Biso   1.000  H
  H442     1.0000 0.57237  0.67033  0.44973  Biso   1.000  H
  N102     1.0000 0.35159  0.57203  0.41963  Biso   1.000  N
  H443     1.0000 0.34197  0.55833  0.45133  Biso   1.000  H
  H444     1.0000 0.33277  0.57743  0.40603  Biso   1.000  H
  C241     1.0000 0.41507  0.47443  0.22193  Biso   1.000  C
  C242     1.0000 0.56347  0.58993  0.20013  Biso   1.000  C
  H445     1.0000 0.55967  0.57803  0.16383  Biso   1.000  H
  H446     1.0000 0.58927  0.59443  0.21403  Biso   1.000  H
  C243     1.0000 0.53107  0.56093  0.23613  Biso   1.000  C
  C244     1.0000 0.44267  0.58793  0.19783  Biso   1.000  C
  C245     1.0000 0.39727  0.47113  0.48903  Biso   1.000  C
  H447     1.0000 0.37167  0.44643  0.49533  Biso   1.000  H
  H448     1.0000 0.40267  0.48853  0.52083  Biso   1.000  H
  C246     1.0000 0.39297  0.49223  0.43943  Biso   1.000  C
  C247     1.0000 0.53177  0.62033  0.48273  Biso   1.000  C
  H449     1.0000 0.55527  0.62053  0.49873  Biso   1.000  H
  H450     1.0000 0.51437  0.61913  0.51273  Biso   1.000  H
  C248     1.0000 0.50917  0.58283  0.44833  Biso   1.000  C
  C249     1.0000 0.38897  0.60993  0.43003  Biso   1.000  C
  H451     1.0000 0.38677  0.63213  0.41403  Biso   1.000  H
  H452     1.0000 0.39227  0.61443  0.46943  Biso   1.000  H
  C250     1.0000 0.42667  0.61083  0.40693  Biso   1.000  C
  C251     1.0000 0.53097  0.44653  0.29433  Biso   1.000  C
  H453     1.0000 0.54997  0.44233  0.31283  Biso   1.000  H
  C252     1.0000 0.55737  0.73213  0.37933  Biso   1.000  C
  H454     1.0000 0.57367  0.75713  0.36273  Biso   1.000  H
  C253     1.0000 0.27667  0.47973  0.37793  Biso   1.000  C
  H455     1.0000 0.25337  0.45723  0.36443  Biso   1.000  H
  C254     1.0000 0.41077  0.57473  0.15043  Biso   1.000  C
  H456     1.0000 0.41737  0.56083  0.12243  Biso   1.000  H
  H457     1.0000 0.41277  0.59883  0.13383  Biso   1.000  H
  C255     1.0000 0.42047  0.44193  0.19783  Biso   1.000  C
  H458     1.0000 0.42897  0.44863  0.15983  Biso   1.000  H
  H459     1.0000 0.39477  0.41673  0.19813  Biso   1.000  H
  Tb35     1.0000 0.11985  0.88446  0.65850  Biso   1.000  Tb
  Tb36     1.0000 0.22878  0.77020  0.49968  Biso   1.000  Tb
  Cu103    1.0000 0.13993  0.80745  0.62328  Biso   1.000  Cu
  Cu104    1.0000 0.19582  0.96517  0.58391  Biso   1.000  Cu
  Cu105    1.0000 0.03832  0.85844  0.57221  Biso   1.000  Cu
  Cu106    1.0000 0.12811  0.82085  0.75251  Biso   1.000  Cu
  Cu107    1.0000 0.18659  0.98012  0.71443  Biso   1.000  Cu
  Cu108    1.0000 0.02734  0.87159  0.70068  Biso   1.000  Cu
  O358     1.0000 0.10168  0.82546  0.59791  Biso   1.000  O
  O359     1.0000 0.05733  0.81501  0.53197  Biso   1.000  O
  O360     1.0000 0.17724  0.90675  0.59543  Biso   1.000  O
  O361     1.0000 0.19254  0.85936  0.57287  Biso   1.000  O
  O362     1.0000 0.09598  0.90146  0.57459  Biso   1.000  O
  O363     1.0000 0.14405  0.94934  0.52327  Biso   1.000  O
  O364     1.0000 0.08845  0.83850  0.73833  Biso   1.000  O
  O365     1.0000 0.03045  0.83106  0.76957  Biso   1.000  O
  O366     1.0000 0.16707  0.92192  0.73285  Biso   1.000  O
  O367     1.0000 0.16667  0.88271  0.80021  Biso   1.000  O
  O368     1.0000 0.08563  0.91352  0.70969  Biso   1.000  O
  O369     1.0000 0.12693  0.97263  0.74977  Biso   1.000  O
  O370     1.0000 0.15264  0.84645  0.68287  Biso   1.000  O
  O371     1.0000 0.15966  0.95814  0.64414  Biso   1.000  O
  O372     1.0000 0.04766  0.84759  0.64712  Biso   1.000  O
  O373     1.0000 0.17525  0.78936  0.65602  Biso   1.000  O
  O374     1.0000 0.19533  0.77584  0.57667  Biso   1.000  O
  O375     1.0000 0.21553  0.03519  0.68567  Biso   1.000  O
  O376     1.0000 0.21286  0.06565  0.76007  Biso   1.000  O
  O377     1.0000 0.97211  0.83115  0.67847  Biso   1.000  O
  O378     1.0000 0.94278  0.82217  0.76027  Biso   1.000  O
  N103     1.0000 0.11733  0.76957  0.56087  Biso   1.000  N
  H460     1.0000 0.10573  0.74387  0.57327  Biso   1.000  H
  H461     1.0000 0.13753  0.77357  0.53787  Biso   1.000  H
  N104     1.0000 0.23193  0.96217  0.52857  Biso   1.000  N
  H462     1.0000 0.25763  0.98247  0.53387  Biso   1.000  H
  H463     1.0000 0.22413  0.96487  0.49467  Biso   1.000  H
  N105     1.0000 0.03633  0.88197  0.50127  Biso   1.000  N
  H464     1.0000 0.02343  0.89627  0.50487  Biso   1.000  H
  H465     1.0000 0.02293  0.86217  0.47637  Biso   1.000  H
  N106     1.0000 0.09507  0.79447  0.81797  Biso   1.000  N
  H466     1.0000 0.11083  0.80297  0.84817  Biso   1.000  H
  H467     1.0000 0.08403  0.76737  0.81537  Biso   1.000  H
  N107     1.0000 0.21183  0.99077  0.78677  Biso   1.000  N
  H468     1.0000 0.20543  0.00707  0.80587  Biso   1.000  H
  H469     1.0000 0.23903  0.00367  0.78307  Biso   1.000  H
  N108     1.0000 0.01825  0.90537  0.75297  Biso   1.000  N
  H470     1.0000 0.00863  0.89167  0.78467  Biso   1.000  H
  H471     1.0000 0.99943  0.91077  0.73937  Biso   1.000  H
  C256     1.0000 0.08173  0.80777  0.55527  Biso   1.000  C
  C257     1.0000 0.23013  0.92327  0.53347  Biso   1.000  C
  H472     1.0000 0.22633  0.91137  0.49717  Biso   1.000  H
  H473     1.0000 0.25593  0.92777  0.54737  Biso   1.000  H
  C258     1.0000 0.19773  0.89427  0.56947  Biso   1.000  C
  C259     1.0000 0.10933  0.92127  0.53117  Biso   1.000  C
  C260     1.0000 0.06393  0.80447  0.82237  Biso   1.000  C
  H474     1.0000 0.03833  0.77977  0.82867  Biso   1.000  H
  H475     1.0000 0.06933  0.82187  0.85417  Biso   1.000  H
  C261     1.0000 0.05963  0.82557  0.77277  Biso   1.000  C
  C262     1.0000 0.19843  0.95367  0.81607  Biso   1.000  C
  H476     1.0000 0.22193  0.95387  0.83207  Biso   1.000  H
  H477     1.0000 0.18103  0.95247  0.84607  Biso   1.000  H
  C263     1.0000 0.17583  0.91617  0.78167  Biso   1.000  C
  C264     1.0000 0.05563  0.94327  0.76337  Biso   1.000  C
  H478     1.0000 0.05343  0.96547  0.74737  Biso   1.000  H
  H479     1.0000 0.05893  0.94777  0.80277  Biso   1.000  H
  C265     1.0000 0.09333  0.94417  0.74027  Biso   1.000  C
  C266     1.0000 0.19763  0.77987  0.62767  Biso   1.000  C
  H480     1.0000 0.21663  0.77567  0.64617  Biso   1.000  H
  C267     1.0000 0.22403  0.06547  0.71267  Biso   1.000  C
  H481     1.0000 0.24033  0.09047  0.69607  Biso   1.000  H
  C268     1.0000 0.94333  0.81307  0.71127  Biso   1.000  C
  H482     1.0000 0.92003  0.79057  0.69777  Biso   1.000  H
  C269     1.0000 0.07743  0.90807  0.48377  Biso   1.000  C
  H483     1.0000 0.08403  0.89417  0.45577  Biso   1.000  H
  H484     1.0000 0.07943  0.93217  0.46717  Biso   1.000  H
  C270     1.0000 0.08713  0.77527  0.53117  Biso   1.000  C
  H485     1.0000 0.09563  0.78197  0.49317  Biso   1.000  H
  H486     1.0000 0.06143  0.75007  0.53147  Biso   1.000  H
