data_image0
_cell_length_a       38.074
_cell_length_b       38.074
_cell_length_c       24.316
_cell_angle_alpha    90
_cell_angle_beta     90
_cell_angle_gamma    120

_symmetry_space_group_name_H-M    "P 1"
_symmetry_int_tables_number       1

loop_
  _symmetry_equiv_pos_as_xyz
  'x, y, z'

loop_
  _atom_site_label
  _atom_site_occupancy
  _atom_site_fract_x
  _atom_site_fract_y
  _atom_site_fract_z
  _atom_site_thermal_displace_type
  _atom_site_B_iso_or_equiv
  _atom_site_type_symbol
  Gd1      1.0000 0.56281  0.12459  0.66625  Biso   1.000  Gd
  Gd2      1.0000 0.44886  0.90183  0.82513  Biso   1.000  Gd
  Cu1      1.0000 0.52574  0.99857  0.78976  Biso   1.000  Cu
  Cu2      1.0000 0.36845  0.89711  0.75036  Biso   1.000  Cu
  Cu3      1.0000 0.47464  0.84620  0.73877  Biso   1.000  Cu
  Cu4      1.0000 0.51230  0.97353  0.91923  Biso   1.000  Cu
  Cu5      1.0000 0.46192  0.82253  0.86765  Biso   1.000  Cu
  Cu6      1.0000 0.35375  0.87325  0.88086  Biso   1.000  Cu
  O1       1.0000 0.50740  0.94210  0.76490  Biso   1.000  O
  O2       1.0000 0.51760  0.90750  0.69720  Biso   1.000  O
  O3       1.0000 0.42670  0.93750  0.76210  Biso   1.000  O
  O4       1.0000 0.47480  0.99980  0.73890  Biso   1.000  O
  O5       1.0000 0.43290  0.86150  0.74120  Biso   1.000  O
  O6       1.0000 0.38480  0.86180  0.68920  Biso   1.000  O
  O7       1.0000 0.49410  0.91670  0.90530  Biso   1.000  O
  O8       1.0000 0.50220  0.86580  0.93600  Biso   1.000  O
  O9       1.0000 0.41990  0.83940  0.87720  Biso   1.000  O
  O10      1.0000 0.36050  0.82110  0.91720  Biso   1.000  O
  O11      1.0000 0.41190  0.91213  0.89910  Biso   1.000  O
  O12      1.0000 0.45060  0.95050  0.96690  Biso   1.000  O
  O13      1.0000 0.55630  0.08530  0.74230  Biso   1.000  O
  O14      1.0000 0.54350  0.05110  0.82300  Biso   1.000  O
  O15      1.0000 0.26680  0.81400  0.92580  Biso   1.000  O
  O16      1.0000 0.29840  0.84620  0.85120  Biso   1.000  O
  O17      1.0000 0.51050  0.78650  0.92710  Biso   1.000  O
  O18      1.0000 0.50230  0.80780  0.84460  Biso   1.000  O
  O19      1.0000 0.48628  0.97176  0.84940  Biso   1.000  O
  O20      1.0000 0.37460  0.86696  0.81100  Biso   1.000  O
  O21      1.0000 0.48610  0.86720  0.81380  Biso   1.000  O
  N1       1.0000 0.56380  0.01330  0.72570  Biso   1.000  N
  H1       1.0000 0.55890  0.02830  0.70160  Biso   1.000  H
  H2       1.0000 0.58950  0.02840  0.73760  Biso   1.000  H
  N2       1.0000 0.37250  0.93680  0.69610  Biso   1.000  N
  H3       1.0000 0.36990  0.92640  0.66200  Biso   1.000  H
  H4       1.0000 0.35230  0.94220  0.70130  Biso   1.000  H
  N3       1.0000 0.45040  0.81950  0.66890  Biso   1.000  N
  H5       1.0000 0.46990  0.82540  0.64370  Biso   1.000  H
  H6       1.0000 0.43620  0.79250  0.67340  Biso   1.000  H
  N4       1.0000 0.53900  0.96720  0.98400  Biso   1.000  N
  H7       1.0000 0.56600  0.98360  0.98130  Biso   1.000  H
  H8       1.0000 0.53050  0.97410  0.01450  Biso   1.000  H
  N5       1.0000 0.43150  0.78080  0.91910  Biso   1.000  N
  H9       1.0000 0.42680  0.75680  0.90570  Biso   1.000  H
  H10      1.0000 0.44540  0.78570  0.95070  Biso   1.000  H
  N6       1.0000 0.34220  0.88910  0.95450  Biso   1.000  N
  H11      1.0000 0.33160  0.90550  0.95020  Biso   1.000  H
  H12      1.0000 0.32420  0.86690  0.97320  Biso   1.000  H
  C1       1.0000 0.55880  0.97640  0.69790  Biso   1.000  C
  H13      1.0000 0.58370  0.97560  0.70200  Biso   1.000  H
  H14      1.0000 0.55470  0.97850  0.65900  Biso   1.000  H
  C2       1.0000 0.52370  0.93670  0.71950  Biso   1.000  C
  C3       1.0000 0.41080  0.97340  0.70080  Biso   1.000  C
  H15      1.0000 0.40610  0.99480  0.71380  Biso   1.000  H
  H16      1.0000 0.42280  0.98110  0.66440  Biso   1.000  H
  C4       1.0000 0.43990  0.97110  0.73740  Biso   1.000  C
  C5       1.0000 0.42530  0.83360  0.65200  Biso   1.000  C
  H17      1.0000 0.40090  0.81090  0.63700  Biso   1.000  H
  H18      1.0000 0.43870  0.85260  0.62220  Biso   1.000  H
  C6       1.0000 0.41250  0.85460  0.69610  Biso   1.000  C
  C7       1.0000 0.52960  0.92600  0.98790  Biso   1.000  C
  H19      1.0000 0.51270  0.91370  0.02000  Biso   1.000  H
  H20      1.0000 0.55460  0.92540  0.99310  Biso   1.000  H
  C8       1.0000 0.50850  0.90180  0.93900  Biso   1.000  C
  C9       1.0000 0.38930  0.77940  0.93030  Biso   1.000  C
  H21      1.0000 0.36740  0.75510  0.91370  Biso   1.000  H
  H22      1.0000 0.38440  0.77780  0.96960  Biso   1.000  H
  C10      1.0000 0.38880  0.81580  0.90760  Biso   1.000  C
  C11      1.0000 0.38090  0.91040  0.98480  Biso   1.000  C
  H23      1.0000 0.38180  0.89200  0.01160  Biso   1.000  H
  H24      1.0000 0.38190  0.93300  0.00470  Biso   1.000  H
  C12      1.0000 0.41790  0.92630  0.94790  Biso   1.000  C
  C13      1.0000 0.55340  0.08320  0.79550  Biso   1.000  C
  H25      1.0000 0.55870  0.10650  0.81470  Biso   1.000  H
  C14      1.0000 0.26880  0.82550  0.87770  Biso   1.000  C
  H26      1.0000 0.24410  0.81680  0.86000  Biso   1.000  H
  C15      1.0000 0.51920  0.79700  0.87660  Biso   1.000  C
  H27      1.0000 0.54150  0.79610  0.86280  Biso   1.000  H
  Gd3      1.0000 0.22948  0.45792  0.99958  Biso   1.000  Gd
  Gd4      1.0000 0.11552  0.23517  0.15846  Biso   1.000  Gd
  Cu7      1.0000 0.19241  0.33190  0.12309  Biso   1.000  Cu
  Cu8      1.0000 0.03512  0.23044  0.08369  Biso   1.000  Cu
  Cu9      1.0000 0.14131  0.17953  0.07210  Biso   1.000  Cu
  Cu10     1.0000 0.17897  0.30686  0.25256  Biso   1.000  Cu
  Cu11     1.0000 0.12859  0.15586  0.20098  Biso   1.000  Cu
  Cu12     1.0000 0.02042  0.20658  0.21419  Biso   1.000  Cu
  O22      1.0000 0.17407  0.27543  0.09823  Biso   1.000  O
  O23      1.0000 0.18427  0.24083  0.03053  Biso   1.000  O
  O24      1.0000 0.09337  0.27083  0.09543  Biso   1.000  O
  O25      1.0000 0.14147  0.33313  0.07223  Biso   1.000  O
  O26      1.0000 0.09957  0.19483  0.07453  Biso   1.000  O
  O27      1.0000 0.05147  0.19513  0.02253  Biso   1.000  O
  O28      1.0000 0.16077  0.25003  0.23863  Biso   1.000  O
  O29      1.0000 0.16887  0.19913  0.26933  Biso   1.000  O
  O30      1.0000 0.08657  0.17273  0.21053  Biso   1.000  O
  O31      1.0000 0.02717  0.15443  0.25053  Biso   1.000  O
  O32      1.0000 0.07857  0.24546  0.23243  Biso   1.000  O
  O33      1.0000 0.11727  0.28383  0.30023  Biso   1.000  O
  O34      1.0000 0.22297  0.41863  0.07563  Biso   1.000  O
  O35      1.0000 0.21017  0.38443  0.15633  Biso   1.000  O
  O36      1.0000 0.93347  0.14733  0.25913  Biso   1.000  O
  O37      1.0000 0.96507  0.17953  0.18453  Biso   1.000  O
  O38      1.0000 0.17717  0.11983  0.26043  Biso   1.000  O
  O39      1.0000 0.16897  0.14113  0.17793  Biso   1.000  O
  O40      1.0000 0.15295  0.30509  0.18273  Biso   1.000  O
  O41      1.0000 0.04127  0.20029  0.14433  Biso   1.000  O
  O42      1.0000 0.15277  0.20053  0.14713  Biso   1.000  O
  N7       1.0000 0.23047  0.34663  0.05903  Biso   1.000  N
  H28      1.0000 0.22557  0.36163  0.03493  Biso   1.000  H
  H29      1.0000 0.25617  0.36173  0.07093  Biso   1.000  H
  N8       1.0000 0.03917  0.27013  0.02943  Biso   1.000  N
  H30      1.0000 0.03657  0.25973  0.99533  Biso   1.000  H
  H31      1.0000 0.01897  0.27553  0.03463  Biso   1.000  H
  N9       1.0000 0.11707  0.15283  0.00223  Biso   1.000  N
  H32      1.0000 0.13657  0.15873  0.97703  Biso   1.000  H
  H33      1.0000 0.10287  0.12583  0.00673  Biso   1.000  H
  N10      1.0000 0.20567  0.30053  0.31733  Biso   1.000  N
  H34      1.0000 0.23267  0.31693  0.31463  Biso   1.000  H
  H35      1.0000 0.19717  0.30743  0.34783  Biso   1.000  H
  N11      1.0000 0.09817  0.11413  0.25243  Biso   1.000  N
  H36      1.0000 0.09347  0.09013  0.23903  Biso   1.000  H
  H37      1.0000 0.11207  0.11903  0.28403  Biso   1.000  H
  N12      1.0000 0.00887  0.22243  0.28783  Biso   1.000  N
  H38      1.0000 0.99827  0.23883  0.28353  Biso   1.000  H
  H39      1.0000 0.99087  0.20023  0.30653  Biso   1.000  H
  C16      1.0000 0.22547  0.30973  0.03123  Biso   1.000  C
  H40      1.0000 0.25037  0.30893  0.03533  Biso   1.000  H
  H41      1.0000 0.22137  0.31183  0.99233  Biso   1.000  H
  C17      1.0000 0.19037  0.27003  0.05283  Biso   1.000  C
  C18      1.0000 0.07747  0.30673  0.03413  Biso   1.000  C
  H42      1.0000 0.07277  0.32813  0.04713  Biso   1.000  H
  H43      1.0000 0.08947  0.31443  0.99773  Biso   1.000  H
  C19      1.0000 0.10657  0.30443  0.07073  Biso   1.000  C
  C20      1.0000 0.09197  0.16693  0.98533  Biso   1.000  C
  H44      1.0000 0.06757  0.14423  0.97033  Biso   1.000  H
  H45      1.0000 0.10537  0.18593  0.95553  Biso   1.000  H
  C21      1.0000 0.07917  0.18793  0.02943  Biso   1.000  C
  C22      1.0000 0.19627  0.25933  0.32123  Biso   1.000  C
  H46      1.0000 0.17937  0.24703  0.35333  Biso   1.000  H
  H47      1.0000 0.22127  0.25873  0.32643  Biso   1.000  H
  C23      1.0000 0.17517  0.23513  0.27233  Biso   1.000  C
  C24      1.0000 0.05597  0.11273  0.26363  Biso   1.000  C
  H48      1.0000 0.03407  0.08843  0.24703  Biso   1.000  H
  H49      1.0000 0.05107  0.11113  0.30293  Biso   1.000  H
  C25      1.0000 0.05547  0.14913  0.24093  Biso   1.000  C
  C26      1.0000 0.04757  0.24373  0.31813  Biso   1.000  C
  H50      1.0000 0.04847  0.22533  0.34493  Biso   1.000  H
  H51      1.0000 0.04857  0.26633  0.33803  Biso   1.000  H
  C27      1.0000 0.08457  0.25963  0.28123  Biso   1.000  C
  C28      1.0000 0.22007  0.41653  0.12883  Biso   1.000  C
  H52      1.0000 0.22537  0.43983  0.14803  Biso   1.000  H
  C29      1.0000 0.93547  0.15883  0.21103  Biso   1.000  C
  H53      1.0000 0.91077  0.15013  0.19333  Biso   1.000  H
  C30      1.0000 0.18587  0.13033  0.20993  Biso   1.000  C
  H54      1.0000 0.20817  0.12943  0.19613  Biso   1.000  H
  Gd5      1.0000 0.89614  0.79126  0.33292  Biso   1.000  Gd
  Gd6      1.0000 0.78219  0.56850  0.49180  Biso   1.000  Gd
  Cu13     1.0000 0.85907  0.66524  0.45643  Biso   1.000  Cu
  Cu14     1.0000 0.70178  0.56378  0.41703  Biso   1.000  Cu
  Cu15     1.0000 0.80797  0.51287  0.40544  Biso   1.000  Cu
  Cu16     1.0000 0.84563  0.64020  0.58590  Biso   1.000  Cu
  Cu17     1.0000 0.79525  0.48920  0.53432  Biso   1.000  Cu
  Cu18     1.0000 0.68708  0.53992  0.54753  Biso   1.000  Cu
  O43      1.0000 0.84073  0.60877  0.43157  Biso   1.000  O
  O44      1.0000 0.85093  0.57417  0.36387  Biso   1.000  O
  O45      1.0000 0.76003  0.60417  0.42877  Biso   1.000  O
  O46      1.0000 0.80813  0.66647  0.40557  Biso   1.000  O
  O47      1.0000 0.76623  0.52817  0.40787  Biso   1.000  O
  O48      1.0000 0.71813  0.52847  0.35587  Biso   1.000  O
  O49      1.0000 0.82743  0.58337  0.57197  Biso   1.000  O
  O50      1.0000 0.83553  0.53247  0.60267  Biso   1.000  O
  O51      1.0000 0.75323  0.50607  0.54387  Biso   1.000  O
  O52      1.0000 0.69383  0.48777  0.58387  Biso   1.000  O
  O53      1.0000 0.74523  0.57880  0.56577  Biso   1.000  O
  O54      1.0000 0.78393  0.61717  0.63357  Biso   1.000  O
  O55      1.0000 0.88963  0.75197  0.40897  Biso   1.000  O
  O56      1.0000 0.87683  0.71777  0.48967  Biso   1.000  O
  O57      1.0000 0.60013  0.48067  0.59247  Biso   1.000  O
  O58      1.0000 0.63173  0.51287  0.51787  Biso   1.000  O
  O59      1.0000 0.84383  0.45317  0.59377  Biso   1.000  O
  O60      1.0000 0.83563  0.47447  0.51127  Biso   1.000  O
  O61      1.0000 0.81961  0.63843  0.51607  Biso   1.000  O
  O62      1.0000 0.70793  0.53363  0.47767  Biso   1.000  O
  O63      1.0000 0.81943  0.53387  0.48047  Biso   1.000  O
  N13      1.0000 0.89713  0.67997  0.39237  Biso   1.000  N
  H55      1.0000 0.89223  0.69497  0.36827  Biso   1.000  H
  H56      1.0000 0.92283  0.69507  0.40427  Biso   1.000  H
  N14      1.0000 0.70583  0.60347  0.36277  Biso   1.000  N
  H57      1.0000 0.70323  0.59307  0.32867  Biso   1.000  H
  H58      1.0000 0.68563  0.60887  0.36797  Biso   1.000  H
  N15      1.0000 0.78373  0.48617  0.33557  Biso   1.000  N
  H59      1.0000 0.80323  0.49207  0.31037  Biso   1.000  H
  H60      1.0000 0.76953  0.45917  0.34007  Biso   1.000  H
  N16      1.0000 0.87233  0.63387  0.65067  Biso   1.000  N
  H61      1.0000 0.89933  0.65027  0.64797  Biso   1.000  H
  H62      1.0000 0.86383  0.64077  0.68117  Biso   1.000  H
  N17      1.0000 0.76483  0.44747  0.58577  Biso   1.000  N
  H63      1.0000 0.76013  0.42347  0.57237  Biso   1.000  H
  H64      1.0000 0.77873  0.45237  0.61737  Biso   1.000  H
  N18      1.0000 0.67553  0.55577  0.62117  Biso   1.000  N
  H65      1.0000 0.66493  0.57217  0.61687  Biso   1.000  H
  H66      1.0000 0.65753  0.53357  0.63987  Biso   1.000  H
  C31      1.0000 0.89213  0.64307  0.36457  Biso   1.000  C
  H67      1.0000 0.91703  0.64227  0.36867  Biso   1.000  H
  H68      1.0000 0.88803  0.64517  0.32567  Biso   1.000  H
  C32      1.0000 0.85703  0.60337  0.38617  Biso   1.000  C
  C33      1.0000 0.74413  0.64007  0.36747  Biso   1.000  C
  H69      1.0000 0.73943  0.66147  0.38047  Biso   1.000  H
  H70      1.0000 0.75613  0.64777  0.33107  Biso   1.000  H
  C34      1.0000 0.77323  0.63777  0.40407  Biso   1.000  C
  C35      1.0000 0.75863  0.50027  0.31867  Biso   1.000  C
  H71      1.0000 0.73423  0.47757  0.30367  Biso   1.000  H
  H72      1.0000 0.77203  0.51927  0.28887  Biso   1.000  H
  C36      1.0000 0.74583  0.52127  0.36277  Biso   1.000  C
  C37      1.0000 0.86293  0.59267  0.65457  Biso   1.000  C
  H73      1.0000 0.84603  0.58037  0.68667  Biso   1.000  H
  H74      1.0000 0.88793  0.59207  0.65977  Biso   1.000  H
  C38      1.0000 0.84183  0.56847  0.60567  Biso   1.000  C
  C39      1.0000 0.72263  0.44607  0.59697  Biso   1.000  C
  H75      1.0000 0.70073  0.42177  0.58037  Biso   1.000  H
  H76      1.0000 0.71773  0.44447  0.63627  Biso   1.000  H
  C40      1.0000 0.72213  0.48247  0.57427  Biso   1.000  C
  C41      1.0000 0.71423  0.57707  0.65147  Biso   1.000  C
  H77      1.0000 0.71513  0.55867  0.67827  Biso   1.000  H
  H78      1.0000 0.71523  0.59967  0.67137  Biso   1.000  H
  C42      1.0000 0.75123  0.59297  0.61457  Biso   1.000  C
  C43      1.0000 0.88673  0.74987  0.46217  Biso   1.000  C
  H79      1.0000 0.89203  0.77317  0.48137  Biso   1.000  H
  C44      1.0000 0.60213  0.49217  0.54437  Biso   1.000  C
  H80      1.0000 0.57743  0.48347  0.52667  Biso   1.000  H
  C45      1.0000 0.85253  0.46367  0.54327  Biso   1.000  C
  H81      1.0000 0.87483  0.46277  0.52947  Biso   1.000  H
  Gd7      1.0000 0.87541  0.43822  0.66625  Biso   1.000  Gd
  Gd8      1.0000 0.09817  0.54702  0.82513  Biso   1.000  Gd
  Cu19     1.0000 0.00143  0.52717  0.78976  Biso   1.000  Cu
  Cu20     1.0000 0.10289  0.47134  0.75036  Biso   1.000  Cu
  Cu21     1.0000 0.15380  0.62844  0.73877  Biso   1.000  Cu
  Cu22     1.0000 0.02647  0.53877  0.91923  Biso   1.000  Cu
  Cu23     1.0000 0.17747  0.63939  0.86765  Biso   1.000  Cu
  Cu24     1.0000 0.12675  0.48050  0.88086  Biso   1.000  Cu
  O64      1.0000 0.05790  0.56530  0.76490  Biso   1.000  O
  O65      1.0000 0.09250  0.61010  0.69720  Biso   1.000  O
  O66      1.0000 0.06250  0.48920  0.76210  Biso   1.000  O
  O67      1.0000 0.00020  0.47500  0.73890  Biso   1.000  O
  O68      1.0000 0.13850  0.57140  0.74120  Biso   1.000  O
  O69      1.0000 0.13820  0.52300  0.68920  Biso   1.000  O
  O70      1.0000 0.08330  0.57740  0.90530  Biso   1.000  O
  O71      1.0000 0.13420  0.63640  0.93600  Biso   1.000  O
  O72      1.0000 0.16060  0.58050  0.87720  Biso   1.000  O
  O73      1.0000 0.17890  0.53940  0.91720  Biso   1.000  O
  O74      1.0000 0.08787  0.49977  0.89910  Biso   1.000  O
  O75      1.0000 0.04950  0.50010  0.96690  Biso   1.000  O
  O76      1.0000 0.91470  0.47100  0.74230  Biso   1.000  O
  O77      1.0000 0.94890  0.49240  0.82300  Biso   1.000  O
  O78      1.0000 0.18600  0.45280  0.92580  Biso   1.000  O
  O79      1.0000 0.15380  0.45220  0.85120  Biso   1.000  O
  O80      1.0000 0.21350  0.72400  0.92710  Biso   1.000  O
  O81      1.0000 0.19220  0.69450  0.84460  Biso   1.000  O
  O82      1.0000 0.02824  0.51452  0.84940  Biso   1.000  O
  O83      1.0000 0.13304  0.50764  0.81100  Biso   1.000  O
  O84      1.0000 0.13280  0.61890  0.81380  Biso   1.000  O
  N19      1.0000 0.98670  0.55050  0.72570  Biso   1.000  N
  H82      1.0000 0.97170  0.53060  0.70160  Biso   1.000  H
  H83      1.0000 0.97160  0.56110  0.73760  Biso   1.000  H
  N20      1.0000 0.06320  0.43570  0.69610  Biso   1.000  N
  H84      1.0000 0.07360  0.44350  0.66200  Biso   1.000  H
  H85      1.0000 0.05780  0.41010  0.70130  Biso   1.000  H
  N21      1.0000 0.18050  0.63090  0.66890  Biso   1.000  N
  H86      1.0000 0.17460  0.64450  0.64370  Biso   1.000  H
  H87      1.0000 0.20750  0.64370  0.67340  Biso   1.000  H
  N22      1.0000 0.03280  0.57180  0.98400  Biso   1.000  N
  H88      1.0000 0.01640  0.58240  0.98130  Biso   1.000  H
  H89      1.0000 0.02590  0.55640  0.01450  Biso   1.000  H
  N23      1.0000 0.21920  0.65070  0.91910  Biso   1.000  N
  H90      1.0000 0.24320  0.67000  0.90570  Biso   1.000  H
  H91      1.0000 0.21430  0.65970  0.95070  Biso   1.000  H
  N24      1.0000 0.11090  0.45310  0.95450  Biso   1.000  N
  H92      1.0000 0.09450  0.42610  0.95020  Biso   1.000  H
  H93      1.0000 0.13310  0.45730  0.97320  Biso   1.000  H
  C46      1.0000 0.02360  0.58240  0.69790  Biso   1.000  C
  H94      1.0000 0.02440  0.60810  0.70200  Biso   1.000  H
  H95      1.0000 0.02150  0.57620  0.65900  Biso   1.000  H
  C47      1.0000 0.06330  0.58700  0.71950  Biso   1.000  C
  C48      1.0000 0.02660  0.43740  0.70080  Biso   1.000  C
  H96      1.0000 0.00520  0.41130  0.71380  Biso   1.000  H
  H97      1.0000 0.01890  0.44170  0.66440  Biso   1.000  H
  C49      1.0000 0.02890  0.46880  0.73740  Biso   1.000  C
  C50      1.0000 0.16640  0.59170  0.65200  Biso   1.000  C
  H98      1.0000 0.18910  0.59000  0.63700  Biso   1.000  H
  H99      1.0000 0.14740  0.58610  0.62220  Biso   1.000  H
  C51      1.0000 0.14540  0.55790  0.69610  Biso   1.000  C
  C52      1.0000 0.07400  0.60360  0.98790  Biso   1.000  C
  H100     1.0000 0.08630  0.59900  0.02000  Biso   1.000  H
  H101     1.0000 0.07460  0.62920  0.99310  Biso   1.000  H
  C53      1.0000 0.09820  0.60670  0.93900  Biso   1.000  C
  C54      1.0000 0.22060  0.60990  0.93030  Biso   1.000  C
  H102     1.0000 0.24490  0.61230  0.91370  Biso   1.000  H
  H103     1.0000 0.22220  0.60660  0.96960  Biso   1.000  H
  C55      1.0000 0.18420  0.57300  0.90760  Biso   1.000  C
  C56      1.0000 0.08960  0.47050  0.98480  Biso   1.000  C
  H104     1.0000 0.10800  0.48980  0.01160  Biso   1.000  H
  H105     1.0000 0.06700  0.44890  0.00470  Biso   1.000  H
  C57      1.0000 0.07370  0.49160  0.94790  Biso   1.000  C
  C58      1.0000 0.91680  0.47020  0.79550  Biso   1.000  C
  H106     1.0000 0.89350  0.45220  0.81470  Biso   1.000  H
  C59      1.0000 0.17450  0.44330  0.87770  Biso   1.000  C
  H107     1.0000 0.18320  0.42730  0.86000  Biso   1.000  H
  C60      1.0000 0.20300  0.72220  0.87660  Biso   1.000  C
  H108     1.0000 0.20390  0.74540  0.86280  Biso   1.000  H
  Gd9      1.0000 0.54208  0.77155  0.99958  Biso   1.000  Gd
  Gd10     1.0000 0.76483  0.88036  0.15846  Biso   1.000  Gd
  Cu25     1.0000 0.66810  0.86050  0.12309  Biso   1.000  Cu
  Cu26     1.0000 0.76956  0.80467  0.08369  Biso   1.000  Cu
  Cu27     1.0000 0.82047  0.96177  0.07210  Biso   1.000  Cu
  Cu28     1.0000 0.69314  0.87210  0.25256  Biso   1.000  Cu
  Cu29     1.0000 0.84414  0.97272  0.20098  Biso   1.000  Cu
  Cu30     1.0000 0.79342  0.81383  0.21419  Biso   1.000  Cu
  O85      1.0000 0.72457  0.89863  0.09823  Biso   1.000  O
  O86      1.0000 0.75917  0.94343  0.03053  Biso   1.000  O
  O87      1.0000 0.72917  0.82253  0.09543  Biso   1.000  O
  O88      1.0000 0.66687  0.80833  0.07223  Biso   1.000  O
  O89      1.0000 0.80517  0.90473  0.07453  Biso   1.000  O
  O90      1.0000 0.80487  0.85633  0.02253  Biso   1.000  O
  O91      1.0000 0.74997  0.91073  0.23863  Biso   1.000  O
  O92      1.0000 0.80087  0.96973  0.26933  Biso   1.000  O
  O93      1.0000 0.82727  0.91383  0.21053  Biso   1.000  O
  O94      1.0000 0.84557  0.87273  0.25053  Biso   1.000  O
  O95      1.0000 0.75454  0.83310  0.23243  Biso   1.000  O
  O96      1.0000 0.71617  0.83343  0.30023  Biso   1.000  O
  O97      1.0000 0.58137  0.80433  0.07563  Biso   1.000  O
  O98      1.0000 0.61557  0.82573  0.15633  Biso   1.000  O
  O99      1.0000 0.85267  0.78613  0.25913  Biso   1.000  O
  O100     1.0000 0.82047  0.78553  0.18453  Biso   1.000  O
  O101     1.0000 0.88017  0.05733  0.26043  Biso   1.000  O
  O102     1.0000 0.85887  0.02783  0.17793  Biso   1.000  O
  O103     1.0000 0.69491  0.84785  0.18273  Biso   1.000  O
  O104     1.0000 0.79971  0.84097  0.14433  Biso   1.000  O
  O105     1.0000 0.79947  0.95223  0.14713  Biso   1.000  O
  N25      1.0000 0.65337  0.88383  0.05903  Biso   1.000  N
  H109     1.0000 0.63837  0.86393  0.03493  Biso   1.000  H
  H110     1.0000 0.63827  0.89443  0.07093  Biso   1.000  H
  N26      1.0000 0.72987  0.76903  0.02943  Biso   1.000  N
  H111     1.0000 0.74027  0.77683  0.99533  Biso   1.000  H
  H112     1.0000 0.72447  0.74343  0.03463  Biso   1.000  H
  N27      1.0000 0.84717  0.96423  0.00223  Biso   1.000  N
  H113     1.0000 0.84127  0.97783  0.97703  Biso   1.000  H
  H114     1.0000 0.87417  0.97703  0.00673  Biso   1.000  H
  N28      1.0000 0.69947  0.90513  0.31733  Biso   1.000  N
  H115     1.0000 0.68307  0.91573  0.31463  Biso   1.000  H
  H116     1.0000 0.69257  0.88973  0.34783  Biso   1.000  H
  N29      1.0000 0.88587  0.98403  0.25243  Biso   1.000  N
  H117     1.0000 0.90987  0.00333  0.23903  Biso   1.000  H
  H118     1.0000 0.88097  0.99303  0.28403  Biso   1.000  H
  N30      1.0000 0.77757  0.78643  0.28783  Biso   1.000  N
  H119     1.0000 0.76117  0.75943  0.28353  Biso   1.000  H
  H120     1.0000 0.79977  0.79063  0.30653  Biso   1.000  H
  C61      1.0000 0.69027  0.91573  0.03123  Biso   1.000  C
  H121     1.0000 0.69107  0.94143  0.03533  Biso   1.000  H
  H122     1.0000 0.68817  0.90953  0.99233  Biso   1.000  H
  C62      1.0000 0.72997  0.92033  0.05283  Biso   1.000  C
  C63      1.0000 0.69327  0.77073  0.03413  Biso   1.000  C
  H123     1.0000 0.67187  0.74463  0.04713  Biso   1.000  H
  H124     1.0000 0.68557  0.77503  0.99773  Biso   1.000  H
  C64      1.0000 0.69557  0.80213  0.07073  Biso   1.000  C
  C65      1.0000 0.83307  0.92503  0.98533  Biso   1.000  C
  H125     1.0000 0.85577  0.92333  0.97033  Biso   1.000  H
  H126     1.0000 0.81407  0.91943  0.95553  Biso   1.000  H
  C66      1.0000 0.81207  0.89123  0.02943  Biso   1.000  C
  C67      1.0000 0.74067  0.93693  0.32123  Biso   1.000  C
  H127     1.0000 0.75297  0.93233  0.35333  Biso   1.000  H
  H128     1.0000 0.74127  0.96253  0.32643  Biso   1.000  H
  C68      1.0000 0.76487  0.94003  0.27233  Biso   1.000  C
  C69      1.0000 0.88727  0.94323  0.26363  Biso   1.000  C
  H129     1.0000 0.91157  0.94563  0.24703  Biso   1.000  H
  H130     1.0000 0.88887  0.93993  0.30293  Biso   1.000  H
  C70      1.0000 0.85087  0.90633  0.24093  Biso   1.000  C
  C71      1.0000 0.75627  0.80383  0.31813  Biso   1.000  C
  H131     1.0000 0.77467  0.82313  0.34493  Biso   1.000  H
  H132     1.0000 0.73367  0.78223  0.33803  Biso   1.000  H
  C72      1.0000 0.74037  0.82493  0.28123  Biso   1.000  C
  C73      1.0000 0.58347  0.80353  0.12883  Biso   1.000  C
  H133     1.0000 0.56017  0.78553  0.14803  Biso   1.000  H
  C74      1.0000 0.84117  0.77663  0.21103  Biso   1.000  C
  H134     1.0000 0.84987  0.76063  0.19333  Biso   1.000  H
  C75      1.0000 0.86967  0.05553  0.20993  Biso   1.000  C
  H135     1.0000 0.87057  0.07873  0.19613  Biso   1.000  H
  Gd11     1.0000 0.20874  0.10489  0.33292  Biso   1.000  Gd
  Gd12     1.0000 0.43150  0.21369  0.49180  Biso   1.000  Gd
  Cu31     1.0000 0.33476  0.19384  0.45643  Biso   1.000  Cu
  Cu32     1.0000 0.43622  0.13801  0.41703  Biso   1.000  Cu
  Cu33     1.0000 0.48713  0.29511  0.40544  Biso   1.000  Cu
  Cu34     1.0000 0.35980  0.20544  0.58590  Biso   1.000  Cu
  Cu35     1.0000 0.51080  0.30606  0.53432  Biso   1.000  Cu
  Cu36     1.0000 0.46008  0.14717  0.54753  Biso   1.000  Cu
  O106     1.0000 0.39123  0.23197  0.43157  Biso   1.000  O
  O107     1.0000 0.42583  0.27677  0.36387  Biso   1.000  O
  O108     1.0000 0.39583  0.15587  0.42877  Biso   1.000  O
  O109     1.0000 0.33353  0.14167  0.40557  Biso   1.000  O
  O110     1.0000 0.47183  0.23807  0.40787  Biso   1.000  O
  O111     1.0000 0.47153  0.18967  0.35587  Biso   1.000  O
  O112     1.0000 0.41663  0.24407  0.57197  Biso   1.000  O
  O113     1.0000 0.46753  0.30307  0.60267  Biso   1.000  O
  O114     1.0000 0.49393  0.24717  0.54387  Biso   1.000  O
  O115     1.0000 0.51223  0.20607  0.58387  Biso   1.000  O
  O116     1.0000 0.42120  0.16644  0.56577  Biso   1.000  O
  O117     1.0000 0.38283  0.16677  0.63357  Biso   1.000  O
  O118     1.0000 0.24803  0.13767  0.40897  Biso   1.000  O
  O119     1.0000 0.28223  0.15907  0.48967  Biso   1.000  O
  O120     1.0000 0.51933  0.11947  0.59247  Biso   1.000  O
  O121     1.0000 0.48713  0.11887  0.51787  Biso   1.000  O
  O122     1.0000 0.54683  0.39067  0.59377  Biso   1.000  O
  O123     1.0000 0.52553  0.36117  0.51127  Biso   1.000  O
  O124     1.0000 0.36157  0.18119  0.51607  Biso   1.000  O
  O125     1.0000 0.46637  0.17431  0.47767  Biso   1.000  O
  O126     1.0000 0.46613  0.28557  0.48047  Biso   1.000  O
  N31      1.0000 0.32003  0.21717  0.39237  Biso   1.000  N
  H136     1.0000 0.30503  0.19727  0.36827  Biso   1.000  H
  H137     1.0000 0.30493  0.22777  0.40427  Biso   1.000  H
  N32      1.0000 0.39653  0.10237  0.36277  Biso   1.000  N
  H138     1.0000 0.40693  0.11017  0.32867  Biso   1.000  H
  H139     1.0000 0.39113  0.07677  0.36797  Biso   1.000  H
  N33      1.0000 0.51383  0.29757  0.33557  Biso   1.000  N
  H140     1.0000 0.50793  0.31117  0.31037  Biso   1.000  H
  H141     1.0000 0.54083  0.31037  0.34007  Biso   1.000  H
  N34      1.0000 0.36613  0.23847  0.65067  Biso   1.000  N
  H142     1.0000 0.34973  0.24907  0.64797  Biso   1.000  H
  H143     1.0000 0.35923  0.22307  0.68117  Biso   1.000  H
  N35      1.0000 0.55253  0.31737  0.58577  Biso   1.000  N
  H144     1.0000 0.57653  0.33667  0.57237  Biso   1.000  H
  H145     1.0000 0.54763  0.32637  0.61737  Biso   1.000  H
  N36      1.0000 0.44423  0.11977  0.62117  Biso   1.000  N
  H146     1.0000 0.42783  0.09277  0.61687  Biso   1.000  H
  H147     1.0000 0.46643  0.12397  0.63987  Biso   1.000  H
  C76      1.0000 0.35693  0.24907  0.36457  Biso   1.000  C
  H148     1.0000 0.35773  0.27477  0.36867  Biso   1.000  H
  H149     1.0000 0.35483  0.24287  0.32567  Biso   1.000  H
  C77      1.0000 0.39663  0.25367  0.38617  Biso   1.000  C
  C78      1.0000 0.35993  0.10407  0.36747  Biso   1.000  C
  H150     1.0000 0.33853  0.07797  0.38047  Biso   1.000  H
  H151     1.0000 0.35223  0.10837  0.33107  Biso   1.000  H
  C79      1.0000 0.36223  0.13547  0.40407  Biso   1.000  C
  C80      1.0000 0.49973  0.25837  0.31867  Biso   1.000  C
  H152     1.0000 0.52243  0.25667  0.30367  Biso   1.000  H
  H153     1.0000 0.48073  0.25277  0.28887  Biso   1.000  H
  C81      1.0000 0.47873  0.22457  0.36277  Biso   1.000  C
  C82      1.0000 0.40733  0.27027  0.65457  Biso   1.000  C
  H154     1.0000 0.41963  0.26567  0.68667  Biso   1.000  H
  H155     1.0000 0.40793  0.29587  0.65977  Biso   1.000  H
  C83      1.0000 0.43153  0.27337  0.60567  Biso   1.000  C
  C84      1.0000 0.55393  0.27657  0.59697  Biso   1.000  C
  H156     1.0000 0.57823  0.27897  0.58037  Biso   1.000  H
  H157     1.0000 0.55553  0.27327  0.63627  Biso   1.000  H
  C85      1.0000 0.51753  0.23967  0.57427  Biso   1.000  C
  C86      1.0000 0.42293  0.13717  0.65147  Biso   1.000  C
  H158     1.0000 0.44133  0.15647  0.67827  Biso   1.000  H
  H159     1.0000 0.40033  0.11557  0.67137  Biso   1.000  H
  C87      1.0000 0.40703  0.15827  0.61457  Biso   1.000  C
  C88      1.0000 0.25013  0.13687  0.46217  Biso   1.000  C
  H160     1.0000 0.22683  0.11887  0.48137  Biso   1.000  H
  C89      1.0000 0.50783  0.10997  0.54437  Biso   1.000  C
  H161     1.0000 0.51653  0.09397  0.52667  Biso   1.000  H
  C90      1.0000 0.53633  0.38887  0.54327  Biso   1.000  C
  H162     1.0000 0.53723  0.41207  0.52947  Biso   1.000  H
  Gd13     1.0000 0.56178  0.43719  0.66625  Biso   1.000  Gd
  Gd14     1.0000 0.45298  0.55114  0.82513  Biso   1.000  Gd
  Cu37     1.0000 0.47283  0.47426  0.78976  Biso   1.000  Cu
  Cu38     1.0000 0.52866  0.63155  0.75036  Biso   1.000  Cu
  Cu39     1.0000 0.37156  0.52536  0.73877  Biso   1.000  Cu
  Cu40     1.0000 0.46123  0.48770  0.91923  Biso   1.000  Cu
  Cu41     1.0000 0.36061  0.53808  0.86765  Biso   1.000  Cu
  Cu42     1.0000 0.51950  0.64625  0.88086  Biso   1.000  Cu
  O127     1.0000 0.43470  0.49260  0.76490  Biso   1.000  O
  O128     1.0000 0.38990  0.48240  0.69720  Biso   1.000  O
  O129     1.0000 0.51080  0.57330  0.76210  Biso   1.000  O
  O130     1.0000 0.52500  0.52520  0.73890  Biso   1.000  O
  O131     1.0000 0.42860  0.56710  0.74120  Biso   1.000  O
  O132     1.0000 0.47700  0.61520  0.68920  Biso   1.000  O
  O133     1.0000 0.42260  0.50590  0.90530  Biso   1.000  O
  O134     1.0000 0.36360  0.49780  0.93600  Biso   1.000  O
  O135     1.0000 0.41950  0.58010  0.87720  Biso   1.000  O
  O136     1.0000 0.46060  0.63950  0.91720  Biso   1.000  O
  O137     1.0000 0.50023  0.58810  0.89910  Biso   1.000  O
  O138     1.0000 0.49990  0.54940  0.96690  Biso   1.000  O
  O139     1.0000 0.52900  0.44370  0.74230  Biso   1.000  O
  O140     1.0000 0.50760  0.45650  0.82300  Biso   1.000  O
  O141     1.0000 0.54720  0.73320  0.92580  Biso   1.000  O
  O142     1.0000 0.54780  0.70160  0.85120  Biso   1.000  O
  O143     1.0000 0.27600  0.48950  0.92710  Biso   1.000  O
  O144     1.0000 0.30550  0.49770  0.84460  Biso   1.000  O
  O145     1.0000 0.48548  0.51372  0.84940  Biso   1.000  O
  O146     1.0000 0.49236  0.62540  0.81100  Biso   1.000  O
  O147     1.0000 0.38110  0.51390  0.81380  Biso   1.000  O
  N37      1.0000 0.44950  0.43620  0.72570  Biso   1.000  N
  H163     1.0000 0.46940  0.44110  0.70160  Biso   1.000  H
  H164     1.0000 0.43890  0.41050  0.73760  Biso   1.000  H
  N38      1.0000 0.56430  0.62750  0.69610  Biso   1.000  N
  H165     1.0000 0.55650  0.63010  0.66200  Biso   1.000  H
  H166     1.0000 0.58990  0.64770  0.70130  Biso   1.000  H
  N39      1.0000 0.36910  0.54960  0.66890  Biso   1.000  N
  H167     1.0000 0.35550  0.53010  0.64370  Biso   1.000  H
  H168     1.0000 0.35630  0.56380  0.67340  Biso   1.000  H
  N40      1.0000 0.42820  0.46100  0.98400  Biso   1.000  N
  H169     1.0000 0.41760  0.43400  0.98130  Biso   1.000  H
  H170     1.0000 0.44360  0.46950  0.01450  Biso   1.000  H
  N41      1.0000 0.34930  0.56850  0.91910  Biso   1.000  N
  H171     1.0000 0.33000  0.57320  0.90570  Biso   1.000  H
  H172     1.0000 0.34030  0.55460  0.95070  Biso   1.000  H
  N42      1.0000 0.54690  0.65780  0.95450  Biso   1.000  N
  H173     1.0000 0.57390  0.66840  0.95020  Biso   1.000  H
  H174     1.0000 0.54270  0.67580  0.97320  Biso   1.000  H
  C91      1.0000 0.41760  0.44120  0.69790  Biso   1.000  C
  H175     1.0000 0.39190  0.41630  0.70200  Biso   1.000  H
  H176     1.0000 0.42380  0.44530  0.65900  Biso   1.000  H
  C92      1.0000 0.41300  0.47630  0.71950  Biso   1.000  C
  C93      1.0000 0.56260  0.58920  0.70080  Biso   1.000  C
  H177     1.0000 0.58870  0.59390  0.71380  Biso   1.000  H
  H178     1.0000 0.55830  0.57720  0.66440  Biso   1.000  H
  C94      1.0000 0.53120  0.56010  0.73740  Biso   1.000  C
  C95      1.0000 0.40830  0.57470  0.65200  Biso   1.000  C
  H179     1.0000 0.41000  0.59910  0.63700  Biso   1.000  H
  H180     1.0000 0.41390  0.56130  0.62220  Biso   1.000  H
  C96      1.0000 0.44210  0.58750  0.69610  Biso   1.000  C
  C97      1.0000 0.39640  0.47040  0.98790  Biso   1.000  C
  H181     1.0000 0.40100  0.48730  0.02000  Biso   1.000  H
  H182     1.0000 0.37080  0.44540  0.99310  Biso   1.000  H
  C98      1.0000 0.39330  0.49150  0.93900  Biso   1.000  C
  C99      1.0000 0.39010  0.61070  0.93030  Biso   1.000  C
  H183     1.0000 0.38770  0.63260  0.91370  Biso   1.000  H
  H184     1.0000 0.39340  0.61560  0.96960  Biso   1.000  H
  C100     1.0000 0.42700  0.61120  0.90760  Biso   1.000  C
  C101     1.0000 0.52950  0.61910  0.98480  Biso   1.000  C
  H185     1.0000 0.51020  0.61820  0.01160  Biso   1.000  H
  H186     1.0000 0.55110  0.61810  0.00470  Biso   1.000  H
  C102     1.0000 0.50840  0.58210  0.94790  Biso   1.000  C
  C103     1.0000 0.52980  0.44660  0.79550  Biso   1.000  C
  H187     1.0000 0.54780  0.44130  0.81470  Biso   1.000  H
  C104     1.0000 0.55670  0.73120  0.87770  Biso   1.000  C
  H188     1.0000 0.57270  0.75590  0.86000  Biso   1.000  H
  C105     1.0000 0.27780  0.48080  0.87660  Biso   1.000  C
  H189     1.0000 0.25460  0.45850  0.86280  Biso   1.000  H
  Gd15     1.0000 0.22845  0.77052  0.99958  Biso   1.000  Gd
  Gd16     1.0000 0.11964  0.88448  0.15846  Biso   1.000  Gd
  Cu43     1.0000 0.13950  0.80759  0.12309  Biso   1.000  Cu
  Cu44     1.0000 0.19533  0.96488  0.08369  Biso   1.000  Cu
  Cu45     1.0000 0.03823  0.85869  0.07210  Biso   1.000  Cu
  Cu46     1.0000 0.12790  0.82103  0.25256  Biso   1.000  Cu
  Cu47     1.0000 0.02728  0.87141  0.20098  Biso   1.000  Cu
  Cu48     1.0000 0.18617  0.97958  0.21419  Biso   1.000  Cu
  O148     1.0000 0.10137  0.82593  0.09823  Biso   1.000  O
  O149     1.0000 0.05657  0.81573  0.03053  Biso   1.000  O
  O150     1.0000 0.17747  0.90663  0.09543  Biso   1.000  O
  O151     1.0000 0.19167  0.85853  0.07223  Biso   1.000  O
  O152     1.0000 0.09527  0.90043  0.07453  Biso   1.000  O
  O153     1.0000 0.14367  0.94853  0.02253  Biso   1.000  O
  O154     1.0000 0.08927  0.83923  0.23863  Biso   1.000  O
  O155     1.0000 0.03027  0.83113  0.26933  Biso   1.000  O
  O156     1.0000 0.08617  0.91343  0.21053  Biso   1.000  O
  O157     1.0000 0.12727  0.97283  0.25053  Biso   1.000  O
  O158     1.0000 0.16690  0.92143  0.23243  Biso   1.000  O
  O159     1.0000 0.16657  0.88273  0.30023  Biso   1.000  O
  O160     1.0000 0.19567  0.77703  0.07563  Biso   1.000  O
  O161     1.0000 0.17427  0.78983  0.15633  Biso   1.000  O
  O162     1.0000 0.21387  0.06653  0.25913  Biso   1.000  O
  O163     1.0000 0.21447  0.03493  0.18453  Biso   1.000  O
  O164     1.0000 0.94267  0.82283  0.26043  Biso   1.000  O
  O165     1.0000 0.97217  0.83103  0.17793  Biso   1.000  O
  O166     1.0000 0.15215  0.84705  0.18273  Biso   1.000  O
  O167     1.0000 0.15903  0.95873  0.14433  Biso   1.000  O
  O168     1.0000 0.04777  0.84723  0.14713  Biso   1.000  O
  N43      1.0000 0.11617  0.76953  0.05903  Biso   1.000  N
  H190     1.0000 0.13607  0.77443  0.03493  Biso   1.000  H
  H191     1.0000 0.10557  0.74383  0.07093  Biso   1.000  H
  N44      1.0000 0.23097  0.96083  0.02943  Biso   1.000  N
  H192     1.0000 0.22317  0.96343  0.99533  Biso   1.000  H
  H193     1.0000 0.25657  0.98103  0.03463  Biso   1.000  H
  N45      1.0000 0.03577  0.88293  0.00223  Biso   1.000  N
  H194     1.0000 0.02217  0.86343  0.97703  Biso   1.000  H
  H195     1.0000 0.02297  0.89713  0.00673  Biso   1.000  H
  N46      1.0000 0.09487  0.79433  0.31733  Biso   1.000  N
  H196     1.0000 0.08427  0.76733  0.31463  Biso   1.000  H
  H197     1.0000 0.11027  0.80283  0.34783  Biso   1.000  H
  N47      1.0000 0.01597  0.90183  0.25243  Biso   1.000  N
  H198     1.0000 0.99667  0.90653  0.23903  Biso   1.000  H
  H199     1.0000 0.00697  0.88793  0.28403  Biso   1.000  H
  N48      1.0000 0.21357  0.99113  0.28783  Biso   1.000  N
  H200     1.0000 0.24057  0.00173  0.28353  Biso   1.000  H
  H201     1.0000 0.20937  0.00913  0.30653  Biso   1.000  H
  C106     1.0000 0.08427  0.77453  0.03123  Biso   1.000  C
  H202     1.0000 0.05857  0.74963  0.03533  Biso   1.000  H
  H203     1.0000 0.09047  0.77863  0.99233  Biso   1.000  H
  C107     1.0000 0.07967  0.80963  0.05283  Biso   1.000  C
  C108     1.0000 0.22927  0.92253  0.03413  Biso   1.000  C
  H204     1.0000 0.25537  0.92723  0.04713  Biso   1.000  H
  H205     1.0000 0.22497  0.91053  0.99773  Biso   1.000  H
  C109     1.0000 0.19787  0.89343  0.07073  Biso   1.000  C
  C110     1.0000 0.07497  0.90803  0.98533  Biso   1.000  C
  H206     1.0000 0.07667  0.93243  0.97033  Biso   1.000  H
  H207     1.0000 0.08057  0.89463  0.95553  Biso   1.000  H
  C111     1.0000 0.10877  0.92083  0.02943  Biso   1.000  C
  C112     1.0000 0.06307  0.80373  0.32123  Biso   1.000  C
  H208     1.0000 0.06767  0.82063  0.35333  Biso   1.000  H
  H209     1.0000 0.03747  0.77873  0.32643  Biso   1.000  H
  C113     1.0000 0.05997  0.82483  0.27233  Biso   1.000  C
  C114     1.0000 0.05677  0.94403  0.26363  Biso   1.000  C
  H210     1.0000 0.05437  0.96593  0.24703  Biso   1.000  H
  H211     1.0000 0.06007  0.94893  0.30293  Biso   1.000  H
  C115     1.0000 0.09367  0.94453  0.24093  Biso   1.000  C
  C116     1.0000 0.19617  0.95243  0.31813  Biso   1.000  C
  H212     1.0000 0.17687  0.95153  0.34493  Biso   1.000  H
  H213     1.0000 0.21777  0.95143  0.33803  Biso   1.000  H
  C117     1.0000 0.17507  0.91543  0.28123  Biso   1.000  C
  C118     1.0000 0.19647  0.77993  0.12883  Biso   1.000  C
  H214     1.0000 0.21447  0.77463  0.14803  Biso   1.000  H
  C119     1.0000 0.22337  0.06453  0.21103  Biso   1.000  C
  H215     1.0000 0.23937  0.08923  0.19333  Biso   1.000  H
  C120     1.0000 0.94447  0.81413  0.20993  Biso   1.000  C
  H216     1.0000 0.92127  0.79183  0.19613  Biso   1.000  H
  Gd17     1.0000 0.89511  0.10386  0.33292  Biso   1.000  Gd
  Gd18     1.0000 0.78631  0.21781  0.49180  Biso   1.000  Gd
  Cu49     1.0000 0.80616  0.14093  0.45643  Biso   1.000  Cu
  Cu50     1.0000 0.86199  0.29822  0.41703  Biso   1.000  Cu
  Cu51     1.0000 0.70489  0.19203  0.40544  Biso   1.000  Cu
  Cu52     1.0000 0.79456  0.15437  0.58590  Biso   1.000  Cu
  Cu53     1.0000 0.69394  0.20475  0.53432  Biso   1.000  Cu
  Cu54     1.0000 0.85283  0.31292  0.54753  Biso   1.000  Cu
  O169     1.0000 0.76803  0.15927  0.43157  Biso   1.000  O
  O170     1.0000 0.72323  0.14907  0.36387  Biso   1.000  O
  O171     1.0000 0.84413  0.23997  0.42877  Biso   1.000  O
  O172     1.0000 0.85833  0.19187  0.40557  Biso   1.000  O
  O173     1.0000 0.76193  0.23377  0.40787  Biso   1.000  O
  O174     1.0000 0.81033  0.28187  0.35587  Biso   1.000  O
  O175     1.0000 0.75593  0.17257  0.57197  Biso   1.000  O
  O176     1.0000 0.69693  0.16447  0.60267  Biso   1.000  O
  O177     1.0000 0.75283  0.24677  0.54387  Biso   1.000  O
  O178     1.0000 0.79393  0.30617  0.58387  Biso   1.000  O
  O179     1.0000 0.83356  0.25477  0.56577  Biso   1.000  O
  O180     1.0000 0.83323  0.21607  0.63357  Biso   1.000  O
  O181     1.0000 0.86233  0.11037  0.40897  Biso   1.000  O
  O182     1.0000 0.84093  0.12317  0.48967  Biso   1.000  O
  O183     1.0000 0.88053  0.39987  0.59247  Biso   1.000  O
  O184     1.0000 0.88113  0.36827  0.51787  Biso   1.000  O
  O185     1.0000 0.60933  0.15617  0.59377  Biso   1.000  O
  O186     1.0000 0.63883  0.16437  0.51127  Biso   1.000  O
  O187     1.0000 0.81881  0.18039  0.51607  Biso   1.000  O
  O188     1.0000 0.82569  0.29207  0.47767  Biso   1.000  O
  O189     1.0000 0.71443  0.18057  0.48047  Biso   1.000  O
  N49      1.0000 0.78283  0.10287  0.39237  Biso   1.000  N
  H217     1.0000 0.80273  0.10777  0.36827  Biso   1.000  H
  H218     1.0000 0.77223  0.07717  0.40427  Biso   1.000  H
  N50      1.0000 0.89763  0.29417  0.36277  Biso   1.000  N
  H219     1.0000 0.88983  0.29677  0.32867  Biso   1.000  H
  H220     1.0000 0.92323  0.31437  0.36797  Biso   1.000  H
  N51      1.0000 0.70243  0.21627  0.33557  Biso   1.000  N
  H221     1.0000 0.68883  0.19677  0.31037  Biso   1.000  H
  H222     1.0000 0.68963  0.23047  0.34007  Biso   1.000  H
  N52      1.0000 0.76153  0.12767  0.65067  Biso   1.000  N
  H223     1.0000 0.75093  0.10067  0.64797  Biso   1.000  H
  H224     1.0000 0.77693  0.13617  0.68117  Biso   1.000  H
  N53      1.0000 0.68263  0.23517  0.58577  Biso   1.000  N
  H225     1.0000 0.66333  0.23987  0.57237  Biso   1.000  H
  H226     1.0000 0.67363  0.22127  0.61737  Biso   1.000  H
  N54      1.0000 0.88023  0.32447  0.62117  Biso   1.000  N
  H227     1.0000 0.90723  0.33507  0.61687  Biso   1.000  H
  H228     1.0000 0.87603  0.34247  0.63987  Biso   1.000  H
  C121     1.0000 0.75093  0.10787  0.36457  Biso   1.000  C
  H229     1.0000 0.72523  0.08297  0.36867  Biso   1.000  H
  H230     1.0000 0.75713  0.11197  0.32567  Biso   1.000  H
  C122     1.0000 0.74633  0.14297  0.38617  Biso   1.000  C
  C123     1.0000 0.89593  0.25587  0.36747  Biso   1.000  C
  H231     1.0000 0.92203  0.26057  0.38047  Biso   1.000  H
  H232     1.0000 0.89163  0.24387  0.33107  Biso   1.000  H
  C124     1.0000 0.86453  0.22677  0.40407  Biso   1.000  C
  C125     1.0000 0.74163  0.24137  0.31867  Biso   1.000  C
  H233     1.0000 0.74333  0.26577  0.30367  Biso   1.000  H
  H234     1.0000 0.74723  0.22797  0.28887  Biso   1.000  H
  C126     1.0000 0.77543  0.25417  0.36277  Biso   1.000  C
  C127     1.0000 0.72973  0.13707  0.65457  Biso   1.000  C
  H235     1.0000 0.73433  0.15397  0.68667  Biso   1.000  H
  H236     1.0000 0.70413  0.11207  0.65977  Biso   1.000  H
  C128     1.0000 0.72663  0.15817  0.60567  Biso   1.000  C
  C129     1.0000 0.72343  0.27737  0.59697  Biso   1.000  C
  H237     1.0000 0.72103  0.29927  0.58037  Biso   1.000  H
  H238     1.0000 0.72673  0.28227  0.63627  Biso   1.000  H
  C130     1.0000 0.76033  0.27787  0.57427  Biso   1.000  C
  C131     1.0000 0.86283  0.28577  0.65147  Biso   1.000  C
  H239     1.0000 0.84353  0.28487  0.67827  Biso   1.000  H
  H240     1.0000 0.88443  0.28477  0.67137  Biso   1.000  H
  C132     1.0000 0.84173  0.24877  0.61457  Biso   1.000  C
  C133     1.0000 0.86313  0.11327  0.46217  Biso   1.000  C
  H241     1.0000 0.88113  0.10797  0.48137  Biso   1.000  H
  C134     1.0000 0.89003  0.39787  0.54437  Biso   1.000  C
  H242     1.0000 0.90603  0.42257  0.52667  Biso   1.000  H
  C135     1.0000 0.61113  0.14747  0.54327  Biso   1.000  C
  H243     1.0000 0.58793  0.12517  0.52947  Biso   1.000  H
  Gd19     1.0000 0.43719  0.87541  0.33375  Biso   1.000  Gd
  Gd20     1.0000 0.55114  0.09817  0.17487  Biso   1.000  Gd
  Cu55     1.0000 0.47426  0.00143  0.21024  Biso   1.000  Cu
  Cu56     1.0000 0.63155  0.10289  0.24964  Biso   1.000  Cu
  Cu57     1.0000 0.52536  0.15380  0.26123  Biso   1.000  Cu
  Cu58     1.0000 0.48770  0.02647  0.08077  Biso   1.000  Cu
  Cu59     1.0000 0.53808  0.17747  0.13235  Biso   1.000  Cu
  Cu60     1.0000 0.64625  0.12675  0.11914  Biso   1.000  Cu
  O190     1.0000 0.49260  0.05790  0.23510  Biso   1.000  O
  O191     1.0000 0.48240  0.09250  0.30280  Biso   1.000  O
  O192     1.0000 0.57330  0.06250  0.23790  Biso   1.000  O
  O193     1.0000 0.52520  0.00020  0.26110  Biso   1.000  O
  O194     1.0000 0.56710  0.13850  0.25880  Biso   1.000  O
  O195     1.0000 0.61520  0.13820  0.31080  Biso   1.000  O
  O196     1.0000 0.50590  0.08330  0.09470  Biso   1.000  O
  O197     1.0000 0.49780  0.13420  0.06400  Biso   1.000  O
  O198     1.0000 0.58010  0.16060  0.12280  Biso   1.000  O
  O199     1.0000 0.63950  0.17890  0.08280  Biso   1.000  O
  O200     1.0000 0.58810  0.08787  0.10090  Biso   1.000  O
  O201     1.0000 0.54940  0.04950  0.03310  Biso   1.000  O
  O202     1.0000 0.44370  0.91470  0.25770  Biso   1.000  O
  O203     1.0000 0.45650  0.94890  0.17700  Biso   1.000  O
  O204     1.0000 0.73320  0.18600  0.07420  Biso   1.000  O
  O205     1.0000 0.70160  0.15380  0.14880  Biso   1.000  O
  O206     1.0000 0.48950  0.21350  0.07290  Biso   1.000  O
  O207     1.0000 0.49770  0.19220  0.15540  Biso   1.000  O
  O208     1.0000 0.51372  0.02824  0.15060  Biso   1.000  O
  O209     1.0000 0.62540  0.13304  0.18900  Biso   1.000  O
  O210     1.0000 0.51390  0.13280  0.18620  Biso   1.000  O
  N55      1.0000 0.43620  0.98670  0.27430  Biso   1.000  N
  H244     1.0000 0.44110  0.97170  0.29840  Biso   1.000  H
  H245     1.0000 0.41050  0.97160  0.26240  Biso   1.000  H
  N56      1.0000 0.62750  0.06320  0.30390  Biso   1.000  N
  H246     1.0000 0.63010  0.07360  0.33800  Biso   1.000  H
  H247     1.0000 0.64770  0.05780  0.29870  Biso   1.000  H
  N57      1.0000 0.54960  0.18050  0.33110  Biso   1.000  N
  H248     1.0000 0.53010  0.17460  0.35630  Biso   1.000  H
  H249     1.0000 0.56380  0.20750  0.32660  Biso   1.000  H
  N58      1.0000 0.46100  0.03280  0.01600  Biso   1.000  N
  H250     1.0000 0.43400  0.01640  0.01870  Biso   1.000  H
  H251     1.0000 0.46950  0.02590  0.98550  Biso   1.000  H
  N59      1.0000 0.56850  0.21920  0.08090  Biso   1.000  N
  H252     1.0000 0.57320  0.24320  0.09430  Biso   1.000  H
  H253     1.0000 0.55460  0.21430  0.04930  Biso   1.000  H
  N60      1.0000 0.65780  0.11090  0.04550  Biso   1.000  N
  H254     1.0000 0.66840  0.09450  0.04980  Biso   1.000  H
  H255     1.0000 0.67580  0.13310  0.02680  Biso   1.000  H
  C136     1.0000 0.44120  0.02360  0.30210  Biso   1.000  C
  H256     1.0000 0.41630  0.02440  0.29800  Biso   1.000  H
  H257     1.0000 0.44530  0.02150  0.34100  Biso   1.000  H
  C137     1.0000 0.47630  0.06330  0.28050  Biso   1.000  C
  C138     1.0000 0.58920  0.02660  0.29920  Biso   1.000  C
  H258     1.0000 0.59390  0.00520  0.28620  Biso   1.000  H
  H259     1.0000 0.57720  0.01890  0.33560  Biso   1.000  H
  C139     1.0000 0.56010  0.02890  0.26260  Biso   1.000  C
  C140     1.0000 0.57470  0.16640  0.34800  Biso   1.000  C
  H260     1.0000 0.59910  0.18910  0.36300  Biso   1.000  H
  H261     1.0000 0.56130  0.14740  0.37780  Biso   1.000  H
  C141     1.0000 0.58750  0.14540  0.30390  Biso   1.000  C
  C142     1.0000 0.47040  0.07400  0.01210  Biso   1.000  C
  H262     1.0000 0.48730  0.08630  0.98000  Biso   1.000  H
  H263     1.0000 0.44540  0.07460  0.00690  Biso   1.000  H
  C143     1.0000 0.49150  0.09820  0.06100  Biso   1.000  C
  C144     1.0000 0.61070  0.22060  0.06970  Biso   1.000  C
  H264     1.0000 0.63260  0.24490  0.08630  Biso   1.000  H
  H265     1.0000 0.61560  0.22220  0.03040  Biso   1.000  H
  C145     1.0000 0.61120  0.18420  0.09240  Biso   1.000  C
  C146     1.0000 0.61910  0.08960  0.01520  Biso   1.000  C
  H266     1.0000 0.61820  0.10800  0.98840  Biso   1.000  H
  H267     1.0000 0.61810  0.06700  0.99530  Biso   1.000  H
  C147     1.0000 0.58210  0.07370  0.05210  Biso   1.000  C
  C148     1.0000 0.44660  0.91680  0.20450  Biso   1.000  C
  H268     1.0000 0.44130  0.89350  0.18530  Biso   1.000  H
  C149     1.0000 0.73120  0.17450  0.12230  Biso   1.000  C
  H269     1.0000 0.75590  0.18320  0.14000  Biso   1.000  H
  C150     1.0000 0.48080  0.20300  0.12340  Biso   1.000  C
  H270     1.0000 0.45850  0.20390  0.13720  Biso   1.000  H
  Gd21     1.0000 0.10386  0.20874  0.66708  Biso   1.000  Gd
  Gd22     1.0000 0.21781  0.43150  0.50820  Biso   1.000  Gd
  Cu61     1.0000 0.14093  0.33476  0.54357  Biso   1.000  Cu
  Cu62     1.0000 0.29822  0.43622  0.58297  Biso   1.000  Cu
  Cu63     1.0000 0.19203  0.48713  0.59456  Biso   1.000  Cu
  Cu64     1.0000 0.15437  0.35980  0.41410  Biso   1.000  Cu
  Cu65     1.0000 0.20475  0.51080  0.46568  Biso   1.000  Cu
  Cu66     1.0000 0.31292  0.46008  0.45247  Biso   1.000  Cu
  O211     1.0000 0.15927  0.39123  0.56843  Biso   1.000  O
  O212     1.0000 0.14907  0.42583  0.63613  Biso   1.000  O
  O213     1.0000 0.23997  0.39583  0.57123  Biso   1.000  O
  O214     1.0000 0.19187  0.33353  0.59443  Biso   1.000  O
  O215     1.0000 0.23377  0.47183  0.59213  Biso   1.000  O
  O216     1.0000 0.28187  0.47153  0.64413  Biso   1.000  O
  O217     1.0000 0.17257  0.41663  0.42803  Biso   1.000  O
  O218     1.0000 0.16447  0.46753  0.39733  Biso   1.000  O
  O219     1.0000 0.24677  0.49393  0.45613  Biso   1.000  O
  O220     1.0000 0.30617  0.51223  0.41613  Biso   1.000  O
  O221     1.0000 0.25477  0.42120  0.43423  Biso   1.000  O
  O222     1.0000 0.21607  0.38283  0.36643  Biso   1.000  O
  O223     1.0000 0.11037  0.24803  0.59103  Biso   1.000  O
  O224     1.0000 0.12317  0.28223  0.51033  Biso   1.000  O
  O225     1.0000 0.39987  0.51933  0.40753  Biso   1.000  O
  O226     1.0000 0.36827  0.48713  0.48213  Biso   1.000  O
  O227     1.0000 0.15617  0.54683  0.40623  Biso   1.000  O
  O228     1.0000 0.16437  0.52553  0.48873  Biso   1.000  O
  O229     1.0000 0.18039  0.36157  0.48393  Biso   1.000  O
  O230     1.0000 0.29207  0.46637  0.52233  Biso   1.000  O
  O231     1.0000 0.18057  0.46613  0.51953  Biso   1.000  O
  N61      1.0000 0.10287  0.32003  0.60763  Biso   1.000  N
  H271     1.0000 0.10777  0.30503  0.63173  Biso   1.000  H
  H272     1.0000 0.07717  0.30493  0.59573  Biso   1.000  H
  N62      1.0000 0.29417  0.39653  0.63723  Biso   1.000  N
  H273     1.0000 0.29677  0.40693  0.67133  Biso   1.000  H
  H274     1.0000 0.31437  0.39113  0.63203  Biso   1.000  H
  N63      1.0000 0.21627  0.51383  0.66443  Biso   1.000  N
  H275     1.0000 0.19677  0.50793  0.68963  Biso   1.000  H
  H276     1.0000 0.23047  0.54083  0.65993  Biso   1.000  H
  N64      1.0000 0.12767  0.36613  0.34933  Biso   1.000  N
  H277     1.0000 0.10067  0.34973  0.35203  Biso   1.000  H
  H278     1.0000 0.13617  0.35923  0.31883  Biso   1.000  H
  N65      1.0000 0.23517  0.55253  0.41423  Biso   1.000  N
  H279     1.0000 0.23987  0.57653  0.42763  Biso   1.000  H
  H280     1.0000 0.22127  0.54763  0.38263  Biso   1.000  H
  N66      1.0000 0.32447  0.44423  0.37883  Biso   1.000  N
  H281     1.0000 0.33507  0.42783  0.38313  Biso   1.000  H
  H282     1.0000 0.34247  0.46643  0.36013  Biso   1.000  H
  C151     1.0000 0.10787  0.35693  0.63543  Biso   1.000  C
  H283     1.0000 0.08297  0.35773  0.63133  Biso   1.000  H
  H284     1.0000 0.11197  0.35483  0.67433  Biso   1.000  H
  C152     1.0000 0.14297  0.39663  0.61383  Biso   1.000  C
  C153     1.0000 0.25587  0.35993  0.63253  Biso   1.000  C
  H285     1.0000 0.26057  0.33853  0.61953  Biso   1.000  H
  H286     1.0000 0.24387  0.35223  0.66893  Biso   1.000  H
  C154     1.0000 0.22677  0.36223  0.59593  Biso   1.000  C
  C155     1.0000 0.24137  0.49973  0.68133  Biso   1.000  C
  H287     1.0000 0.26577  0.52243  0.69633  Biso   1.000  H
  H288     1.0000 0.22797  0.48073  0.71113  Biso   1.000  H
  C156     1.0000 0.25417  0.47873  0.63723  Biso   1.000  C
  C157     1.0000 0.13707  0.40733  0.34543  Biso   1.000  C
  H289     1.0000 0.15397  0.41963  0.31333  Biso   1.000  H
  H290     1.0000 0.11207  0.40793  0.34023  Biso   1.000  H
  C158     1.0000 0.15817  0.43153  0.39433  Biso   1.000  C
  C159     1.0000 0.27737  0.55393  0.40303  Biso   1.000  C
  H291     1.0000 0.29927  0.57823  0.41963  Biso   1.000  H
  H292     1.0000 0.28227  0.55553  0.36373  Biso   1.000  H
  C160     1.0000 0.27787  0.51753  0.42573  Biso   1.000  C
  C161     1.0000 0.28577  0.42293  0.34853  Biso   1.000  C
  H293     1.0000 0.28487  0.44133  0.32173  Biso   1.000  H
  H294     1.0000 0.28477  0.40033  0.32863  Biso   1.000  H
  C162     1.0000 0.24877  0.40703  0.38543  Biso   1.000  C
  C163     1.0000 0.11327  0.25013  0.53783  Biso   1.000  C
  H295     1.0000 0.10797  0.22683  0.51863  Biso   1.000  H
  C164     1.0000 0.39787  0.50783  0.45563  Biso   1.000  C
  H296     1.0000 0.42257  0.51653  0.47333  Biso   1.000  H
  C165     1.0000 0.14747  0.53633  0.45673  Biso   1.000  C
  H297     1.0000 0.12517  0.53723  0.47053  Biso   1.000  H
  Gd23     1.0000 0.77052  0.54208  0.00042  Biso   1.000  Gd
  Gd24     1.0000 0.88448  0.76483  0.84154  Biso   1.000  Gd
  Cu67     1.0000 0.80759  0.66810  0.87691  Biso   1.000  Cu
  Cu68     1.0000 0.96488  0.76956  0.91631  Biso   1.000  Cu
  Cu69     1.0000 0.85869  0.82047  0.92790  Biso   1.000  Cu
  Cu70     1.0000 0.82103  0.69314  0.74744  Biso   1.000  Cu
  Cu71     1.0000 0.87141  0.84414  0.79902  Biso   1.000  Cu
  Cu72     1.0000 0.97958  0.79342  0.78581  Biso   1.000  Cu
  O232     1.0000 0.82593  0.72457  0.90177  Biso   1.000  O
  O233     1.0000 0.81573  0.75917  0.96947  Biso   1.000  O
  O234     1.0000 0.90663  0.72917  0.90457  Biso   1.000  O
  O235     1.0000 0.85853  0.66687  0.92777  Biso   1.000  O
  O236     1.0000 0.90043  0.80517  0.92547  Biso   1.000  O
  O237     1.0000 0.94853  0.80487  0.97747  Biso   1.000  O
  O238     1.0000 0.83923  0.74997  0.76137  Biso   1.000  O
  O239     1.0000 0.83113  0.80087  0.73067  Biso   1.000  O
  O240     1.0000 0.91343  0.82727  0.78947  Biso   1.000  O
  O241     1.0000 0.97283  0.84557  0.74947  Biso   1.000  O
  O242     1.0000 0.92143  0.75454  0.76757  Biso   1.000  O
  O243     1.0000 0.88273  0.71617  0.69977  Biso   1.000  O
  O244     1.0000 0.77703  0.58137  0.92437  Biso   1.000  O
  O245     1.0000 0.78983  0.61557  0.84367  Biso   1.000  O
  O246     1.0000 0.06653  0.85267  0.74087  Biso   1.000  O
  O247     1.0000 0.03493  0.82047  0.81547  Biso   1.000  O
  O248     1.0000 0.82283  0.88017  0.73957  Biso   1.000  O
  O249     1.0000 0.83103  0.85887  0.82207  Biso   1.000  O
  O250     1.0000 0.84705  0.69491  0.81727  Biso   1.000  O
  O251     1.0000 0.95873  0.79971  0.85567  Biso   1.000  O
  O252     1.0000 0.84723  0.79947  0.85287  Biso   1.000  O
  N67      1.0000 0.76953  0.65337  0.94097  Biso   1.000  N
  H298     1.0000 0.77443  0.63837  0.96507  Biso   1.000  H
  H299     1.0000 0.74383  0.63827  0.92907  Biso   1.000  H
  N68      1.0000 0.96083  0.72987  0.97057  Biso   1.000  N
  H300     1.0000 0.96343  0.74027  0.00467  Biso   1.000  H
  H301     1.0000 0.98103  0.72447  0.96537  Biso   1.000  H
  N69      1.0000 0.88293  0.84717  0.99777  Biso   1.000  N
  H302     1.0000 0.86343  0.84127  0.02297  Biso   1.000  H
  H303     1.0000 0.89713  0.87417  0.99327  Biso   1.000  H
  N70      1.0000 0.79433  0.69947  0.68267  Biso   1.000  N
  H304     1.0000 0.76733  0.68307  0.68537  Biso   1.000  H
  H305     1.0000 0.80283  0.69257  0.65217  Biso   1.000  H
  N71      1.0000 0.90183  0.88587  0.74757  Biso   1.000  N
  H306     1.0000 0.90653  0.90987  0.76097  Biso   1.000  H
  H307     1.0000 0.88793  0.88097  0.71597  Biso   1.000  H
  N72      1.0000 0.99113  0.77757  0.71217  Biso   1.000  N
  H308     1.0000 0.00173  0.76117  0.71647  Biso   1.000  H
  H309     1.0000 0.00913  0.79977  0.69347  Biso   1.000  H
  C166     1.0000 0.77453  0.69027  0.96877  Biso   1.000  C
  H310     1.0000 0.74963  0.69107  0.96467  Biso   1.000  H
  H311     1.0000 0.77863  0.68817  0.00767  Biso   1.000  H
  C167     1.0000 0.80963  0.72997  0.94717  Biso   1.000  C
  C168     1.0000 0.92253  0.69327  0.96587  Biso   1.000  C
  H312     1.0000 0.92723  0.67187  0.95287  Biso   1.000  H
  H313     1.0000 0.91053  0.68557  0.00227  Biso   1.000  H
  C169     1.0000 0.89343  0.69557  0.92927  Biso   1.000  C
  C170     1.0000 0.90803  0.83307  0.01467  Biso   1.000  C
  H314     1.0000 0.93243  0.85577  0.02967  Biso   1.000  H
  H315     1.0000 0.89463  0.81407  0.04447  Biso   1.000  H
  C171     1.0000 0.92083  0.81207  0.97057  Biso   1.000  C
  C172     1.0000 0.80373  0.74067  0.67877  Biso   1.000  C
  H316     1.0000 0.82063  0.75297  0.64667  Biso   1.000  H
  H317     1.0000 0.77873  0.74127  0.67357  Biso   1.000  H
  C173     1.0000 0.82483  0.76487  0.72767  Biso   1.000  C
  C174     1.0000 0.94403  0.88727  0.73637  Biso   1.000  C
  H318     1.0000 0.96593  0.91157  0.75297  Biso   1.000  H
  H319     1.0000 0.94893  0.88887  0.69707  Biso   1.000  H
  C175     1.0000 0.94453  0.85087  0.75907  Biso   1.000  C
  C176     1.0000 0.95243  0.75627  0.68187  Biso   1.000  C
  H320     1.0000 0.95153  0.77467  0.65507  Biso   1.000  H
  H321     1.0000 0.95143  0.73367  0.66197  Biso   1.000  H
  C177     1.0000 0.91543  0.74037  0.71877  Biso   1.000  C
  C178     1.0000 0.77993  0.58347  0.87117  Biso   1.000  C
  H322     1.0000 0.77463  0.56017  0.85197  Biso   1.000  H
  C179     1.0000 0.06453  0.84117  0.78897  Biso   1.000  C
  H323     1.0000 0.08923  0.84987  0.80667  Biso   1.000  H
  C180     1.0000 0.81413  0.86967  0.79007  Biso   1.000  C
  H324     1.0000 0.79183  0.87057  0.80387  Biso   1.000  H
  Gd25     1.0000 0.12459  0.56178  0.33375  Biso   1.000  Gd
  Gd26     1.0000 0.90183  0.45298  0.17487  Biso   1.000  Gd
  Cu73     1.0000 0.99857  0.47283  0.21024  Biso   1.000  Cu
  Cu74     1.0000 0.89711  0.52866  0.24964  Biso   1.000  Cu
  Cu75     1.0000 0.84620  0.37156  0.26123  Biso   1.000  Cu
  Cu76     1.0000 0.97353  0.46123  0.08077  Biso   1.000  Cu
  Cu77     1.0000 0.82253  0.36061  0.13235  Biso   1.000  Cu
  Cu78     1.0000 0.87325  0.51950  0.11914  Biso   1.000  Cu
  O253     1.0000 0.94210  0.43470  0.23510  Biso   1.000  O
  O254     1.0000 0.90750  0.38990  0.30280  Biso   1.000  O
  O255     1.0000 0.93750  0.51080  0.23790  Biso   1.000  O
  O256     1.0000 0.99980  0.52500  0.26110  Biso   1.000  O
  O257     1.0000 0.86150  0.42860  0.25880  Biso   1.000  O
  O258     1.0000 0.86180  0.47700  0.31080  Biso   1.000  O
  O259     1.0000 0.91670  0.42260  0.09470  Biso   1.000  O
  O260     1.0000 0.86580  0.36360  0.06400  Biso   1.000  O
  O261     1.0000 0.83940  0.41950  0.12280  Biso   1.000  O
  O262     1.0000 0.82110  0.46060  0.08280  Biso   1.000  O
  O263     1.0000 0.91213  0.50023  0.10090  Biso   1.000  O
  O264     1.0000 0.95050  0.49990  0.03310  Biso   1.000  O
  O265     1.0000 0.08530  0.52900  0.25770  Biso   1.000  O
  O266     1.0000 0.05110  0.50760  0.17700  Biso   1.000  O
  O267     1.0000 0.81400  0.54720  0.07420  Biso   1.000  O
  O268     1.0000 0.84620  0.54780  0.14880  Biso   1.000  O
  O269     1.0000 0.78650  0.27600  0.07290  Biso   1.000  O
  O270     1.0000 0.80780  0.30550  0.15540  Biso   1.000  O
  O271     1.0000 0.97176  0.48548  0.15060  Biso   1.000  O
  O272     1.0000 0.86696  0.49236  0.18900  Biso   1.000  O
  O273     1.0000 0.86720  0.38110  0.18620  Biso   1.000  O
  N73      1.0000 0.01330  0.44950  0.27430  Biso   1.000  N
  H325     1.0000 0.02830  0.46940  0.29840  Biso   1.000  H
  H326     1.0000 0.02840  0.43890  0.26240  Biso   1.000  H
  N74      1.0000 0.93680  0.56430  0.30390  Biso   1.000  N
  H327     1.0000 0.92640  0.55650  0.33800  Biso   1.000  H
  H328     1.0000 0.94220  0.58990  0.29870  Biso   1.000  H
  N75      1.0000 0.81950  0.36910  0.33110  Biso   1.000  N
  H329     1.0000 0.82540  0.35550  0.35630  Biso   1.000  H
  H330     1.0000 0.79250  0.35630  0.32660  Biso   1.000  H
  N76      1.0000 0.96720  0.42820  0.01600  Biso   1.000  N
  H331     1.0000 0.98360  0.41760  0.01870  Biso   1.000  H
  H332     1.0000 0.97410  0.44360  0.98550  Biso   1.000  H
  N77      1.0000 0.78080  0.34930  0.08090  Biso   1.000  N
  H333     1.0000 0.75680  0.33000  0.09430  Biso   1.000  H
  H334     1.0000 0.78570  0.34030  0.04930  Biso   1.000  H
  N78      1.0000 0.88910  0.54690  0.04550  Biso   1.000  N
  H335     1.0000 0.90550  0.57390  0.04980  Biso   1.000  H
  H336     1.0000 0.86690  0.54270  0.02680  Biso   1.000  H
  C181     1.0000 0.97640  0.41760  0.30210  Biso   1.000  C
  H337     1.0000 0.97560  0.39190  0.29800  Biso   1.000  H
  H338     1.0000 0.97850  0.42380  0.34100  Biso   1.000  H
  C182     1.0000 0.93670  0.41300  0.28050  Biso   1.000  C
  C183     1.0000 0.97340  0.56260  0.29920  Biso   1.000  C
  H339     1.0000 0.99480  0.58870  0.28620  Biso   1.000  H
  H340     1.0000 0.98110  0.55830  0.33560  Biso   1.000  H
  C184     1.0000 0.97110  0.53120  0.26260  Biso   1.000  C
  C185     1.0000 0.83360  0.40830  0.34800  Biso   1.000  C
  H341     1.0000 0.81090  0.41000  0.36300  Biso   1.000  H
  H342     1.0000 0.85260  0.41390  0.37780  Biso   1.000  H
  C186     1.0000 0.85460  0.44210  0.30390  Biso   1.000  C
  C187     1.0000 0.92600  0.39640  0.01210  Biso   1.000  C
  H343     1.0000 0.91370  0.40100  0.98000  Biso   1.000  H
  H344     1.0000 0.92540  0.37080  0.00690  Biso   1.000  H
  C188     1.0000 0.90180  0.39330  0.06100  Biso   1.000  C
  C189     1.0000 0.77940  0.39010  0.06970  Biso   1.000  C
  H345     1.0000 0.75510  0.38770  0.08630  Biso   1.000  H
  H346     1.0000 0.77780  0.39340  0.03040  Biso   1.000  H
  C190     1.0000 0.81580  0.42700  0.09240  Biso   1.000  C
  C191     1.0000 0.91040  0.52950  0.01520  Biso   1.000  C
  H347     1.0000 0.89200  0.51020  0.98840  Biso   1.000  H
  H348     1.0000 0.93300  0.55110  0.99530  Biso   1.000  H
  C192     1.0000 0.92630  0.50840  0.05210  Biso   1.000  C
  C193     1.0000 0.08320  0.52980  0.20450  Biso   1.000  C
  H349     1.0000 0.10650  0.54780  0.18530  Biso   1.000  H
  C194     1.0000 0.82550  0.55670  0.12230  Biso   1.000  C
  H350     1.0000 0.81680  0.57270  0.14000  Biso   1.000  H
  C195     1.0000 0.79700  0.27780  0.12340  Biso   1.000  C
  H351     1.0000 0.79610  0.25460  0.13720  Biso   1.000  H
  Gd27     1.0000 0.79126  0.89511  0.66708  Biso   1.000  Gd
  Gd28     1.0000 0.56850  0.78631  0.50820  Biso   1.000  Gd
  Cu79     1.0000 0.66524  0.80616  0.54357  Biso   1.000  Cu
  Cu80     1.0000 0.56378  0.86199  0.58297  Biso   1.000  Cu
  Cu81     1.0000 0.51287  0.70489  0.59456  Biso   1.000  Cu
  Cu82     1.0000 0.64020  0.79456  0.41410  Biso   1.000  Cu
  Cu83     1.0000 0.48920  0.69394  0.46568  Biso   1.000  Cu
  Cu84     1.0000 0.53992  0.85283  0.45247  Biso   1.000  Cu
  O274     1.0000 0.60877  0.76803  0.56843  Biso   1.000  O
  O275     1.0000 0.57417  0.72323  0.63613  Biso   1.000  O
  O276     1.0000 0.60417  0.84413  0.57123  Biso   1.000  O
  O277     1.0000 0.66647  0.85833  0.59443  Biso   1.000  O
  O278     1.0000 0.52817  0.76193  0.59213  Biso   1.000  O
  O279     1.0000 0.52847  0.81033  0.64413  Biso   1.000  O
  O280     1.0000 0.58337  0.75593  0.42803  Biso   1.000  O
  O281     1.0000 0.53247  0.69693  0.39733  Biso   1.000  O
  O282     1.0000 0.50607  0.75283  0.45613  Biso   1.000  O
  O283     1.0000 0.48777  0.79393  0.41613  Biso   1.000  O
  O284     1.0000 0.57880  0.83356  0.43423  Biso   1.000  O
  O285     1.0000 0.61717  0.83323  0.36643  Biso   1.000  O
  O286     1.0000 0.75197  0.86233  0.59103  Biso   1.000  O
  O287     1.0000 0.71777  0.84093  0.51033  Biso   1.000  O
  O288     1.0000 0.48067  0.88053  0.40753  Biso   1.000  O
  O289     1.0000 0.51287  0.88113  0.48213  Biso   1.000  O
  O290     1.0000 0.45317  0.60933  0.40623  Biso   1.000  O
  O291     1.0000 0.47447  0.63883  0.48873  Biso   1.000  O
  O292     1.0000 0.63843  0.81881  0.48393  Biso   1.000  O
  O293     1.0000 0.53363  0.82569  0.52233  Biso   1.000  O
  O294     1.0000 0.53387  0.71443  0.51953  Biso   1.000  O
  N79      1.0000 0.67997  0.78283  0.60763  Biso   1.000  N
  H352     1.0000 0.69497  0.80273  0.63173  Biso   1.000  H
  H353     1.0000 0.69507  0.77223  0.59573  Biso   1.000  H
  N80      1.0000 0.60347  0.89763  0.63723  Biso   1.000  N
  H354     1.0000 0.59307  0.88983  0.67133  Biso   1.000  H
  H355     1.0000 0.60887  0.92323  0.63203  Biso   1.000  H
  N81      1.0000 0.48617  0.70243  0.66443  Biso   1.000  N
  H356     1.0000 0.49207  0.68883  0.68963  Biso   1.000  H
  H357     1.0000 0.45917  0.68963  0.65993  Biso   1.000  H
  N82      1.0000 0.63387  0.76153  0.34933  Biso   1.000  N
  H358     1.0000 0.65027  0.75093  0.35203  Biso   1.000  H
  H359     1.0000 0.64077  0.77693  0.31883  Biso   1.000  H
  N83      1.0000 0.44747  0.68263  0.41423  Biso   1.000  N
  H360     1.0000 0.42347  0.66333  0.42763  Biso   1.000  H
  H361     1.0000 0.45237  0.67363  0.38263  Biso   1.000  H
  N84      1.0000 0.55577  0.88023  0.37883  Biso   1.000  N
  H362     1.0000 0.57217  0.90723  0.38313  Biso   1.000  H
  H363     1.0000 0.53357  0.87603  0.36013  Biso   1.000  H
  C196     1.0000 0.64307  0.75093  0.63543  Biso   1.000  C
  H364     1.0000 0.64227  0.72523  0.63133  Biso   1.000  H
  H365     1.0000 0.64517  0.75713  0.67433  Biso   1.000  H
  C197     1.0000 0.60337  0.74633  0.61383  Biso   1.000  C
  C198     1.0000 0.64007  0.89593  0.63253  Biso   1.000  C
  H366     1.0000 0.66147  0.92203  0.61953  Biso   1.000  H
  H367     1.0000 0.64777  0.89163  0.66893  Biso   1.000  H
  C199     1.0000 0.63777  0.86453  0.59593  Biso   1.000  C
  C200     1.0000 0.50027  0.74163  0.68133  Biso   1.000  C
  H368     1.0000 0.47757  0.74333  0.69633  Biso   1.000  H
  H369     1.0000 0.51927  0.74723  0.71113  Biso   1.000  H
  C201     1.0000 0.52127  0.77543  0.63723  Biso   1.000  C
  C202     1.0000 0.59267  0.72973  0.34543  Biso   1.000  C
  H370     1.0000 0.58037  0.73433  0.31333  Biso   1.000  H
  H371     1.0000 0.59207  0.70413  0.34023  Biso   1.000  H
  C203     1.0000 0.56847  0.72663  0.39433  Biso   1.000  C
  C204     1.0000 0.44607  0.72343  0.40303  Biso   1.000  C
  H372     1.0000 0.42177  0.72103  0.41963  Biso   1.000  H
  H373     1.0000 0.44447  0.72673  0.36373  Biso   1.000  H
  C205     1.0000 0.48247  0.76033  0.42573  Biso   1.000  C
  C206     1.0000 0.57707  0.86283  0.34853  Biso   1.000  C
  H374     1.0000 0.55867  0.84353  0.32173  Biso   1.000  H
  H375     1.0000 0.59967  0.88443  0.32863  Biso   1.000  H
  C207     1.0000 0.59297  0.84173  0.38543  Biso   1.000  C
  C208     1.0000 0.74987  0.86313  0.53783  Biso   1.000  C
  H376     1.0000 0.77317  0.88113  0.51863  Biso   1.000  H
  C209     1.0000 0.49217  0.89003  0.45563  Biso   1.000  C
  H377     1.0000 0.48347  0.90603  0.47333  Biso   1.000  H
  C210     1.0000 0.46367  0.61113  0.45673  Biso   1.000  C
  H378     1.0000 0.46277  0.58793  0.47053  Biso   1.000  H
  Gd29     1.0000 0.45792  0.22845  0.00042  Biso   1.000  Gd
  Gd30     1.0000 0.23517  0.11964  0.84154  Biso   1.000  Gd
  Cu85     1.0000 0.33190  0.13950  0.87691  Biso   1.000  Cu
  Cu86     1.0000 0.23044  0.19533  0.91631  Biso   1.000  Cu
  Cu87     1.0000 0.17953  0.03823  0.92790  Biso   1.000  Cu
  Cu88     1.0000 0.30686  0.12790  0.74744  Biso   1.000  Cu
  Cu89     1.0000 0.15586  0.02728  0.79902  Biso   1.000  Cu
  Cu90     1.0000 0.20658  0.18617  0.78581  Biso   1.000  Cu
  O295     1.0000 0.27543  0.10137  0.90177  Biso   1.000  O
  O296     1.0000 0.24083  0.05657  0.96947  Biso   1.000  O
  O297     1.0000 0.27083  0.17747  0.90457  Biso   1.000  O
  O298     1.0000 0.33313  0.19167  0.92777  Biso   1.000  O
  O299     1.0000 0.19483  0.09527  0.92547  Biso   1.000  O
  O300     1.0000 0.19513  0.14367  0.97747  Biso   1.000  O
  O301     1.0000 0.25003  0.08927  0.76137  Biso   1.000  O
  O302     1.0000 0.19913  0.03027  0.73067  Biso   1.000  O
  O303     1.0000 0.17273  0.08617  0.78947  Biso   1.000  O
  O304     1.0000 0.15443  0.12727  0.74947  Biso   1.000  O
  O305     1.0000 0.24546  0.16690  0.76757  Biso   1.000  O
  O306     1.0000 0.28383  0.16657  0.69977  Biso   1.000  O
  O307     1.0000 0.41863  0.19567  0.92437  Biso   1.000  O
  O308     1.0000 0.38443  0.17427  0.84367  Biso   1.000  O
  O309     1.0000 0.14733  0.21387  0.74087  Biso   1.000  O
  O310     1.0000 0.17953  0.21447  0.81547  Biso   1.000  O
  O311     1.0000 0.11983  0.94267  0.73957  Biso   1.000  O
  O312     1.0000 0.14113  0.97217  0.82207  Biso   1.000  O
  O313     1.0000 0.30509  0.15215  0.81727  Biso   1.000  O
  O314     1.0000 0.20029  0.15903  0.85567  Biso   1.000  O
  O315     1.0000 0.20053  0.04777  0.85287  Biso   1.000  O
  N85      1.0000 0.34663  0.11617  0.94097  Biso   1.000  N
  H379     1.0000 0.36163  0.13607  0.96507  Biso   1.000  H
  H380     1.0000 0.36173  0.10557  0.92907  Biso   1.000  H
  N86      1.0000 0.27013  0.23097  0.97057  Biso   1.000  N
  H381     1.0000 0.25973  0.22317  0.00467  Biso   1.000  H
  H382     1.0000 0.27553  0.25657  0.96537  Biso   1.000  H
  N87      1.0000 0.15283  0.03577  0.99777  Biso   1.000  N
  H383     1.0000 0.15873  0.02217  0.02297  Biso   1.000  H
  H384     1.0000 0.12583  0.02297  0.99327  Biso   1.000  H
  N88      1.0000 0.30053  0.09487  0.68267  Biso   1.000  N
  H385     1.0000 0.31693  0.08427  0.68537  Biso   1.000  H
  H386     1.0000 0.30743  0.11027  0.65217  Biso   1.000  H
  N89      1.0000 0.11413  0.01597  0.74757  Biso   1.000  N
  H387     1.0000 0.09013  0.99667  0.76097  Biso   1.000  H
  H388     1.0000 0.11903  0.00697  0.71597  Biso   1.000  H
  N90      1.0000 0.22243  0.21357  0.71217  Biso   1.000  N
  H389     1.0000 0.23883  0.24057  0.71647  Biso   1.000  H
  H390     1.0000 0.20023  0.20937  0.69347  Biso   1.000  H
  C211     1.0000 0.30973  0.08427  0.96877  Biso   1.000  C
  H391     1.0000 0.30893  0.05857  0.96467  Biso   1.000  H
  H392     1.0000 0.31183  0.09047  0.00767  Biso   1.000  H
  C212     1.0000 0.27003  0.07967  0.94717  Biso   1.000  C
  C213     1.0000 0.30673  0.22927  0.96587  Biso   1.000  C
  H393     1.0000 0.32813  0.25537  0.95287  Biso   1.000  H
  H394     1.0000 0.31443  0.22497  0.00227  Biso   1.000  H
  C214     1.0000 0.30443  0.19787  0.92927  Biso   1.000  C
  C215     1.0000 0.16693  0.07497  0.01467  Biso   1.000  C
  H395     1.0000 0.14423  0.07667  0.02967  Biso   1.000  H
  H396     1.0000 0.18593  0.08057  0.04447  Biso   1.000  H
  C216     1.0000 0.18793  0.10877  0.97057  Biso   1.000  C
  C217     1.0000 0.25933  0.06307  0.67877  Biso   1.000  C
  H397     1.0000 0.24703  0.06767  0.64667  Biso   1.000  H
  H398     1.0000 0.25873  0.03747  0.67357  Biso   1.000  H
  C218     1.0000 0.23513  0.05997  0.72767  Biso   1.000  C
  C219     1.0000 0.11273  0.05677  0.73637  Biso   1.000  C
  H399     1.0000 0.08843  0.05437  0.75297  Biso   1.000  H
  H400     1.0000 0.11113  0.06007  0.69707  Biso   1.000  H
  C220     1.0000 0.14913  0.09367  0.75907  Biso   1.000  C
  C221     1.0000 0.24373  0.19617  0.68187  Biso   1.000  C
  H401     1.0000 0.22533  0.17687  0.65507  Biso   1.000  H
  H402     1.0000 0.26633  0.21777  0.66197  Biso   1.000  H
  C222     1.0000 0.25963  0.17507  0.71877  Biso   1.000  C
  C223     1.0000 0.41653  0.19647  0.87117  Biso   1.000  C
  H403     1.0000 0.43983  0.21447  0.85197  Biso   1.000  H
  C224     1.0000 0.15883  0.22337  0.78897  Biso   1.000  C
  H404     1.0000 0.15013  0.23937  0.80667  Biso   1.000  H
  C225     1.0000 0.13033  0.94447  0.79007  Biso   1.000  C
  H405     1.0000 0.12943  0.92127  0.80387  Biso   1.000  H
  Gd31     1.0000 0.43822  0.56281  0.33375  Biso   1.000  Gd
  Gd32     1.0000 0.54702  0.44886  0.17487  Biso   1.000  Gd
  Cu91     1.0000 0.52717  0.52574  0.21024  Biso   1.000  Cu
  Cu92     1.0000 0.47134  0.36845  0.24964  Biso   1.000  Cu
  Cu93     1.0000 0.62844  0.47464  0.26123  Biso   1.000  Cu
  Cu94     1.0000 0.53877  0.51230  0.08077  Biso   1.000  Cu
  Cu95     1.0000 0.63939  0.46192  0.13235  Biso   1.000  Cu
  Cu96     1.0000 0.48050  0.35375  0.11914  Biso   1.000  Cu
  O316     1.0000 0.56530  0.50740  0.23510  Biso   1.000  O
  O317     1.0000 0.61010  0.51760  0.30280  Biso   1.000  O
  O318     1.0000 0.48920  0.42670  0.23790  Biso   1.000  O
  O319     1.0000 0.47500  0.47480  0.26110  Biso   1.000  O
  O320     1.0000 0.57140  0.43290  0.25880  Biso   1.000  O
  O321     1.0000 0.52300  0.38480  0.31080  Biso   1.000  O
  O322     1.0000 0.57740  0.49410  0.09470  Biso   1.000  O
  O323     1.0000 0.63640  0.50220  0.06400  Biso   1.000  O
  O324     1.0000 0.58050  0.41990  0.12280  Biso   1.000  O
  O325     1.0000 0.53940  0.36050  0.08280  Biso   1.000  O
  O326     1.0000 0.49977  0.41190  0.10090  Biso   1.000  O
  O327     1.0000 0.50010  0.45060  0.03310  Biso   1.000  O
  O328     1.0000 0.47100  0.55630  0.25770  Biso   1.000  O
  O329     1.0000 0.49240  0.54350  0.17700  Biso   1.000  O
  O330     1.0000 0.45280  0.26680  0.07420  Biso   1.000  O
  O331     1.0000 0.45220  0.29840  0.14880  Biso   1.000  O
  O332     1.0000 0.72400  0.51050  0.07290  Biso   1.000  O
  O333     1.0000 0.69450  0.50230  0.15540  Biso   1.000  O
  O334     1.0000 0.51452  0.48628  0.15060  Biso   1.000  O
  O335     1.0000 0.50764  0.37460  0.18900  Biso   1.000  O
  O336     1.0000 0.61890  0.48610  0.18620  Biso   1.000  O
  N91      1.0000 0.55050  0.56380  0.27430  Biso   1.000  N
  H406     1.0000 0.53060  0.55890  0.29840  Biso   1.000  H
  H407     1.0000 0.56110  0.58950  0.26240  Biso   1.000  H
  N92      1.0000 0.43570  0.37250  0.30390  Biso   1.000  N
  H408     1.0000 0.44350  0.36990  0.33800  Biso   1.000  H
  H409     1.0000 0.41010  0.35230  0.29870  Biso   1.000  H
  N93      1.0000 0.63090  0.45040  0.33110  Biso   1.000  N
  H410     1.0000 0.64450  0.46990  0.35630  Biso   1.000  H
  H411     1.0000 0.64370  0.43620  0.32660  Biso   1.000  H
  N94      1.0000 0.57180  0.53900  0.01600  Biso   1.000  N
  H412     1.0000 0.58240  0.56600  0.01870  Biso   1.000  H
  H413     1.0000 0.55640  0.53050  0.98550  Biso   1.000  H
  N95      1.0000 0.65070  0.43150  0.08090  Biso   1.000  N
  H414     1.0000 0.67000  0.42680  0.09430  Biso   1.000  H
  H415     1.0000 0.65970  0.44540  0.04930  Biso   1.000  H
  N96      1.0000 0.45310  0.34220  0.04550  Biso   1.000  N
  H416     1.0000 0.42610  0.33160  0.04980  Biso   1.000  H
  H417     1.0000 0.45730  0.32420  0.02680  Biso   1.000  H
  C226     1.0000 0.58240  0.55880  0.30210  Biso   1.000  C
  H418     1.0000 0.60810  0.58370  0.29800  Biso   1.000  H
  H419     1.0000 0.57620  0.55470  0.34100  Biso   1.000  H
  C227     1.0000 0.58700  0.52370  0.28050  Biso   1.000  C
  C228     1.0000 0.43740  0.41080  0.29920  Biso   1.000  C
  H420     1.0000 0.41130  0.40610  0.28620  Biso   1.000  H
  H421     1.0000 0.44170  0.42280  0.33560  Biso   1.000  H
  C229     1.0000 0.46880  0.43990  0.26260  Biso   1.000  C
  C230     1.0000 0.59170  0.42530  0.34800  Biso   1.000  C
  H422     1.0000 0.59000  0.40090  0.36300  Biso   1.000  H
  H423     1.0000 0.58610  0.43870  0.37780  Biso   1.000  H
  C231     1.0000 0.55790  0.41250  0.30390  Biso   1.000  C
  C232     1.0000 0.60360  0.52960  0.01210  Biso   1.000  C
  H424     1.0000 0.59900  0.51270  0.98000  Biso   1.000  H
  H425     1.0000 0.62920  0.55460  0.00690  Biso   1.000  H
  C233     1.0000 0.60670  0.50850  0.06100  Biso   1.000  C
  C234     1.0000 0.60990  0.38930  0.06970  Biso   1.000  C
  H426     1.0000 0.61230  0.36740  0.08630  Biso   1.000  H
  H427     1.0000 0.60660  0.38440  0.03040  Biso   1.000  H
  C235     1.0000 0.57300  0.38880  0.09240  Biso   1.000  C
  C236     1.0000 0.47050  0.38090  0.01520  Biso   1.000  C
  H428     1.0000 0.48980  0.38180  0.98840  Biso   1.000  H
  H429     1.0000 0.44890  0.38190  0.99530  Biso   1.000  H
  C237     1.0000 0.49160  0.41790  0.05210  Biso   1.000  C
  C238     1.0000 0.47020  0.55340  0.20450  Biso   1.000  C
  H430     1.0000 0.45220  0.55870  0.18530  Biso   1.000  H
  C239     1.0000 0.44330  0.26880  0.12230  Biso   1.000  C
  H431     1.0000 0.42730  0.24410  0.14000  Biso   1.000  H
  C240     1.0000 0.72220  0.51920  0.12340  Biso   1.000  C
  H432     1.0000 0.74540  0.54150  0.13720  Biso   1.000  H
  Gd33     1.0000 0.10489  0.89614  0.66708  Biso   1.000  Gd
  Gd34     1.0000 0.21369  0.78219  0.50820  Biso   1.000  Gd
  Cu97     1.0000 0.19384  0.85907  0.54357  Biso   1.000  Cu
  Cu98     1.0000 0.13801  0.70178  0.58297  Biso   1.000  Cu
  Cu99     1.0000 0.29511  0.80797  0.59456  Biso   1.000  Cu
  Cu100    1.0000 0.20544  0.84563  0.41410  Biso   1.000  Cu
  Cu101    1.0000 0.30606  0.79525  0.46568  Biso   1.000  Cu
  Cu102    1.0000 0.14717  0.68708  0.45247  Biso   1.000  Cu
  O337     1.0000 0.23197  0.84073  0.56843  Biso   1.000  O
  O338     1.0000 0.27677  0.85093  0.63613  Biso   1.000  O
  O339     1.0000 0.15587  0.76003  0.57123  Biso   1.000  O
  O340     1.0000 0.14167  0.80813  0.59443  Biso   1.000  O
  O341     1.0000 0.23807  0.76623  0.59213  Biso   1.000  O
  O342     1.0000 0.18967  0.71813  0.64413  Biso   1.000  O
  O343     1.0000 0.24407  0.82743  0.42803  Biso   1.000  O
  O344     1.0000 0.30307  0.83553  0.39733  Biso   1.000  O
  O345     1.0000 0.24717  0.75323  0.45613  Biso   1.000  O
  O346     1.0000 0.20607  0.69383  0.41613  Biso   1.000  O
  O347     1.0000 0.16644  0.74523  0.43423  Biso   1.000  O
  O348     1.0000 0.16677  0.78393  0.36643  Biso   1.000  O
  O349     1.0000 0.13767  0.88963  0.59103  Biso   1.000  O
  O350     1.0000 0.15907  0.87683  0.51033  Biso   1.000  O
  O351     1.0000 0.11947  0.60013  0.40753  Biso   1.000  O
  O352     1.0000 0.11887  0.63173  0.48213  Biso   1.000  O
  O353     1.0000 0.39067  0.84383  0.40623  Biso   1.000  O
  O354     1.0000 0.36117  0.83563  0.48873  Biso   1.000  O
  O355     1.0000 0.18119  0.81961  0.48393  Biso   1.000  O
  O356     1.0000 0.17431  0.70793  0.52233  Biso   1.000  O
  O357     1.0000 0.28557  0.81943  0.51953  Biso   1.000  O
  N97      1.0000 0.21717  0.89713  0.60763  Biso   1.000  N
  H433     1.0000 0.19727  0.89223  0.63173  Biso   1.000  H
  H434     1.0000 0.22777  0.92283  0.59573  Biso   1.000  H
  N98      1.0000 0.10237  0.70583  0.63723  Biso   1.000  N
  H435     1.0000 0.11017  0.70323  0.67133  Biso   1.000  H
  H436     1.0000 0.07677  0.68563  0.63203  Biso   1.000  H
  N99      1.0000 0.29757  0.78373  0.66443  Biso   1.000  N
  H437     1.0000 0.31117  0.80323  0.68963  Biso   1.000  H
  H438     1.0000 0.31037  0.76953  0.65993  Biso   1.000  H
  N100     1.0000 0.23847  0.87233  0.34933  Biso   1.000  N
  H439     1.0000 0.24907  0.89933  0.35203  Biso   1.000  H
  H440     1.0000 0.22307  0.86383  0.31883  Biso   1.000  H
  N101     1.0000 0.31737  0.76483  0.41423  Biso   1.000  N
  H441     1.0000 0.33667  0.76013  0.42763  Biso   1.000  H
  H442     1.0000 0.32637  0.77873  0.38263  Biso   1.000  H
  N102     1.0000 0.11977  0.67553  0.37883  Biso   1.000  N
  H443     1.0000 0.09277  0.66493  0.38313  Biso   1.000  H
  H444     1.0000 0.12397  0.65753  0.36013  Biso   1.000  H
  C241     1.0000 0.24907  0.89213  0.63543  Biso   1.000  C
  H445     1.0000 0.27477  0.91703  0.63133  Biso   1.000  H
  H446     1.0000 0.24287  0.88803  0.67433  Biso   1.000  H
  C242     1.0000 0.25367  0.85703  0.61383  Biso   1.000  C
  C243     1.0000 0.10407  0.74413  0.63253  Biso   1.000  C
  H447     1.0000 0.07797  0.73943  0.61953  Biso   1.000  H
  H448     1.0000 0.10837  0.75613  0.66893  Biso   1.000  H
  C244     1.0000 0.13547  0.77323  0.59593  Biso   1.000  C
  C245     1.0000 0.25837  0.75863  0.68133  Biso   1.000  C
  H449     1.0000 0.25667  0.73423  0.69633  Biso   1.000  H
  H450     1.0000 0.25277  0.77203  0.71113  Biso   1.000  H
  C246     1.0000 0.22457  0.74583  0.63723  Biso   1.000  C
  C247     1.0000 0.27027  0.86293  0.34543  Biso   1.000  C
  H451     1.0000 0.26567  0.84603  0.31333  Biso   1.000  H
  H452     1.0000 0.29587  0.88793  0.34023  Biso   1.000  H
  C248     1.0000 0.27337  0.84183  0.39433  Biso   1.000  C
  C249     1.0000 0.27657  0.72263  0.40303  Biso   1.000  C
  H453     1.0000 0.27897  0.70073  0.41963  Biso   1.000  H
  H454     1.0000 0.27327  0.71773  0.36373  Biso   1.000  H
  C250     1.0000 0.23967  0.72213  0.42573  Biso   1.000  C
  C251     1.0000 0.13717  0.71423  0.34853  Biso   1.000  C
  H455     1.0000 0.15647  0.71513  0.32173  Biso   1.000  H
  H456     1.0000 0.11557  0.71523  0.32863  Biso   1.000  H
  C252     1.0000 0.15827  0.75123  0.38543  Biso   1.000  C
  C253     1.0000 0.13687  0.88673  0.53783  Biso   1.000  C
  H457     1.0000 0.11887  0.89203  0.51863  Biso   1.000  H
  C254     1.0000 0.10997  0.60213  0.45563  Biso   1.000  C
  H458     1.0000 0.09397  0.57743  0.47333  Biso   1.000  H
  C255     1.0000 0.38887  0.85253  0.45673  Biso   1.000  C
  H459     1.0000 0.41207  0.87483  0.47053  Biso   1.000  H
  Gd35     1.0000 0.77155  0.22948  0.00042  Biso   1.000  Gd
  Gd36     1.0000 0.88036  0.11552  0.84154  Biso   1.000  Gd
  Cu103    1.0000 0.86050  0.19241  0.87691  Biso   1.000  Cu
  Cu104    1.0000 0.80467  0.03512  0.91631  Biso   1.000  Cu
  Cu105    1.0000 0.96177  0.14131  0.92790  Biso   1.000  Cu
  Cu106    1.0000 0.87210  0.17897  0.74744  Biso   1.000  Cu
  Cu107    1.0000 0.97272  0.12859  0.79902  Biso   1.000  Cu
  Cu108    1.0000 0.81383  0.02042  0.78581  Biso   1.000  Cu
  O358     1.0000 0.89863  0.17407  0.90177  Biso   1.000  O
  O359     1.0000 0.94343  0.18427  0.96947  Biso   1.000  O
  O360     1.0000 0.82253  0.09337  0.90457  Biso   1.000  O
  O361     1.0000 0.80833  0.14147  0.92777  Biso   1.000  O
  O362     1.0000 0.90473  0.09957  0.92547  Biso   1.000  O
  O363     1.0000 0.85633  0.05147  0.97747  Biso   1.000  O
  O364     1.0000 0.91073  0.16077  0.76137  Biso   1.000  O
  O365     1.0000 0.96973  0.16887  0.73067  Biso   1.000  O
  O366     1.0000 0.91383  0.08657  0.78947  Biso   1.000  O
  O367     1.0000 0.87273  0.02717  0.74947  Biso   1.000  O
  O368     1.0000 0.83310  0.07857  0.76757  Biso   1.000  O
  O369     1.0000 0.83343  0.11727  0.69977  Biso   1.000  O
  O370     1.0000 0.80433  0.22297  0.92437  Biso   1.000  O
  O371     1.0000 0.82573  0.21017  0.84367  Biso   1.000  O
  O372     1.0000 0.78613  0.93347  0.74087  Biso   1.000  O
  O373     1.0000 0.78553  0.96507  0.81547  Biso   1.000  O
  O374     1.0000 0.05733  0.17717  0.73957  Biso   1.000  O
  O375     1.0000 0.02783  0.16897  0.82207  Biso   1.000  O
  O376     1.0000 0.84785  0.15295  0.81727  Biso   1.000  O
  O377     1.0000 0.84097  0.04127  0.85567  Biso   1.000  O
  O378     1.0000 0.95223  0.15277  0.85287  Biso   1.000  O
  N103     1.0000 0.88383  0.23047  0.94097  Biso   1.000  N
  H460     1.0000 0.86393  0.22557  0.96507  Biso   1.000  H
  H461     1.0000 0.89443  0.25617  0.92907  Biso   1.000  H
  N104     1.0000 0.76903  0.03917  0.97057  Biso   1.000  N
  H462     1.0000 0.77683  0.03657  0.00467  Biso   1.000  H
  H463     1.0000 0.74343  0.01897  0.96537  Biso   1.000  H
  N105     1.0000 0.96423  0.11707  0.99777  Biso   1.000  N
  H464     1.0000 0.97783  0.13657  0.02297  Biso   1.000  H
  H465     1.0000 0.97703  0.10287  0.99327  Biso   1.000  H
  N106     1.0000 0.90513  0.20567  0.68267  Biso   1.000  N
  H466     1.0000 0.91573  0.23267  0.68537  Biso   1.000  H
  H467     1.0000 0.88973  0.19717  0.65217  Biso   1.000  H
  N107     1.0000 0.98403  0.09817  0.74757  Biso   1.000  N
  H468     1.0000 0.00333  0.09347  0.76097  Biso   1.000  H
  H469     1.0000 0.99303  0.11207  0.71597  Biso   1.000  H
  N108     1.0000 0.78643  0.00887  0.71217  Biso   1.000  N
  H470     1.0000 0.75943  0.99827  0.71647  Biso   1.000  H
  H471     1.0000 0.79063  0.99087  0.69347  Biso   1.000  H
  C256     1.0000 0.91573  0.22547  0.96877  Biso   1.000  C
  H472     1.0000 0.94143  0.25037  0.96467  Biso   1.000  H
  H473     1.0000 0.90953  0.22137  0.00767  Biso   1.000  H
  C257     1.0000 0.92033  0.19037  0.94717  Biso   1.000  C
  C258     1.0000 0.77073  0.07747  0.96587  Biso   1.000  C
  H474     1.0000 0.74463  0.07277  0.95287  Biso   1.000  H
  H475     1.0000 0.77503  0.08947  0.00227  Biso   1.000  H
  C259     1.0000 0.80213  0.10657  0.92927  Biso   1.000  C
  C260     1.0000 0.92503  0.09197  0.01467  Biso   1.000  C
  H476     1.0000 0.92333  0.06757  0.02967  Biso   1.000  H
  H477     1.0000 0.91943  0.10537  0.04447  Biso   1.000  H
  C261     1.0000 0.89123  0.07917  0.97057  Biso   1.000  C
  C262     1.0000 0.93693  0.19627  0.67877  Biso   1.000  C
  H478     1.0000 0.93233  0.17937  0.64667  Biso   1.000  H
  H479     1.0000 0.96253  0.22127  0.67357  Biso   1.000  H
  C263     1.0000 0.94003  0.17517  0.72767  Biso   1.000  C
  C264     1.0000 0.94323  0.05597  0.73637  Biso   1.000  C
  H480     1.0000 0.94563  0.03407  0.75297  Biso   1.000  H
  H481     1.0000 0.93993  0.05107  0.69707  Biso   1.000  H
  C265     1.0000 0.90633  0.05547  0.75907  Biso   1.000  C
  C266     1.0000 0.80383  0.04757  0.68187  Biso   1.000  C
  H482     1.0000 0.82313  0.04847  0.65507  Biso   1.000  H
  H483     1.0000 0.78223  0.04857  0.66197  Biso   1.000  H
  C267     1.0000 0.82493  0.08457  0.71877  Biso   1.000  C
  C268     1.0000 0.80353  0.22007  0.87117  Biso   1.000  C
  H484     1.0000 0.78553  0.22537  0.85197  Biso   1.000  H
  C269     1.0000 0.77663  0.93547  0.78897  Biso   1.000  C
  H485     1.0000 0.76063  0.91077  0.80667  Biso   1.000  H
  C270     1.0000 0.05553  0.18587  0.79007  Biso   1.000  C
  H486     1.0000 0.07873  0.20817  0.80387  Biso   1.000  H
