data_KISPOS_ion_b
_audit_creation_date              2014-07-02
_audit_creation_method            'Materials Studio'
_symmetry_space_group_name_H-M    'P1'
_symmetry_Int_Tables_number       1
_symmetry_cell_setting            triclinic
loop_
_symmetry_equiv_pos_as_xyz
  x,y,z
_cell_length_a                    29.9155
_cell_length_b                    29.9155
_cell_length_c                    29.9155
_cell_angle_alpha                 33.4032
_cell_angle_beta                  33.4032
_cell_angle_gamma                 33.4032
loop_
_atom_site_label
_atom_site_type_symbol
_atom_site_fract_x
_atom_site_fract_y
_atom_site_fract_z
_atom_site_U_iso_or_equiv
_atom_site_adp_type
_atom_site_occupancy
Co1    Co    0.35469   0.27919   0.54249   0.00000  Uiso   1.00
Co2    Co    0.25943   0.24219   0.56150   0.00000  Uiso   1.00
O3     O     0.29815   0.33115   0.48665   0.00000  Uiso   1.00
O5     O     0.17445   0.25945   0.67125   0.00000  Uiso   1.00
O6     O     0.25318   0.24798   0.67848   0.00000  Uiso   1.00
O7     O     0.93478   0.25318   0.07058   0.00000  Uiso   1.00
O8     O     0.07938   0.21068   0.99968   0.00000  Uiso   1.00
C9     C     0.18652   0.24902   0.71152   0.00000  Uiso   1.00
C10    C     0.11457   0.23297   0.80897   0.00000  Uiso   1.00
C11    C     0.03245   0.22775   0.94755   0.00000  Uiso   1.00
C12    C     0.10246   0.24046   0.85916   0.00000  Uiso   1.00
H13    H     0.14120   0.25390   0.83350   0.00000  Uiso   1.00
C14    C     0.01588   0.23188   0.00748   0.00000  Uiso   1.00
C15    C     0.06003   0.20733   0.85003   0.00000  Uiso   1.00
H16    H     0.06940   0.20020   0.81740   0.00000  Uiso   1.00
C17    C     0.99193   0.19243   0.93873   0.00000  Uiso   1.00
H18    H     0.95590   0.17490   0.96610   0.00000  Uiso   1.00
C19    C     0.97775   0.20395   0.98645   0.00000  Uiso   1.00
H20    H     0.93080   0.19550   0.04560   0.00000  Uiso   1.00
O21    O     0.84120   0.46470   0.55040   0.00000  Uiso   1.00
O22    O     0.88232   0.39752   0.63922   0.00000  Uiso   1.00
O23    O     0.23750   0.42970   0.36280   0.00000  Uiso   1.00
O24    O     0.16574   0.34974   0.51134   0.00000  Uiso   1.00
C25    C     0.89536   0.43456   0.56286   0.00000  Uiso   1.00
C26    C     0.98206   0.44446   0.48066   0.00000  Uiso   1.00
C27    C     0.11852   0.42962   0.41652   0.00000  Uiso   1.00
C28    C     0.03936   0.41956   0.49056   0.00000  Uiso   1.00
H29    H     0.02430   0.39550   0.54810   0.00000  Uiso   1.00
C30    C     0.17754   0.40174   0.43134   0.00000  Uiso   1.00
C31    C     0.00402   0.48082   0.39462   0.00000  Uiso   1.00
H32    H     0.96570   0.49860   0.38690   0.00000  Uiso   1.00
C33    C     0.08395   0.49015   0.32015   0.00000  Uiso   1.00
H34    H     0.09910   0.51400   0.26270   0.00000  Uiso   1.00
C35    C     0.14156   0.46426   0.33076   0.00000  Uiso   1.00
H36    H     0.19510   0.47010   0.28080   0.00000  Uiso   1.00
O37    O     0.20536   0.16476   0.63786   0.00000  Uiso   1.00
H38    H     0.22120   0.10620   0.67920   0.00000  Uiso   1.00
H39    H     0.13590   0.19290   0.66490   0.00000  Uiso   1.00
Co45   Co    0.54249   0.35469   0.27919   0.00000  Uiso   1.00
Co46   Co    0.56150   0.25943   0.24219   0.00000  Uiso   1.00
O47    O     0.48665   0.29815   0.33115   0.00000  Uiso   1.00
O49    O     0.67125   0.17445   0.25945   0.00000  Uiso   1.00
O50    O     0.67848   0.25318   0.24798   0.00000  Uiso   1.00
O51    O     0.07058   0.93478   0.25318   0.00000  Uiso   1.00
O52    O     0.99968   0.07938   0.21068   0.00000  Uiso   1.00
C53    C     0.71152   0.18652   0.24902   0.00000  Uiso   1.00
C54    C     0.80897   0.11457   0.23297   0.00000  Uiso   1.00
C55    C     0.94755   0.03245   0.22775   0.00000  Uiso   1.00
C56    C     0.85916   0.10246   0.24046   0.00000  Uiso   1.00
H57    H     0.83350   0.14120   0.25390   0.00000  Uiso   1.00
C58    C     0.00748   0.01588   0.23188   0.00000  Uiso   1.00
C59    C     0.85003   0.06003   0.20733   0.00000  Uiso   1.00
H60    H     0.81740   0.06940   0.20020   0.00000  Uiso   1.00
C61    C     0.93873   0.99193   0.19243   0.00000  Uiso   1.00
H62    H     0.96610   0.95590   0.17490   0.00000  Uiso   1.00
C63    C     0.98645   0.97775   0.20395   0.00000  Uiso   1.00
H64    H     0.04560   0.93080   0.19550   0.00000  Uiso   1.00
O65    O     0.55040   0.84120   0.46470   0.00000  Uiso   1.00
O66    O     0.63922   0.88232   0.39752   0.00000  Uiso   1.00
O67    O     0.36280   0.23750   0.42970   0.00000  Uiso   1.00
O68    O     0.51134   0.16574   0.34974   0.00000  Uiso   1.00
C69    C     0.56286   0.89536   0.43456   0.00000  Uiso   1.00
C70    C     0.48066   0.98206   0.44446   0.00000  Uiso   1.00
C71    C     0.41652   0.11852   0.42962   0.00000  Uiso   1.00
C72    C     0.49056   0.03936   0.41956   0.00000  Uiso   1.00
H73    H     0.54810   0.02430   0.39550   0.00000  Uiso   1.00
C74    C     0.43134   0.17754   0.40174   0.00000  Uiso   1.00
C75    C     0.39462   0.00402   0.48082   0.00000  Uiso   1.00
H76    H     0.38690   0.96570   0.49860   0.00000  Uiso   1.00
C77    C     0.32015   0.08395   0.49015   0.00000  Uiso   1.00
H78    H     0.26270   0.09910   0.51400   0.00000  Uiso   1.00
C79    C     0.33076   0.14156   0.46426   0.00000  Uiso   1.00
H80    H     0.28080   0.19510   0.47010   0.00000  Uiso   1.00
O81    O     0.63786   0.20536   0.16476   0.00000  Uiso   1.00
H82    H     0.67920   0.22120   0.10620   0.00000  Uiso   1.00
H83    H     0.66490   0.13590   0.19290   0.00000  Uiso   1.00
Co89   Co    0.27919   0.54249   0.35469   0.00000  Uiso   1.00
Co90   Co    0.24219   0.56150   0.25943   0.00000  Uiso   1.00
O91    O     0.33115   0.48665   0.29815   0.00000  Uiso   1.00
O93    O     0.25945   0.67125   0.17445   0.00000  Uiso   1.00
O94    O     0.24798   0.67848   0.25318   0.00000  Uiso   1.00
O95    O     0.25318   0.07058   0.93478   0.00000  Uiso   1.00
O96    O     0.21068   0.99968   0.07938   0.00000  Uiso   1.00
C97    C     0.24902   0.71152   0.18652   0.00000  Uiso   1.00
C98    C     0.23297   0.80897   0.11457   0.00000  Uiso   1.00
C99    C     0.22775   0.94755   0.03245   0.00000  Uiso   1.00
C100   C     0.24046   0.85916   0.10246   0.00000  Uiso   1.00
H101   H     0.25390   0.83350   0.14120   0.00000  Uiso   1.00
C102   C     0.23188   0.00748   0.01588   0.00000  Uiso   1.00
C103   C     0.20733   0.85003   0.06003   0.00000  Uiso   1.00
H104   H     0.20020   0.81740   0.06940   0.00000  Uiso   1.00
C105   C     0.19243   0.93873   0.99193   0.00000  Uiso   1.00
H106   H     0.17490   0.96610   0.95590   0.00000  Uiso   1.00
C107   C     0.20395   0.98645   0.97775   0.00000  Uiso   1.00
H108   H     0.19550   0.04560   0.93080   0.00000  Uiso   1.00
O109   O     0.46470   0.55040   0.84120   0.00000  Uiso   1.00
O110   O     0.39752   0.63922   0.88232   0.00000  Uiso   1.00
O111   O     0.42970   0.36280   0.23750   0.00000  Uiso   1.00
O112   O     0.34974   0.51134   0.16574   0.00000  Uiso   1.00
C113   C     0.43456   0.56286   0.89536   0.00000  Uiso   1.00
C114   C     0.44446   0.48066   0.98206   0.00000  Uiso   1.00
C115   C     0.42962   0.41652   0.11852   0.00000  Uiso   1.00
C116   C     0.41956   0.49056   0.03936   0.00000  Uiso   1.00
H117   H     0.39550   0.54810   0.02430   0.00000  Uiso   1.00
C118   C     0.40174   0.43134   0.17754   0.00000  Uiso   1.00
C119   C     0.48082   0.39462   0.00402   0.00000  Uiso   1.00
H120   H     0.49860   0.38690   0.96570   0.00000  Uiso   1.00
C121   C     0.49015   0.32015   0.08395   0.00000  Uiso   1.00
H122   H     0.51400   0.26270   0.09910   0.00000  Uiso   1.00
C123   C     0.46426   0.33076   0.14156   0.00000  Uiso   1.00
H124   H     0.47010   0.28080   0.19510   0.00000  Uiso   1.00
O125   O     0.16476   0.63786   0.20536   0.00000  Uiso   1.00
H126   H     0.10620   0.67920   0.22120   0.00000  Uiso   1.00
H127   H     0.19290   0.66490   0.13590   0.00000  Uiso   1.00
Co133  Co    0.22081   0.14531   0.95751   0.00000  Uiso   1.00
Co134  Co    0.25781   0.24057   0.93850   0.00000  Uiso   1.00
O135   O     0.16885   0.20185   0.01335   0.00000  Uiso   1.00
O137   O     0.24055   0.32555   0.82875   0.00000  Uiso   1.00
O138   O     0.25202   0.24682   0.82152   0.00000  Uiso   1.00
O139   O     0.24682   0.56522   0.42942   0.00000  Uiso   1.00
O140   O     0.28932   0.42062   0.50032   0.00000  Uiso   1.00
C141   C     0.25098   0.31348   0.78848   0.00000  Uiso   1.00
C142   C     0.26703   0.38543   0.69103   0.00000  Uiso   1.00
C143   C     0.27225   0.46755   0.55245   0.00000  Uiso   1.00
C144   C     0.25954   0.39754   0.64084   0.00000  Uiso   1.00
H145   H     0.24610   0.35880   0.66650   0.00000  Uiso   1.00
C146   C     0.26812   0.48412   0.49252   0.00000  Uiso   1.00
C147   C     0.29267   0.43997   0.64997   0.00000  Uiso   1.00
H148   H     0.29980   0.43060   0.68260   0.00000  Uiso   1.00
C149   C     0.30757   0.50807   0.56127   0.00000  Uiso   1.00
H150   H     0.32510   0.54410   0.53390   0.00000  Uiso   1.00
C151   C     0.29605   0.52225   0.51355   0.00000  Uiso   1.00
H152   H     0.30450   0.56920   0.45440   0.00000  Uiso   1.00
O153   O     0.03530   0.65880   0.94960   0.00000  Uiso   1.00
O154   O     0.10248   0.61768   0.86078   0.00000  Uiso   1.00
O155   O     0.07030   0.26250   0.13720   0.00000  Uiso   1.00
O156   O     0.15026   0.33426   0.98866   0.00000  Uiso   1.00
C157   C     0.06544   0.60464   0.93714   0.00000  Uiso   1.00
C158   C     0.05554   0.51794   0.01934   0.00000  Uiso   1.00
C159   C     0.07038   0.38148   0.08348   0.00000  Uiso   1.00
C160   C     0.08044   0.46064   0.00944   0.00000  Uiso   1.00
H161   H     0.10450   0.47570   0.95190   0.00000  Uiso   1.00
C162   C     0.09826   0.32246   0.06866   0.00000  Uiso   1.00
C163   C     0.01918   0.49598   0.10538   0.00000  Uiso   1.00
H164   H     0.00140   0.53430   0.11310   0.00000  Uiso   1.00
C165   C     0.00985   0.41605   0.17985   0.00000  Uiso   1.00
H166   H     0.98600   0.40090   0.23730   0.00000  Uiso   1.00
C167   C     0.03574   0.35844   0.16924   0.00000  Uiso   1.00
H168   H     0.02990   0.30490   0.21920   0.00000  Uiso   1.00
O169   O     0.33524   0.29464   0.86214   0.00000  Uiso   1.00
H170   H     0.39380   0.27880   0.82080   0.00000  Uiso   1.00
H171   H     0.30710   0.36410   0.83510   0.00000  Uiso   1.00
Co177  Co    0.14531   0.95751   0.22081   0.00000  Uiso   1.00
Co178  Co    0.24057   0.93850   0.25781   0.00000  Uiso   1.00
O179   O     0.20185   0.01335   0.16885   0.00000  Uiso   1.00
O181   O     0.32555   0.82875   0.24055   0.00000  Uiso   1.00
O182   O     0.24682   0.82152   0.25202   0.00000  Uiso   1.00
O183   O     0.56522   0.42942   0.24682   0.00000  Uiso   1.00
O184   O     0.42062   0.50032   0.28932   0.00000  Uiso   1.00
C185   C     0.31348   0.78848   0.25098   0.00000  Uiso   1.00
C186   C     0.38543   0.69103   0.26703   0.00000  Uiso   1.00
C187   C     0.46755   0.55245   0.27225   0.00000  Uiso   1.00
C188   C     0.39754   0.64084   0.25954   0.00000  Uiso   1.00
H189   H     0.35880   0.66650   0.24610   0.00000  Uiso   1.00
C190   C     0.48412   0.49252   0.26812   0.00000  Uiso   1.00
C191   C     0.43997   0.64997   0.29267   0.00000  Uiso   1.00
H192   H     0.43060   0.68260   0.29980   0.00000  Uiso   1.00
C193   C     0.50807   0.56127   0.30757   0.00000  Uiso   1.00
H194   H     0.54410   0.53390   0.32510   0.00000  Uiso   1.00
C195   C     0.52225   0.51355   0.29605   0.00000  Uiso   1.00
H196   H     0.56920   0.45440   0.30450   0.00000  Uiso   1.00
O197   O     0.65880   0.94960   0.03530   0.00000  Uiso   1.00
O198   O     0.61768   0.86078   0.10248   0.00000  Uiso   1.00
O199   O     0.26250   0.13720   0.07030   0.00000  Uiso   1.00
O200   O     0.33426   0.98866   0.15026   0.00000  Uiso   1.00
C201   C     0.60464   0.93714   0.06544   0.00000  Uiso   1.00
C202   C     0.51794   0.01934   0.05554   0.00000  Uiso   1.00
C203   C     0.38148   0.08348   0.07038   0.00000  Uiso   1.00
C204   C     0.46064   0.00944   0.08044   0.00000  Uiso   1.00
H205   H     0.47570   0.95190   0.10450   0.00000  Uiso   1.00
C206   C     0.32246   0.06866   0.09826   0.00000  Uiso   1.00
C207   C     0.49598   0.10538   0.01918   0.00000  Uiso   1.00
H208   H     0.53430   0.11310   0.00140   0.00000  Uiso   1.00
C209   C     0.41605   0.17985   0.00985   0.00000  Uiso   1.00
H210   H     0.40090   0.23730   0.98600   0.00000  Uiso   1.00
C211   C     0.35844   0.16924   0.03574   0.00000  Uiso   1.00
H212   H     0.30490   0.21920   0.02990   0.00000  Uiso   1.00
O213   O     0.29464   0.86214   0.33524   0.00000  Uiso   1.00
H214   H     0.27880   0.82080   0.39380   0.00000  Uiso   1.00
H215   H     0.36410   0.83510   0.30710   0.00000  Uiso   1.00
Co221  Co    0.95751   0.22081   0.14531   0.00000  Uiso   1.00
Co222  Co    0.93850   0.25781   0.24057   0.00000  Uiso   1.00
O223   O     0.01335   0.16885   0.20185   0.00000  Uiso   1.00
O225   O     0.82875   0.24055   0.32555   0.00000  Uiso   1.00
O226   O     0.82152   0.25202   0.24682   0.00000  Uiso   1.00
O227   O     0.42942   0.24682   0.56522   0.00000  Uiso   1.00
O228   O     0.50032   0.28932   0.42062   0.00000  Uiso   1.00
C229   C     0.78848   0.25098   0.31348   0.00000  Uiso   1.00
C230   C     0.69103   0.26703   0.38543   0.00000  Uiso   1.00
C231   C     0.55245   0.27225   0.46755   0.00000  Uiso   1.00
C232   C     0.64084   0.25954   0.39754   0.00000  Uiso   1.00
H233   H     0.66650   0.24610   0.35880   0.00000  Uiso   1.00
C234   C     0.49252   0.26812   0.48412   0.00000  Uiso   1.00
C235   C     0.64997   0.29267   0.43997   0.00000  Uiso   1.00
H236   H     0.68260   0.29980   0.43060   0.00000  Uiso   1.00
C237   C     0.56127   0.30757   0.50807   0.00000  Uiso   1.00
H238   H     0.53390   0.32510   0.54410   0.00000  Uiso   1.00
C239   C     0.51355   0.29605   0.52225   0.00000  Uiso   1.00
H240   H     0.45440   0.30450   0.56920   0.00000  Uiso   1.00
O241   O     0.94960   0.03530   0.65880   0.00000  Uiso   1.00
O242   O     0.86078   0.10248   0.61768   0.00000  Uiso   1.00
O243   O     0.13720   0.07030   0.26250   0.00000  Uiso   1.00
O244   O     0.98866   0.15026   0.33426   0.00000  Uiso   1.00
C245   C     0.93714   0.06544   0.60464   0.00000  Uiso   1.00
C246   C     0.01934   0.05554   0.51794   0.00000  Uiso   1.00
C247   C     0.08348   0.07038   0.38148   0.00000  Uiso   1.00
C248   C     0.00944   0.08044   0.46064   0.00000  Uiso   1.00
H249   H     0.95190   0.10450   0.47570   0.00000  Uiso   1.00
C250   C     0.06866   0.09826   0.32246   0.00000  Uiso   1.00
C251   C     0.10538   0.01918   0.49598   0.00000  Uiso   1.00
H252   H     0.11310   0.00140   0.53430   0.00000  Uiso   1.00
C253   C     0.17985   0.00985   0.41605   0.00000  Uiso   1.00
H254   H     0.23730   0.98600   0.40090   0.00000  Uiso   1.00
C255   C     0.16924   0.03574   0.35844   0.00000  Uiso   1.00
H256   H     0.21920   0.02990   0.30490   0.00000  Uiso   1.00
O257   O     0.86214   0.33524   0.29464   0.00000  Uiso   1.00
H258   H     0.82080   0.39380   0.27880   0.00000  Uiso   1.00
H259   H     0.83510   0.30710   0.36410   0.00000  Uiso   1.00
Co265  Co    0.64531   0.72081   0.45751   0.00000  Uiso   1.00
Co266  Co    0.74057   0.75781   0.43850   0.00000  Uiso   1.00
O267   O     0.70185   0.66885   0.51335   0.00000  Uiso   1.00
O269   O     0.82555   0.74055   0.32875   0.00000  Uiso   1.00
O270   O     0.74682   0.75202   0.32152   0.00000  Uiso   1.00
O271   O     0.06522   0.74682   0.92942   0.00000  Uiso   1.00
O272   O     0.92062   0.78932   0.00032   0.00000  Uiso   1.00
C273   C     0.81348   0.75098   0.28848   0.00000  Uiso   1.00
C274   C     0.88543   0.76703   0.19103   0.00000  Uiso   1.00
C275   C     0.96755   0.77225   0.05245   0.00000  Uiso   1.00
C276   C     0.89754   0.75954   0.14084   0.00000  Uiso   1.00
H277   H     0.85880   0.74610   0.16650   0.00000  Uiso   1.00
C278   C     0.98412   0.76812   0.99252   0.00000  Uiso   1.00
C279   C     0.93997   0.79267   0.14997   0.00000  Uiso   1.00
H280   H     0.93060   0.79980   0.18260   0.00000  Uiso   1.00
C281   C     0.00807   0.80757   0.06127   0.00000  Uiso   1.00
H282   H     0.04410   0.82510   0.03390   0.00000  Uiso   1.00
C283   C     0.02225   0.79605   0.01355   0.00000  Uiso   1.00
H284   H     0.06920   0.80450   0.95440   0.00000  Uiso   1.00
O285   O     0.15880   0.53530   0.44960   0.00000  Uiso   1.00
O286   O     0.11768   0.60248   0.36078   0.00000  Uiso   1.00
O287   O     0.76250   0.57030   0.63720   0.00000  Uiso   1.00
O288   O     0.83426   0.65026   0.48866   0.00000  Uiso   1.00
C289   C     0.10464   0.56544   0.43714   0.00000  Uiso   1.00
C290   C     0.01794   0.55554   0.51934   0.00000  Uiso   1.00
C291   C     0.88148   0.57038   0.58348   0.00000  Uiso   1.00
C292   C     0.96064   0.58044   0.50944   0.00000  Uiso   1.00
H293   H     0.97570   0.60450   0.45190   0.00000  Uiso   1.00
C294   C     0.82246   0.59826   0.56866   0.00000  Uiso   1.00
C295   C     0.99598   0.51918   0.60538   0.00000  Uiso   1.00
H296   H     0.03430   0.50140   0.61310   0.00000  Uiso   1.00
C297   C     0.91605   0.50985   0.67985   0.00000  Uiso   1.00
H298   H     0.90090   0.48600   0.73730   0.00000  Uiso   1.00
C299   C     0.85844   0.53574   0.66924   0.00000  Uiso   1.00
H300   H     0.80490   0.52990   0.71920   0.00000  Uiso   1.00
O301   O     0.79464   0.83524   0.36214   0.00000  Uiso   1.00
H302   H     0.77880   0.89380   0.32080   0.00000  Uiso   1.00
H303   H     0.86410   0.80710   0.33510   0.00000  Uiso   1.00
Co309  Co    0.45751   0.64531   0.72081   0.00000  Uiso   1.00
Co310  Co    0.43850   0.74057   0.75781   0.00000  Uiso   1.00
O311   O     0.51335   0.70185   0.66885   0.00000  Uiso   1.00
O313   O     0.32875   0.82555   0.74055   0.00000  Uiso   1.00
O314   O     0.32152   0.74682   0.75202   0.00000  Uiso   1.00
O315   O     0.92942   0.06522   0.74682   0.00000  Uiso   1.00
O316   O     0.00032   0.92062   0.78932   0.00000  Uiso   1.00
C317   C     0.28848   0.81348   0.75098   0.00000  Uiso   1.00
C318   C     0.19103   0.88543   0.76703   0.00000  Uiso   1.00
C319   C     0.05245   0.96755   0.77225   0.00000  Uiso   1.00
C320   C     0.14084   0.89754   0.75954   0.00000  Uiso   1.00
H321   H     0.16650   0.85880   0.74610   0.00000  Uiso   1.00
C322   C     0.99252   0.98412   0.76812   0.00000  Uiso   1.00
C323   C     0.14997   0.93997   0.79267   0.00000  Uiso   1.00
H324   H     0.18260   0.93060   0.79980   0.00000  Uiso   1.00
C325   C     0.06127   0.00807   0.80757   0.00000  Uiso   1.00
H326   H     0.03390   0.04410   0.82510   0.00000  Uiso   1.00
C327   C     0.01355   0.02225   0.79605   0.00000  Uiso   1.00
H328   H     0.95440   0.06920   0.80450   0.00000  Uiso   1.00
O329   O     0.44960   0.15880   0.53530   0.00000  Uiso   1.00
O330   O     0.36078   0.11768   0.60248   0.00000  Uiso   1.00
O331   O     0.63720   0.76250   0.57030   0.00000  Uiso   1.00
O332   O     0.48866   0.83426   0.65026   0.00000  Uiso   1.00
C333   C     0.43714   0.10464   0.56544   0.00000  Uiso   1.00
C334   C     0.51934   0.01794   0.55554   0.00000  Uiso   1.00
C335   C     0.58348   0.88148   0.57038   0.00000  Uiso   1.00
C336   C     0.50944   0.96064   0.58044   0.00000  Uiso   1.00
H337   H     0.45190   0.97570   0.60450   0.00000  Uiso   1.00
C338   C     0.56866   0.82246   0.59826   0.00000  Uiso   1.00
C339   C     0.60538   0.99598   0.51918   0.00000  Uiso   1.00
H340   H     0.61310   0.03430   0.50140   0.00000  Uiso   1.00
C341   C     0.67985   0.91605   0.50985   0.00000  Uiso   1.00
H342   H     0.73730   0.90090   0.48600   0.00000  Uiso   1.00
C343   C     0.66924   0.85844   0.53574   0.00000  Uiso   1.00
H344   H     0.71920   0.80490   0.52990   0.00000  Uiso   1.00
O345   O     0.36214   0.79464   0.83524   0.00000  Uiso   1.00
H346   H     0.32080   0.77880   0.89380   0.00000  Uiso   1.00
H347   H     0.33510   0.86410   0.80710   0.00000  Uiso   1.00
Co353  Co    0.72081   0.45751   0.64531   0.00000  Uiso   1.00
Co354  Co    0.75781   0.43850   0.74057   0.00000  Uiso   1.00
O355   O     0.66885   0.51335   0.70185   0.00000  Uiso   1.00
O357   O     0.74055   0.32875   0.82555   0.00000  Uiso   1.00
O358   O     0.75202   0.32152   0.74682   0.00000  Uiso   1.00
O359   O     0.74682   0.92942   0.06522   0.00000  Uiso   1.00
O360   O     0.78932   0.00032   0.92062   0.00000  Uiso   1.00
C361   C     0.75098   0.28848   0.81348   0.00000  Uiso   1.00
C362   C     0.76703   0.19103   0.88543   0.00000  Uiso   1.00
C363   C     0.77225   0.05245   0.96755   0.00000  Uiso   1.00
C364   C     0.75954   0.14084   0.89754   0.00000  Uiso   1.00
H365   H     0.74610   0.16650   0.85880   0.00000  Uiso   1.00
C366   C     0.76812   0.99252   0.98412   0.00000  Uiso   1.00
C367   C     0.79267   0.14997   0.93997   0.00000  Uiso   1.00
H368   H     0.79980   0.18260   0.93060   0.00000  Uiso   1.00
C369   C     0.80757   0.06127   0.00807   0.00000  Uiso   1.00
H370   H     0.82510   0.03390   0.04410   0.00000  Uiso   1.00
C371   C     0.79605   0.01355   0.02225   0.00000  Uiso   1.00
H372   H     0.80450   0.95440   0.06920   0.00000  Uiso   1.00
O373   O     0.53530   0.44960   0.15880   0.00000  Uiso   1.00
O374   O     0.60248   0.36078   0.11768   0.00000  Uiso   1.00
O375   O     0.57030   0.63720   0.76250   0.00000  Uiso   1.00
O376   O     0.65026   0.48866   0.83426   0.00000  Uiso   1.00
C377   C     0.56544   0.43714   0.10464   0.00000  Uiso   1.00
C378   C     0.55554   0.51934   0.01794   0.00000  Uiso   1.00
C379   C     0.57038   0.58348   0.88148   0.00000  Uiso   1.00
C380   C     0.58044   0.50944   0.96064   0.00000  Uiso   1.00
H381   H     0.60450   0.45190   0.97570   0.00000  Uiso   1.00
C382   C     0.59826   0.56866   0.82246   0.00000  Uiso   1.00
C383   C     0.51918   0.60538   0.99598   0.00000  Uiso   1.00
H384   H     0.50140   0.61310   0.03430   0.00000  Uiso   1.00
C385   C     0.50985   0.67985   0.91605   0.00000  Uiso   1.00
H386   H     0.48600   0.73730   0.90090   0.00000  Uiso   1.00
C387   C     0.53574   0.66924   0.85844   0.00000  Uiso   1.00
H388   H     0.52990   0.71920   0.80490   0.00000  Uiso   1.00
O389   O     0.83524   0.36214   0.79464   0.00000  Uiso   1.00
H390   H     0.89380   0.32080   0.77880   0.00000  Uiso   1.00
H391   H     0.80710   0.33510   0.86410   0.00000  Uiso   1.00
Co397  Co    0.77919   0.85469   0.04249   0.00000  Uiso   1.00
Co398  Co    0.74219   0.75943   0.06150   0.00000  Uiso   1.00
O399   O     0.83115   0.79815   0.98665   0.00000  Uiso   1.00
O401   O     0.75945   0.67445   0.17125   0.00000  Uiso   1.00
O402   O     0.74798   0.75318   0.17848   0.00000  Uiso   1.00
O403   O     0.75318   0.43478   0.57058   0.00000  Uiso   1.00
O404   O     0.71068   0.57938   0.49968   0.00000  Uiso   1.00
C405   C     0.74902   0.68652   0.21152   0.00000  Uiso   1.00
C406   C     0.73297   0.61457   0.30897   0.00000  Uiso   1.00
C407   C     0.72775   0.53245   0.44755   0.00000  Uiso   1.00
C408   C     0.74046   0.60246   0.35916   0.00000  Uiso   1.00
H409   H     0.75390   0.64120   0.33350   0.00000  Uiso   1.00
C410   C     0.73188   0.51588   0.50748   0.00000  Uiso   1.00
C411   C     0.70733   0.56003   0.35003   0.00000  Uiso   1.00
H412   H     0.70020   0.56940   0.31740   0.00000  Uiso   1.00
C413   C     0.69243   0.49193   0.43873   0.00000  Uiso   1.00
H414   H     0.67490   0.45590   0.46610   0.00000  Uiso   1.00
C415   C     0.70395   0.47775   0.48645   0.00000  Uiso   1.00
H416   H     0.69550   0.43080   0.54560   0.00000  Uiso   1.00
O417   O     0.96470   0.34120   0.05040   0.00000  Uiso   1.00
O418   O     0.89752   0.38232   0.13922   0.00000  Uiso   1.00
O419   O     0.92970   0.73750   0.86280   0.00000  Uiso   1.00
O420   O     0.84974   0.66574   0.01134   0.00000  Uiso   1.00
C421   C     0.93456   0.39536   0.06286   0.00000  Uiso   1.00
C422   C     0.94446   0.48206   0.98066   0.00000  Uiso   1.00
C423   C     0.92962   0.61852   0.91652   0.00000  Uiso   1.00
C424   C     0.91956   0.53936   0.99056   0.00000  Uiso   1.00
H425   H     0.89550   0.52430   0.04810   0.00000  Uiso   1.00
C426   C     0.90174   0.67754   0.93134   0.00000  Uiso   1.00
C427   C     0.98082   0.50402   0.89462   0.00000  Uiso   1.00
H428   H     0.99860   0.46570   0.88690   0.00000  Uiso   1.00
C429   C     0.99015   0.58395   0.82015   0.00000  Uiso   1.00
H430   H     0.01400   0.59910   0.76270   0.00000  Uiso   1.00
C431   C     0.96426   0.64156   0.83076   0.00000  Uiso   1.00
H432   H     0.97010   0.69510   0.78080   0.00000  Uiso   1.00
O433   O     0.66476   0.70536   0.13786   0.00000  Uiso   1.00
H434   H     0.60620   0.72120   0.17920   0.00000  Uiso   1.00
H435   H     0.69290   0.63590   0.16490   0.00000  Uiso   1.00
Co441  Co    0.85469   0.04249   0.77919   0.00000  Uiso   1.00
Co442  Co    0.75943   0.06150   0.74219   0.00000  Uiso   1.00
O443   O     0.79815   0.98665   0.83115   0.00000  Uiso   1.00
O445   O     0.67445   0.17125   0.75945   0.00000  Uiso   1.00
O446   O     0.75318   0.17848   0.74798   0.00000  Uiso   1.00
O447   O     0.43478   0.57058   0.75318   0.00000  Uiso   1.00
O448   O     0.57938   0.49968   0.71068   0.00000  Uiso   1.00
C449   C     0.68652   0.21152   0.74902   0.00000  Uiso   1.00
C450   C     0.61457   0.30897   0.73297   0.00000  Uiso   1.00
C451   C     0.53245   0.44755   0.72775   0.00000  Uiso   1.00
C452   C     0.60246   0.35916   0.74046   0.00000  Uiso   1.00
H453   H     0.64120   0.33350   0.75390   0.00000  Uiso   1.00
C454   C     0.51588   0.50748   0.73188   0.00000  Uiso   1.00
C455   C     0.56003   0.35003   0.70733   0.00000  Uiso   1.00
H456   H     0.56940   0.31740   0.70020   0.00000  Uiso   1.00
C457   C     0.49193   0.43873   0.69243   0.00000  Uiso   1.00
H458   H     0.45590   0.46610   0.67490   0.00000  Uiso   1.00
C459   C     0.47775   0.48645   0.70395   0.00000  Uiso   1.00
H460   H     0.43080   0.54560   0.69550   0.00000  Uiso   1.00
O461   O     0.34120   0.05040   0.96470   0.00000  Uiso   1.00
O462   O     0.38232   0.13922   0.89752   0.00000  Uiso   1.00
O463   O     0.73750   0.86280   0.92970   0.00000  Uiso   1.00
O464   O     0.66574   0.01134   0.84974   0.00000  Uiso   1.00
C465   C     0.39536   0.06286   0.93456   0.00000  Uiso   1.00
C466   C     0.48206   0.98066   0.94446   0.00000  Uiso   1.00
C467   C     0.61852   0.91652   0.92962   0.00000  Uiso   1.00
C468   C     0.53936   0.99056   0.91956   0.00000  Uiso   1.00
H469   H     0.52430   0.04810   0.89550   0.00000  Uiso   1.00
C470   C     0.67754   0.93134   0.90174   0.00000  Uiso   1.00
C471   C     0.50402   0.89462   0.98082   0.00000  Uiso   1.00
H472   H     0.46570   0.88690   0.99860   0.00000  Uiso   1.00
C473   C     0.58395   0.82015   0.99015   0.00000  Uiso   1.00
H474   H     0.59910   0.76270   0.01400   0.00000  Uiso   1.00
C475   C     0.64156   0.83076   0.96426   0.00000  Uiso   1.00
H476   H     0.69510   0.78080   0.97010   0.00000  Uiso   1.00
O477   O     0.70536   0.13786   0.66476   0.00000  Uiso   1.00
H478   H     0.72120   0.17920   0.60620   0.00000  Uiso   1.00
H479   H     0.63590   0.16490   0.69290   0.00000  Uiso   1.00
Co485  Co    0.04249   0.77919   0.85469   0.00000  Uiso   1.00
Co486  Co    0.06150   0.74219   0.75943   0.00000  Uiso   1.00
O487   O     0.98665   0.83115   0.79815   0.00000  Uiso   1.00
O489   O     0.17125   0.75945   0.67445   0.00000  Uiso   1.00
O490   O     0.17848   0.74798   0.75318   0.00000  Uiso   1.00
O491   O     0.57058   0.75318   0.43478   0.00000  Uiso   1.00
O492   O     0.49968   0.71068   0.57938   0.00000  Uiso   1.00
C493   C     0.21152   0.74902   0.68652   0.00000  Uiso   1.00
C494   C     0.30897   0.73297   0.61457   0.00000  Uiso   1.00
C495   C     0.44755   0.72775   0.53245   0.00000  Uiso   1.00
C496   C     0.35916   0.74046   0.60246   0.00000  Uiso   1.00
H497   H     0.33350   0.75390   0.64120   0.00000  Uiso   1.00
C498   C     0.50748   0.73188   0.51588   0.00000  Uiso   1.00
C499   C     0.35003   0.70733   0.56003   0.00000  Uiso   1.00
H500   H     0.31740   0.70020   0.56940   0.00000  Uiso   1.00
C501   C     0.43873   0.69243   0.49193   0.00000  Uiso   1.00
H502   H     0.46610   0.67490   0.45590   0.00000  Uiso   1.00
C503   C     0.48645   0.70395   0.47775   0.00000  Uiso   1.00
H504   H     0.54560   0.69550   0.43080   0.00000  Uiso   1.00
O505   O     0.05040   0.96470   0.34120   0.00000  Uiso   1.00
O506   O     0.13922   0.89752   0.38232   0.00000  Uiso   1.00
O507   O     0.86280   0.92970   0.73750   0.00000  Uiso   1.00
O508   O     0.01134   0.84974   0.66574   0.00000  Uiso   1.00
C509   C     0.06286   0.93456   0.39536   0.00000  Uiso   1.00
C510   C     0.98066   0.94446   0.48206   0.00000  Uiso   1.00
C511   C     0.91652   0.92962   0.61852   0.00000  Uiso   1.00
C512   C     0.99056   0.91956   0.53936   0.00000  Uiso   1.00
H513   H     0.04810   0.89550   0.52430   0.00000  Uiso   1.00
C514   C     0.93134   0.90174   0.67754   0.00000  Uiso   1.00
C515   C     0.89462   0.98082   0.50402   0.00000  Uiso   1.00
H516   H     0.88690   0.99860   0.46570   0.00000  Uiso   1.00
C517   C     0.82015   0.99015   0.58395   0.00000  Uiso   1.00
H518   H     0.76270   0.01400   0.59910   0.00000  Uiso   1.00
C519   C     0.83076   0.96426   0.64156   0.00000  Uiso   1.00
H520   H     0.78080   0.97010   0.69510   0.00000  Uiso   1.00
O521   O     0.13786   0.66476   0.70536   0.00000  Uiso   1.00
H522   H     0.17920   0.60620   0.72120   0.00000  Uiso   1.00
H523   H     0.16490   0.69290   0.63590   0.00000  Uiso   1.00
Co529  Co    0.35890   0.35890   0.35890   0.00000  Uiso   1.00
Co530  Co    0.14110   0.14110   0.14110   0.00000  Uiso   1.00
Co531  Co    0.64110   0.64110   0.64110   0.00000  Uiso   1.00
Co532  Co    0.85890   0.85890   0.85890   0.00000  Uiso   1.00
K533   K     0.36185   0.13815   0.75000   0.00000  Uiso   1.00
K534   K     0.75000   0.36185   0.13815   0.00000  Uiso   1.00
K535   K     0.13815   0.75000   0.36185   0.00000  Uiso   1.00
K536   K     0.63815   0.86185   0.25000   0.00000  Uiso   1.00
K537   K     0.25000   0.63815   0.86185   0.00000  Uiso   1.00
K538   K     0.86185   0.25000   0.63815   0.00000  Uiso   1.00
loop_
_geom_bond_atom_site_label_1
_geom_bond_atom_site_label_2
_geom_bond_distance
_geom_bond_site_symmetry_2
_ccdc_geom_bond_type
Co1    O3      2.015   .     S
Co1    O6      2.100   .     S
Co1    O140    2.170   .     S
Co1    O227    2.055   .     S
Co1    O329    2.069   .     S
Co2    O3      2.075   .     S
Co2    O5      2.052   .     S
Co2    O24     2.089   .     S
Co2    O37     2.110   .     S
Co2    O67     2.229   .     S
Co2    O330    2.073   .     S
O3     Co529   2.055   .     S
O5     C9      1.261   .     D
O6     C9      1.269   .     S
O7     Co221   2.055   .     S
O7     C14     1.279   1_655 S
O8     Co133   2.170   .     S
O8     C14     1.249   1_556 S
C9     C10     1.508   .     S
C10    C12     1.398   .     D
C10    C15     1.389   .     S
C11    C12     1.388   .     S
C11    C14     1.503   1_556 S
C11    C19     1.386   1_455 S
C12    H13     0.933   .     S
C14    O7      1.279   1_455 S
C14    O8      1.249   1_554 S
C14    C11     1.503   1_554 S
C15    H16     0.932   .     S
C15    C17     1.380   1_455 S
C17    H18     0.928   .     S
C17    C19     1.379   .     S
C17    C15     1.380   1_655 S
C19    C11     1.386   1_655 S
C19    H20     0.930   1_556 S
H20    C19     0.930   1_554 S
O21    C25     1.259   .     D
O21    Co353   2.069   .     S
O22    C25     1.267   .     S
O22    Co354   2.073   .     S
O23    C30     1.274   .     S
O23    Co90    2.229   .     S
O23    Co529   2.133   .     S
O24    C30     1.250   .     D
C25    C26     1.510   .     S
C26    C28     1.389   1_655 D
C26    C31     1.391   1_655 S
C27    C28     1.387   .     D
C27    C30     1.497   .     S
C27    C35     1.390   .     S
C28    H29     0.928   .     S
C28    C26     1.389   1_455 D
C31    C33     1.393   .     S
C31    C26     1.391   1_455 S
C31    H32     0.932   1_455 S
H32    C31     0.932   1_655 S
C33    H34     0.927   .     S
C33    C35     1.395   .     D
C35    H36     0.930   .     S
O37    H38     0.893   .     S
O37    H39     1.044   .     S
Co45   O47     2.015   .     S
Co45   O50     2.100   .     S
Co45   O183    2.055   .     S
Co45   O228    2.170   .     S
Co45   O373    2.069   .     S
Co46   O47     2.075   .     S
Co46   O49     2.052   .     S
Co46   O68     2.089   .     S
Co46   O81     2.110   .     S
Co46   O111    2.229   .     S
Co46   O374    2.073   .     S
O47    Co529   2.055   .     S
O49    C53     1.261   .     D
O50    C53     1.269   .     S
O51    Co177   2.055   .     S
O51    C58     1.279   1_565 S
O52    Co221   2.170   .     S
O52    C58     1.249   1_655 S
C53    C54     1.508   .     S
C54    C56     1.398   .     S
C54    C59     1.389   .     D
C55    C56     1.388   .     D
C55    C58     1.503   1_655 S
C55    C63     1.386   1_545 S
C56    H57     0.933   .     S
C58    O51     1.279   1_545 S
C58    O52     1.249   1_455 S
C58    C55     1.503   1_455 S
C59    H60     0.932   .     S
C59    C61     1.380   1_545 S
C61    H62     0.928   .     S
C61    C63     1.379   .     D
C61    C59     1.380   1_565 S
C63    C55     1.386   1_565 S
C63    H64     0.930   1_655 S
H64    C63     0.930   1_455 S
O65    C69     1.259   .     D
O65    Co265   2.069   .     S
O66    C69     1.267   .     S
O66    Co266   2.073   .     S
O67    C74     1.274   .     S
O67    Co529   2.133   .     S
O68    C74     1.250   .     D
C69    C70     1.510   .     S
C70    C72     1.389   1_565 S
C70    C75     1.391   1_565 D
C71    C72     1.387   .     S
C71    C74     1.497   .     S
C71    C79     1.390   .     D
C72    H73     0.928   .     S
C72    C70     1.389   1_545 S
C75    C77     1.393   .     D
C75    C70     1.391   1_545 D
C75    H76     0.932   1_545 S
H76    C75     0.932   1_565 S
C77    H78     0.927   .     S
C77    C79     1.395   .     S
C79    H80     0.930   .     S
O81    H82     0.893   .     S
O81    H83     1.044   .     S
Co89   O91     2.015   .     S
Co89   O94     2.100   .     S
Co89   O139    2.055   .     S
Co89   O184    2.170   .     S
Co89   O285    2.069   .     S
Co90   O91     2.075   .     S
Co90   O93     2.052   .     S
Co90   O112    2.089   .     S
Co90   O125    2.110   .     S
Co90   O286    2.073   .     S
O91    Co529   2.055   .     S
O93    C97     1.261   .     D
O94    C97     1.269   .     S
O95    Co133   2.055   .     S
O95    C102    1.279   1_556 S
O96    Co177   2.170   .     S
O96    C102    1.249   1_565 S
C97    C98     1.508   .     S
C98    C100    1.398   .     D
C98    C103    1.389   .     S
C99    C100    1.388   .     S
C99    C102    1.503   1_565 S
C99    C107    1.386   1_554 D
C100   H101    0.933   .     S
C102   O95     1.279   1_554 S
C102   O96     1.249   1_545 S
C102   C99     1.503   1_545 S
C103   H104    0.932   .     S
C103   C105    1.380   1_554 S
C105   H106    0.928   .     S
C105   C107    1.379   .     S
C105   C103    1.380   1_556 S
C107   C99     1.386   1_556 D
C107   H108    0.930   1_565 S
H108   C107    0.930   1_545 S
O109   C113    1.259   .     D
O109   Co309   2.069   .     S
O110   C113    1.267   .     S
O110   Co310   2.073   .     S
O111   C118    1.274   .     S
O111   Co529   2.133   .     S
O112   C118    1.250   .     D
C113   C114    1.510   .     S
C114   C116    1.389   1_556 S
C114   C119    1.391   1_556 S
C115   C116    1.387   .     S
C115   C118    1.497   .     S
C115   C123    1.390   .     D
C116   H117    0.928   .     S
C116   C114    1.389   1_554 S
C119   C121    1.393   .     D
C119   C114    1.391   1_554 S
C119   H120    0.932   1_554 S
H120   C119    0.932   1_556 S
C121   H122    0.927   .     S
C121   C123    1.395   .     S
C123   H124    0.930   .     S
O125   H126    0.893   .     S
O125   H127    1.044   .     S
Co133  O138    2.100   .     S
Co133  O461    2.069   .     S
Co133  O135    2.015   1_556 S
Co134  O137    2.052   .     S
Co134  O156    2.089   .     S
Co134  O169    2.110   .     S
Co134  O462    2.073   .     S
Co134  O135    2.075   1_556 D
Co134  O199    2.229   1_556 S
O135   Co530   2.055   .     S
O135   Co133   2.015   1_554 S
O135   Co134   2.075   1_554 D
O137   C141    1.261   .     D
O138   C141    1.269   .     S
O139   C146    1.279   .     D
O140   C146    1.249   .     S
C141   C142    1.508   .     S
C142   C144    1.398   .     D
C142   C147    1.389   .     S
C143   C144    1.388   .     S
C143   C146    1.503   .     S
C143   C151    1.386   .     D
C144   H145    0.933   .     S
C147   H148    0.932   .     S
C147   C149    1.380   .     D
C149   H150    0.928   .     S
C149   C151    1.379   .     S
C151   H152    0.930   .     S
O153   C157    1.259   .     D
O153   Co485   2.069   .     S
O154   C157    1.267   .     S
O154   Co486   2.073   .     S
O155   C162    1.274   .     S
O155   Co530   2.133   .     S
O155   Co222   2.229   1_455 S
O156   C162    1.250   1_556 S
C157   C158    1.510   1_556 D
C158   C160    1.389   .     S
C158   C163    1.391   .     D
C158   C157    1.510   1_554 D
C159   C160    1.387   .     D
C159   C162    1.497   .     S
C159   C167    1.390   .     S
C160   H161    0.928   1_554 S
H161   C160    0.928   1_556 S
C162   O156    1.250   1_554 S
C163   H164    0.932   .     S
C163   C165    1.393   .     S
C165   C167    1.395   .     D
C165   H166    0.927   1_455 D
H166   C165    0.927   1_655 D
C167   H168    0.930   .     S
O169   H170    0.893   .     S
O169   H171    1.044   .     S
Co177  O182    2.100   .     S
Co177  O505    2.069   .     S
Co177  O179    2.015   1_565 S
Co178  O181    2.052   .     S
Co178  O200    2.089   .     S
Co178  O213    2.110   .     S
Co178  O506    2.073   .     S
Co178  O179    2.075   1_565 S
Co178  O243    2.229   1_565 S
O179   Co530   2.055   .     S
O179   Co177   2.015   1_545 S
O179   Co178   2.075   1_545 S
O181   C185    1.261   .     D
O182   C185    1.269   .     S
O183   C190    1.279   .     D
O184   C190    1.249   .     S
C185   C186    1.508   .     S
C186   C188    1.398   .     D
C186   C191    1.389   .     S
C187   C188    1.388   .     S
C187   C190    1.503   .     S
C187   C195    1.386   .     D
C188   H189    0.933   .     S
C191   H192    0.932   .     S
C191   C193    1.380   .     D
C193   H194    0.928   .     S
C193   C195    1.379   .     S
C195   H196    0.930   .     S
O197   C201    1.259   .     D
O197   Co397   2.069   .     S
O198   C201    1.267   .     S
O198   Co398   2.073   .     S
O199   C206    1.274   .     S
O199   Co530   2.133   .     S
O199   Co134   2.229   1_554 S
O200   C206    1.250   1_565 S
C201   C202    1.510   1_565 S
C202   C204    1.389   .     S
C202   C207    1.391   .     D
C202   C201    1.510   1_545 S
C203   C204    1.387   .     D
C203   C206    1.497   .     S
C203   C211    1.390   .     S
C204   H205    0.928   1_545 D
H205   C204    0.928   1_565 D
C206   O200    1.250   1_545 S
C207   H208    0.932   .     S
C207   C209    1.393   .     S
C209   C211    1.395   .     D
C209   H210    0.927   1_554 S
H210   C209    0.927   1_556 S
C211   H212    0.930   .     S
O213   H214    0.893   .     S
O213   H215    1.044   .     S
Co221  O226    2.100   .     S
Co221  O417    2.069   .     S
Co221  O223    2.015   1_655 S
Co222  O225    2.052   .     S
Co222  O244    2.089   .     S
Co222  O257    2.110   .     S
Co222  O418    2.073   .     S
Co222  O155    2.229   1_655 S
Co222  O223    2.075   1_655 S
O223   Co530   2.055   .     S
O223   Co221   2.015   1_455 S
O223   Co222   2.075   1_455 S
O225   C229    1.261   .     S
O226   C229    1.269   .     D
O227   C234    1.279   .     D
O228   C234    1.249   .     S
C229   C230    1.508   .     S
C230   C232    1.398   .     D
C230   C235    1.389   .     S
C231   C232    1.388   .     S
C231   C234    1.503   .     S
C231   C239    1.386   .     D
C232   H233    0.933   .     S
C235   H236    0.932   .     S
C235   C237    1.380   .     D
C237   H238    0.928   .     S
C237   C239    1.379   .     S
C239   H240    0.930   .     S
O241   C245    1.259   .     S
O241   Co441   2.069   .     S
O242   C245    1.267   .     D
O242   Co442   2.073   .     S
O243   C250    1.274   .     S
O243   Co530   2.133   .     S
O243   Co178   2.229   1_545 S
O244   C250    1.250   1_655 S
C245   C246    1.510   1_655 S
C246   C248    1.389   .     D
C246   C251    1.391   .     S
C246   C245    1.510   1_455 S
C247   C248    1.387   .     S
C247   C250    1.497   .     S
C247   C255    1.390   .     D
C248   H249    0.928   1_455 S
H249   C248    0.928   1_655 S
C250   O244    1.250   1_455 S
C251   H252    0.932   .     S
C251   C253    1.393   .     D
C253   C255    1.395   .     S
C253   H254    0.927   1_545 S
H254   C253    0.927   1_565 S
C255   H256    0.930   .     S
O257   H258    0.893   .     S
O257   H259    1.044   .     S
Co265  O267    2.015   .     S
Co265  O270    2.100   .     S
Co265  O404    2.170   .     S
Co265  O491    2.055   .     S
Co266  O267    2.075   .     S
Co266  O269    2.052   .     S
Co266  O288    2.089   .     S
Co266  O301    2.110   .     S
Co266  O331    2.229   .     S
O267   Co531   2.055   .     S
O269   C273    1.261   .     D
O270   C273    1.269   .     S
O271   Co485   2.055   .     S
O271   C278    1.279   1_455 D
O272   Co397   2.170   .     S
O272   C278    1.249   1_554 S
C273   C274    1.508   .     S
C274   C276    1.398   .     S
C274   C279    1.389   .     D
C275   C276    1.388   .     D
C275   C278    1.503   1_554 S
C275   C283    1.386   1_655 S
C276   H277    0.933   .     S
C278   O271    1.279   1_655 D
C278   O272    1.249   1_556 S
C278   C275    1.503   1_556 S
C279   H280    0.932   .     S
C279   C281    1.380   1_655 S
C281   H282    0.928   .     S
C281   C283    1.379   .     D
C281   C279    1.380   1_455 S
C283   C275    1.386   1_455 S
C283   H284    0.930   1_554 S
H284   C283    0.930   1_556 S
O285   C289    1.259   .     S
O286   C289    1.267   .     D
O287   C294    1.274   .     S
O287   Co354   2.229   .     S
O287   Co531   2.133   .     S
O288   C294    1.250   .     D
C289   C290    1.510   .     S
C290   C292    1.389   1_455 D
C290   C295    1.391   1_455 S
C291   C292    1.387   .     S
C291   C294    1.497   .     S
C291   C299    1.390   .     D
C292   H293    0.928   .     S
C292   C290    1.389   1_655 D
C295   C297    1.393   .     D
C295   C290    1.391   1_655 S
C295   H296    0.932   1_655 S
H296   C295    0.932   1_455 S
C297   H298    0.927   .     S
C297   C299    1.395   .     S
C299   H300    0.930   .     S
O301   H302    0.893   .     S
O301   H303    1.044   .     S
Co309  O311    2.015   .     S
Co309  O314    2.100   .     S
Co309  O447    2.055   .     S
Co309  O492    2.170   .     S
Co310  O311    2.075   .     S
Co310  O313    2.052   .     S
Co310  O332    2.089   .     S
Co310  O345    2.110   .     S
Co310  O375    2.229   .     S
O311   Co531   2.055   .     S
O313   C317    1.261   .     S
O314   C317    1.269   .     D
O315   Co441   2.055   .     S
O315   C322    1.279   1_545 D
O316   Co485   2.170   .     S
O316   C322    1.249   1_455 S
C317   C318    1.508   .     S
C318   C320    1.398   .     D
C318   C323    1.389   .     S
C319   C320    1.388   .     S
C319   C322    1.503   1_455 S
C319   C327    1.386   1_565 S
C320   H321    0.933   .     S
C322   O315    1.279   1_565 D
C322   O316    1.249   1_655 S
C322   C319    1.503   1_655 S
C323   H324    0.932   .     S
C323   C325    1.380   1_565 S
C325   H326    0.928   .     S
C325   C327    1.379   .     S
C325   C323    1.380   1_545 S
C327   C319    1.386   1_545 S
C327   H328    0.930   1_455 S
H328   C327    0.930   1_655 S
O329   C333    1.259   .     S
O330   C333    1.267   .     D
O331   C338    1.274   .     S
O331   Co531   2.133   .     S
O332   C338    1.250   .     D
C333   C334    1.510   .     S
C334   C336    1.389   1_545 S
C334   C339    1.391   1_545 S
C335   C336    1.387   .     S
C335   C338    1.497   .     S
C335   C343    1.390   .     D
C336   H337    0.928   .     S
C336   C334    1.389   1_565 S
C339   C341    1.393   .     D
C339   C334    1.391   1_565 S
C339   H340    0.932   1_565 S
H340   C339    0.932   1_545 S
C341   H342    0.927   .     S
C341   C343    1.395   .     S
C343   H344    0.930   .     S
O345   H346    0.893   .     S
O345   H347    1.044   .     S
Co353  O355    2.015   .     S
Co353  O358    2.100   .     S
Co353  O403    2.055   .     S
Co353  O448    2.170   .     S
Co354  O355    2.075   .     S
Co354  O357    2.052   .     S
Co354  O376    2.089   .     S
Co354  O389    2.110   .     S
O355   Co531   2.055   .     S
O357   C361    1.261   .     D
O358   C361    1.269   .     S
O359   Co397   2.055   .     S
O359   C366    1.279   1_554 S
O360   Co441   2.170   .     S
O360   C366    1.249   1_545 D
C361   C362    1.508   .     S
C362   C364    1.398   .     D
C362   C367    1.389   .     S
C363   C364    1.388   .     S
C363   C366    1.503   1_545 S
C363   C371    1.386   1_556 D
C364   H365    0.933   .     S
C366   O359    1.279   1_556 S
C366   O360    1.249   1_565 D
C366   C363    1.503   1_565 S
C367   H368    0.932   .     S
C367   C369    1.380   1_556 S
C369   H370    0.928   .     S
C369   C371    1.379   .     S
C369   C367    1.380   1_554 S
C371   C363    1.386   1_554 D
C371   H372    0.930   1_545 D
H372   C371    0.930   1_565 D
O373   C377    1.259   .     D
O374   C377    1.267   .     S
O375   C382    1.274   .     S
O375   Co531   2.133   .     S
O376   C382    1.250   .     D
C377   C378    1.510   .     S
C378   C380    1.389   1_554 S
C378   C383    1.391   1_554 D
C379   C380    1.387   .     D
C379   C382    1.497   .     S
C379   C387    1.390   .     S
C380   H381    0.928   .     S
C380   C378    1.389   1_556 S
C383   C385    1.393   .     S
C383   C378    1.391   1_556 D
C383   H384    0.932   1_556 S
H384   C383    0.932   1_554 S
C385   H386    0.927   .     S
C385   C387    1.395   .     D
C387   H388    0.930   .     S
O389   H390    0.893   .     S
O389   H391    1.044   .     S
Co397  O402    2.100   .     S
Co397  O399    2.015   1_554 S
Co398  O401    2.052   .     S
Co398  O420    2.089   .     S
Co398  O433    2.110   .     S
Co398  O399    2.075   1_554 S
Co398  O463    2.229   1_554 S
O399   Co532   2.055   .     S
O399   Co397   2.015   1_556 S
O399   Co398   2.075   1_556 S
O401   C405    1.261   .     S
O402   C405    1.269   .     D
O403   C410    1.279   .     S
O404   C410    1.249   .     D
C405   C406    1.508   .     S
C406   C408    1.398   .     S
C406   C411    1.389   .     D
C407   C408    1.388   .     D
C407   C410    1.503   .     S
C407   C415    1.386   .     S
C408   H409    0.933   .     S
C411   H412    0.932   .     S
C411   C413    1.380   .     S
C413   H414    0.928   .     S
C413   C415    1.379   .     D
C415   H416    0.930   .     S
O417   C421    1.259   .     S
O418   C421    1.267   .     D
O419   C426    1.274   .     S
O419   Co532   2.133   .     S
O419   Co486   2.229   1_655 S
O420   C426    1.250   1_554 D
C421   C422    1.510   1_554 D
C422   C424    1.389   .     D
C422   C427    1.391   .     S
C422   C421    1.510   1_556 D
C423   C424    1.387   .     S
C423   C426    1.497   .     S
C423   C431    1.390   .     D
C424   H425    0.928   1_556 S
H425   C424    0.928   1_554 S
C426   O420    1.250   1_556 D
C427   H428    0.932   .     S
C427   C429    1.393   .     D
C429   C431    1.395   .     S
C429   H430    0.927   1_655 D
H430   C429    0.927   1_455 D
C431   H432    0.930   .     S
O433   H434    0.893   .     S
O433   H435    1.044   .     S
Co441  O446    2.100   .     S
Co441  O443    2.015   1_545 S
Co442  O445    2.052   .     S
Co442  O464    2.089   .     S
Co442  O477    2.110   .     S
Co442  O443    2.075   1_545 S
Co442  O507    2.229   1_545 S
O443   Co532   2.055   .     S
O443   Co441   2.015   1_565 S
O443   Co442   2.075   1_565 S
O445   C449    1.261   .     S
O446   C449    1.269   .     D
O447   C454    1.279   .     D
O448   C454    1.249   .     S
C449   C450    1.508   .     S
C450   C452    1.398   .     D
C450   C455    1.389   .     S
C451   C452    1.388   .     S
C451   C454    1.503   .     S
C451   C459    1.386   .     D
C452   H453    0.933   .     S
C455   H456    0.932   .     S
C455   C457    1.380   .     D
C457   H458    0.928   .     S
C457   C459    1.379   .     S
C459   H460    0.930   .     S
O461   C465    1.259   .     S
O462   C465    1.267   .     D
O463   C470    1.274   .     S
O463   Co532   2.133   .     S
O463   Co398   2.229   1_556 S
O464   C470    1.250   1_545 S
C465   C466    1.510   1_545 S
C466   C468    1.389   .     S
C466   C471    1.391   .     D
C466   C465    1.510   1_565 S
C467   C468    1.387   .     D
C467   C470    1.497   .     S
C467   C475    1.390   .     S
C468   H469    0.928   1_565 D
H469   C468    0.928   1_545 D
C470   O464    1.250   1_565 S
C471   H472    0.932   .     S
C471   C473    1.393   .     S
C473   C475    1.395   .     D
C473   H474    0.927   1_556 S
H474   C473    0.927   1_554 S
C475   H476    0.930   .     S
O477   H478    0.893   .     S
O477   H479    1.044   .     S
Co485  O490    2.100   .     S
Co485  O487    2.015   1_455 D
Co486  O489    2.052   .     S
Co486  O508    2.089   .     S
Co486  O521    2.110   .     S
Co486  O419    2.229   1_455 S
Co486  O487    2.075   1_455 S
O487   Co532   2.055   .     S
O487   Co485   2.015   1_655 D
O487   Co486   2.075   1_655 S
O489   C493    1.261   .     D
O490   C493    1.269   .     S
O491   C498    1.279   .     D
O492   C498    1.249   .     S
C493   C494    1.508   .     S
C494   C496    1.398   .     S
C494   C499    1.389   .     D
C495   C496    1.388   .     D
C495   C498    1.503   .     S
C495   C503    1.386   .     S
C496   H497    0.933   .     S
C499   H500    0.932   .     S
C499   C501    1.380   .     S
C501   H502    0.928   .     S
C501   C503    1.379   .     D
C503   H504    0.930   .     S
O505   C509    1.259   .     S
O506   C509    1.267   .     D
O507   C514    1.274   .     S
O507   Co532   2.133   .     S
O507   Co442   2.229   1_565 S
O508   C514    1.250   1_455 S
C509   C510    1.510   1_455 D
C510   C512    1.389   .     D
C510   C515    1.391   .     S
C510   C509    1.510   1_655 D
C511   C512    1.387   .     S
C511   C514    1.497   .     S
C511   C519    1.390   .     D
C512   H513    0.928   1_655 S
H513   C512    0.928   1_455 S
C514   O508    1.250   1_655 S
C515   H516    0.932   .     S
C515   C517    1.393   .     D
C517   C519    1.395   .     S
C517   H518    0.927   1_565 S
H518   C517    0.927   1_545 S
C519   H520    0.930   .     S
O521   H522    0.893   .     S
O521   H523    1.044   .     S
