data_KIXKOS_ion_b
_audit_creation_date              2014-07-02
_audit_creation_method            'Materials Studio'
_symmetry_space_group_name_H-M    'P1'
_symmetry_Int_Tables_number       1
_symmetry_cell_setting            triclinic
loop_
_symmetry_equiv_pos_as_xyz
  x,y,z
_cell_length_a                    29.8537
_cell_length_b                    29.8537
_cell_length_c                    29.8537
_cell_angle_alpha                 32.9365
_cell_angle_beta                  32.9365
_cell_angle_gamma                 32.9365
loop_
_atom_site_label
_atom_site_type_symbol
_atom_site_fract_x
_atom_site_fract_y
_atom_site_fract_z
_atom_site_U_iso_or_equiv
_atom_site_adp_type
_atom_site_occupancy
Co1    Co    0.34899   0.27999   0.54811   0.00000  Uiso   1.00
Co2    Co    0.25788   0.24804   0.56383   0.00000  Uiso   1.00
O3     O     0.29538   0.33638   0.48698   0.00000  Uiso   1.00
O5     O     0.16764   0.25764   0.67774   0.00000  Uiso   1.00
O6     O     0.24225   0.25235   0.68285   0.00000  Uiso   1.00
O7     O     0.93084   0.25394   0.07544   0.00000  Uiso   1.00
O8     O     0.07573   0.21553   0.99713   0.00000  Uiso   1.00
C9     C     0.17671   0.25201   0.71651   0.00000  Uiso   1.00
C10    C     0.10043   0.24403   0.81133   0.00000  Uiso   1.00
C11    C     0.02042   0.23712   0.95042   0.00000  Uiso   1.00
C12    C     0.09351   0.24551   0.86201   0.00000  Uiso   1.00
H13    H     0.13760   0.25210   0.83710   0.00000  Uiso   1.00
C14    C     0.01056   0.23566   0.00896   0.00000  Uiso   1.00
C15    C     0.03482   0.23312   0.85002   0.00000  Uiso   1.00
H16    H     0.03900   0.23220   0.81610   0.00000  Uiso   1.00
C17    C     0.96390   0.22320   0.93800   0.00000  Uiso   1.00
H18    H     0.92120   0.21390   0.96420   0.00000  Uiso   1.00
C19    C     0.95606   0.22736   0.98626   0.00000  Uiso   1.00
H20    H     0.90620   0.22370   0.04470   0.00000  Uiso   1.00
O21    O     0.83918   0.46048   0.55988   0.00000  Uiso   1.00
O22    O     0.87776   0.39446   0.64996   0.00000  Uiso   1.00
O23    O     0.23394   0.42234   0.37834   0.00000  Uiso   1.00
O24    O     0.17894   0.32084   0.52014   0.00000  Uiso   1.00
C25    C     0.89265   0.43185   0.57215   0.00000  Uiso   1.00
C26    C     0.97685   0.44525   0.49045   0.00000  Uiso   1.00
C27    C     0.11447   0.42807   0.42647   0.00000  Uiso   1.00
C28    C     0.03920   0.41040   0.50180   0.00000  Uiso   1.00
H29    H     0.03060   0.37430   0.56120   0.00000  Uiso   1.00
C30    C     0.18082   0.38782   0.44252   0.00000  Uiso   1.00
C31    C     0.98920   0.49880   0.40250   0.00000  Uiso   1.00
H32    H     0.94730   0.52250   0.39430   0.00000  Uiso   1.00
C33    C     0.06502   0.51702   0.32622   0.00000  Uiso   1.00
H34    H     0.07410   0.55270   0.26670   0.00000  Uiso   1.00
C35    C     0.12673   0.48213   0.33873   0.00000  Uiso   1.00
H36    H     0.17670   0.49520   0.28760   0.00000  Uiso   1.00
Co37   Co    0.54811   0.34899   0.27999   0.00000  Uiso   1.00
Co38   Co    0.56383   0.25788   0.24804   0.00000  Uiso   1.00
O39    O     0.48698   0.29538   0.33638   0.00000  Uiso   1.00
O41    O     0.67774   0.16764   0.25764   0.00000  Uiso   1.00
O42    O     0.68285   0.24225   0.25235   0.00000  Uiso   1.00
O43    O     0.07544   0.93084   0.25394   0.00000  Uiso   1.00
O44    O     0.99713   0.07573   0.21553   0.00000  Uiso   1.00
C45    C     0.71651   0.17671   0.25201   0.00000  Uiso   1.00
C46    C     0.81133   0.10043   0.24403   0.00000  Uiso   1.00
C47    C     0.95042   0.02042   0.23712   0.00000  Uiso   1.00
C48    C     0.86201   0.09351   0.24551   0.00000  Uiso   1.00
H49    H     0.83710   0.13760   0.25210   0.00000  Uiso   1.00
C50    C     0.00896   0.01056   0.23566   0.00000  Uiso   1.00
C51    C     0.85002   0.03482   0.23312   0.00000  Uiso   1.00
H52    H     0.81610   0.03900   0.23220   0.00000  Uiso   1.00
C53    C     0.93800   0.96390   0.22320   0.00000  Uiso   1.00
H54    H     0.96420   0.92120   0.21390   0.00000  Uiso   1.00
C55    C     0.98626   0.95606   0.22736   0.00000  Uiso   1.00
H56    H     0.04470   0.90620   0.22370   0.00000  Uiso   1.00
O57    O     0.55988   0.83918   0.46048   0.00000  Uiso   1.00
O58    O     0.64996   0.87776   0.39446   0.00000  Uiso   1.00
O59    O     0.37834   0.23394   0.42234   0.00000  Uiso   1.00
O60    O     0.52014   0.17894   0.32084   0.00000  Uiso   1.00
C61    C     0.57215   0.89265   0.43185   0.00000  Uiso   1.00
C62    C     0.49045   0.97685   0.44525   0.00000  Uiso   1.00
C63    C     0.42647   0.11447   0.42807   0.00000  Uiso   1.00
C64    C     0.50180   0.03920   0.41040   0.00000  Uiso   1.00
H65    H     0.56120   0.03060   0.37430   0.00000  Uiso   1.00
C66    C     0.44252   0.18082   0.38782   0.00000  Uiso   1.00
C67    C     0.40250   0.98920   0.49880   0.00000  Uiso   1.00
H68    H     0.39430   0.94730   0.52250   0.00000  Uiso   1.00
C69    C     0.32622   0.06502   0.51702   0.00000  Uiso   1.00
H70    H     0.26670   0.07410   0.55270   0.00000  Uiso   1.00
C71    C     0.33873   0.12673   0.48213   0.00000  Uiso   1.00
H72    H     0.28760   0.17670   0.49520   0.00000  Uiso   1.00
Co73   Co    0.27999   0.54811   0.34899   0.00000  Uiso   1.00
Co74   Co    0.24804   0.56383   0.25788   0.00000  Uiso   1.00
O75    O     0.33638   0.48698   0.29538   0.00000  Uiso   1.00
O77    O     0.25764   0.67774   0.16764   0.00000  Uiso   1.00
O78    O     0.25235   0.68285   0.24225   0.00000  Uiso   1.00
O79    O     0.25394   0.07544   0.93084   0.00000  Uiso   1.00
O80    O     0.21553   0.99713   0.07573   0.00000  Uiso   1.00
C81    C     0.25201   0.71651   0.17671   0.00000  Uiso   1.00
C82    C     0.24403   0.81133   0.10043   0.00000  Uiso   1.00
C83    C     0.23712   0.95042   0.02042   0.00000  Uiso   1.00
C84    C     0.24551   0.86201   0.09351   0.00000  Uiso   1.00
H85    H     0.25210   0.83710   0.13760   0.00000  Uiso   1.00
C86    C     0.23566   0.00896   0.01056   0.00000  Uiso   1.00
C87    C     0.23312   0.85002   0.03482   0.00000  Uiso   1.00
H88    H     0.23220   0.81610   0.03900   0.00000  Uiso   1.00
C89    C     0.22320   0.93800   0.96390   0.00000  Uiso   1.00
H90    H     0.21390   0.96420   0.92120   0.00000  Uiso   1.00
C91    C     0.22736   0.98626   0.95606   0.00000  Uiso   1.00
H92    H     0.22370   0.04470   0.90620   0.00000  Uiso   1.00
O93    O     0.46048   0.55988   0.83918   0.00000  Uiso   1.00
O94    O     0.39446   0.64996   0.87776   0.00000  Uiso   1.00
O95    O     0.42234   0.37834   0.23394   0.00000  Uiso   1.00
O96    O     0.32084   0.52014   0.17894   0.00000  Uiso   1.00
C97    C     0.43185   0.57215   0.89265   0.00000  Uiso   1.00
C98    C     0.44525   0.49045   0.97685   0.00000  Uiso   1.00
C99    C     0.42807   0.42647   0.11447   0.00000  Uiso   1.00
C100   C     0.41040   0.50180   0.03920   0.00000  Uiso   1.00
H101   H     0.37430   0.56120   0.03060   0.00000  Uiso   1.00
C102   C     0.38782   0.44252   0.18082   0.00000  Uiso   1.00
C103   C     0.49880   0.40250   0.98920   0.00000  Uiso   1.00
H104   H     0.52250   0.39430   0.94730   0.00000  Uiso   1.00
C105   C     0.51702   0.32622   0.06502   0.00000  Uiso   1.00
H106   H     0.55270   0.26670   0.07410   0.00000  Uiso   1.00
C107   C     0.48213   0.33873   0.12673   0.00000  Uiso   1.00
H108   H     0.49520   0.28760   0.17670   0.00000  Uiso   1.00
Co109  Co    0.22001   0.15101   0.95189   0.00000  Uiso   1.00
Co110  Co    0.25196   0.24212   0.93617   0.00000  Uiso   1.00
O111   O     0.16362   0.20462   0.01302   0.00000  Uiso   1.00
O113   O     0.24236   0.33236   0.82226   0.00000  Uiso   1.00
O114   O     0.24765   0.25775   0.81715   0.00000  Uiso   1.00
O115   O     0.24606   0.56916   0.42456   0.00000  Uiso   1.00
O116   O     0.28447   0.42427   0.50287   0.00000  Uiso   1.00
C117   C     0.24799   0.32329   0.78349   0.00000  Uiso   1.00
C118   C     0.25597   0.39957   0.68867   0.00000  Uiso   1.00
C119   C     0.26288   0.47958   0.54958   0.00000  Uiso   1.00
C120   C     0.25449   0.40649   0.63799   0.00000  Uiso   1.00
H121   H     0.24790   0.36240   0.66290   0.00000  Uiso   1.00
C122   C     0.26434   0.48944   0.49104   0.00000  Uiso   1.00
C123   C     0.26688   0.46518   0.64998   0.00000  Uiso   1.00
H124   H     0.26780   0.46100   0.68390   0.00000  Uiso   1.00
C125   C     0.27680   0.53610   0.56200   0.00000  Uiso   1.00
H126   H     0.28610   0.57880   0.53580   0.00000  Uiso   1.00
C127   C     0.27264   0.54394   0.51374   0.00000  Uiso   1.00
H128   H     0.27630   0.59380   0.45530   0.00000  Uiso   1.00
O129   O     0.03952   0.66082   0.94012   0.00000  Uiso   1.00
O130   O     0.10554   0.62224   0.85004   0.00000  Uiso   1.00
O131   O     0.07766   0.26606   0.12166   0.00000  Uiso   1.00
O132   O     0.17916   0.32106   0.97986   0.00000  Uiso   1.00
C133   C     0.06815   0.60735   0.92785   0.00000  Uiso   1.00
C134   C     0.05475   0.52315   0.00955   0.00000  Uiso   1.00
C135   C     0.07193   0.38553   0.07353   0.00000  Uiso   1.00
C136   C     0.08960   0.46080   0.99820   0.00000  Uiso   1.00
H137   H     0.12570   0.46940   0.93880   0.00000  Uiso   1.00
C138   C     0.11218   0.31918   0.05748   0.00000  Uiso   1.00
C139   C     0.00120   0.51080   0.09750   0.00000  Uiso   1.00
H140   H     0.97750   0.55270   0.10570   0.00000  Uiso   1.00
C141   C     0.98298   0.43498   0.17378   0.00000  Uiso   1.00
H142   H     0.94730   0.42590   0.23330   0.00000  Uiso   1.00
C143   C     0.01787   0.37327   0.16127   0.00000  Uiso   1.00
H144   H     0.00480   0.32330   0.21240   0.00000  Uiso   1.00
Co145  Co    0.15101   0.95189   0.22001   0.00000  Uiso   1.00
Co146  Co    0.24212   0.93617   0.25196   0.00000  Uiso   1.00
O147   O     0.20462   0.01302   0.16362   0.00000  Uiso   1.00
O149   O     0.33236   0.82226   0.24236   0.00000  Uiso   1.00
O150   O     0.25775   0.81715   0.24765   0.00000  Uiso   1.00
O151   O     0.56916   0.42456   0.24606   0.00000  Uiso   1.00
O152   O     0.42427   0.50287   0.28447   0.00000  Uiso   1.00
C153   C     0.32329   0.78349   0.24799   0.00000  Uiso   1.00
C154   C     0.39957   0.68867   0.25597   0.00000  Uiso   1.00
C155   C     0.47958   0.54958   0.26288   0.00000  Uiso   1.00
C156   C     0.40649   0.63799   0.25449   0.00000  Uiso   1.00
H157   H     0.36240   0.66290   0.24790   0.00000  Uiso   1.00
C158   C     0.48944   0.49104   0.26434   0.00000  Uiso   1.00
C159   C     0.46518   0.64998   0.26688   0.00000  Uiso   1.00
H160   H     0.46100   0.68390   0.26780   0.00000  Uiso   1.00
C161   C     0.53610   0.56200   0.27680   0.00000  Uiso   1.00
H162   H     0.57880   0.53580   0.28610   0.00000  Uiso   1.00
C163   C     0.54394   0.51374   0.27264   0.00000  Uiso   1.00
H164   H     0.59380   0.45530   0.27630   0.00000  Uiso   1.00
O165   O     0.66082   0.94012   0.03952   0.00000  Uiso   1.00
O166   O     0.62224   0.85004   0.10554   0.00000  Uiso   1.00
O167   O     0.26606   0.12166   0.07766   0.00000  Uiso   1.00
O168   O     0.32106   0.97986   0.17916   0.00000  Uiso   1.00
C169   C     0.60735   0.92785   0.06815   0.00000  Uiso   1.00
C170   C     0.52315   0.00955   0.05475   0.00000  Uiso   1.00
C171   C     0.38553   0.07353   0.07193   0.00000  Uiso   1.00
C172   C     0.46080   0.99820   0.08960   0.00000  Uiso   1.00
H173   H     0.46940   0.93880   0.12570   0.00000  Uiso   1.00
C174   C     0.31918   0.05748   0.11218   0.00000  Uiso   1.00
C175   C     0.51080   0.09750   0.00120   0.00000  Uiso   1.00
H176   H     0.55270   0.10570   0.97750   0.00000  Uiso   1.00
C177   C     0.43498   0.17378   0.98298   0.00000  Uiso   1.00
H178   H     0.42590   0.23330   0.94730   0.00000  Uiso   1.00
C179   C     0.37327   0.16127   0.01787   0.00000  Uiso   1.00
H180   H     0.32330   0.21240   0.00480   0.00000  Uiso   1.00
Co181  Co    0.95189   0.22001   0.15101   0.00000  Uiso   1.00
Co182  Co    0.93617   0.25196   0.24212   0.00000  Uiso   1.00
O183   O     0.01302   0.16362   0.20462   0.00000  Uiso   1.00
O185   O     0.82226   0.24236   0.33236   0.00000  Uiso   1.00
O186   O     0.81715   0.24765   0.25775   0.00000  Uiso   1.00
O187   O     0.42456   0.24606   0.56916   0.00000  Uiso   1.00
O188   O     0.50287   0.28447   0.42427   0.00000  Uiso   1.00
C189   C     0.78349   0.24799   0.32329   0.00000  Uiso   1.00
C190   C     0.68867   0.25597   0.39957   0.00000  Uiso   1.00
C191   C     0.54958   0.26288   0.47958   0.00000  Uiso   1.00
C192   C     0.63799   0.25449   0.40649   0.00000  Uiso   1.00
H193   H     0.66290   0.24790   0.36240   0.00000  Uiso   1.00
C194   C     0.49104   0.26434   0.48944   0.00000  Uiso   1.00
C195   C     0.64998   0.26688   0.46518   0.00000  Uiso   1.00
H196   H     0.68390   0.26780   0.46100   0.00000  Uiso   1.00
C197   C     0.56200   0.27680   0.53610   0.00000  Uiso   1.00
H198   H     0.53580   0.28610   0.57880   0.00000  Uiso   1.00
C199   C     0.51374   0.27264   0.54394   0.00000  Uiso   1.00
H200   H     0.45530   0.27630   0.59380   0.00000  Uiso   1.00
O201   O     0.94012   0.03952   0.66082   0.00000  Uiso   1.00
O202   O     0.85004   0.10554   0.62224   0.00000  Uiso   1.00
O203   O     0.12166   0.07766   0.26606   0.00000  Uiso   1.00
O204   O     0.97986   0.17916   0.32106   0.00000  Uiso   1.00
C205   C     0.92785   0.06815   0.60735   0.00000  Uiso   1.00
C206   C     0.00955   0.05475   0.52315   0.00000  Uiso   1.00
C207   C     0.07353   0.07193   0.38553   0.00000  Uiso   1.00
C208   C     0.99820   0.08960   0.46080   0.00000  Uiso   1.00
H209   H     0.93880   0.12570   0.46940   0.00000  Uiso   1.00
C210   C     0.05748   0.11218   0.31918   0.00000  Uiso   1.00
C211   C     0.09750   0.00120   0.51080   0.00000  Uiso   1.00
H212   H     0.10570   0.97750   0.55270   0.00000  Uiso   1.00
C213   C     0.17378   0.98298   0.43498   0.00000  Uiso   1.00
H214   H     0.23330   0.94730   0.42590   0.00000  Uiso   1.00
C215   C     0.16127   0.01787   0.37327   0.00000  Uiso   1.00
H216   H     0.21240   0.00480   0.32330   0.00000  Uiso   1.00
Co217  Co    0.65101   0.72001   0.45189   0.00000  Uiso   1.00
Co218  Co    0.74212   0.75196   0.43617   0.00000  Uiso   1.00
O219   O     0.70462   0.66362   0.51302   0.00000  Uiso   1.00
O221   O     0.83236   0.74236   0.32226   0.00000  Uiso   1.00
O222   O     0.75775   0.74765   0.31715   0.00000  Uiso   1.00
O223   O     0.06916   0.74606   0.92456   0.00000  Uiso   1.00
O224   O     0.92427   0.78447   0.00287   0.00000  Uiso   1.00
C225   C     0.82329   0.74799   0.28349   0.00000  Uiso   1.00
C226   C     0.89957   0.75597   0.18867   0.00000  Uiso   1.00
C227   C     0.97958   0.76288   0.04958   0.00000  Uiso   1.00
C228   C     0.90649   0.75449   0.13799   0.00000  Uiso   1.00
H229   H     0.86240   0.74790   0.16290   0.00000  Uiso   1.00
C230   C     0.98944   0.76434   0.99104   0.00000  Uiso   1.00
C231   C     0.96518   0.76688   0.14998   0.00000  Uiso   1.00
H232   H     0.96100   0.76780   0.18390   0.00000  Uiso   1.00
C233   C     0.03610   0.77680   0.06200   0.00000  Uiso   1.00
H234   H     0.07880   0.78610   0.03580   0.00000  Uiso   1.00
C235   C     0.04394   0.77264   0.01374   0.00000  Uiso   1.00
H236   H     0.09380   0.77630   0.95530   0.00000  Uiso   1.00
O237   O     0.16082   0.53952   0.44012   0.00000  Uiso   1.00
O238   O     0.12224   0.60554   0.35004   0.00000  Uiso   1.00
O239   O     0.76606   0.57766   0.62166   0.00000  Uiso   1.00
O240   O     0.82106   0.67916   0.47986   0.00000  Uiso   1.00
C241   C     0.10735   0.56815   0.42785   0.00000  Uiso   1.00
C242   C     0.02315   0.55475   0.50955   0.00000  Uiso   1.00
C243   C     0.88553   0.57193   0.57353   0.00000  Uiso   1.00
C244   C     0.96080   0.58960   0.49820   0.00000  Uiso   1.00
H245   H     0.96940   0.62570   0.43880   0.00000  Uiso   1.00
C246   C     0.81918   0.61218   0.55748   0.00000  Uiso   1.00
C247   C     0.01080   0.50120   0.59750   0.00000  Uiso   1.00
H248   H     0.05270   0.47750   0.60570   0.00000  Uiso   1.00
C249   C     0.93498   0.48298   0.67378   0.00000  Uiso   1.00
H250   H     0.92590   0.44730   0.73330   0.00000  Uiso   1.00
C251   C     0.87327   0.51787   0.66127   0.00000  Uiso   1.00
H252   H     0.82330   0.50480   0.71240   0.00000  Uiso   1.00
Co253  Co    0.45189   0.65101   0.72001   0.00000  Uiso   1.00
Co254  Co    0.43617   0.74212   0.75196   0.00000  Uiso   1.00
O255   O     0.51302   0.70462   0.66362   0.00000  Uiso   1.00
O257   O     0.32226   0.83236   0.74236   0.00000  Uiso   1.00
O258   O     0.31715   0.75775   0.74765   0.00000  Uiso   1.00
O259   O     0.92456   0.06916   0.74606   0.00000  Uiso   1.00
O260   O     0.00287   0.92427   0.78447   0.00000  Uiso   1.00
C261   C     0.28349   0.82329   0.74799   0.00000  Uiso   1.00
C262   C     0.18867   0.89957   0.75597   0.00000  Uiso   1.00
C263   C     0.04958   0.97958   0.76288   0.00000  Uiso   1.00
C264   C     0.13799   0.90649   0.75449   0.00000  Uiso   1.00
H265   H     0.16290   0.86240   0.74790   0.00000  Uiso   1.00
C266   C     0.99104   0.98944   0.76434   0.00000  Uiso   1.00
C267   C     0.14998   0.96518   0.76688   0.00000  Uiso   1.00
H268   H     0.18390   0.96100   0.76780   0.00000  Uiso   1.00
C269   C     0.06200   0.03610   0.77680   0.00000  Uiso   1.00
H270   H     0.03580   0.07880   0.78610   0.00000  Uiso   1.00
C271   C     0.01374   0.04394   0.77264   0.00000  Uiso   1.00
H272   H     0.95530   0.09380   0.77630   0.00000  Uiso   1.00
O273   O     0.44012   0.16082   0.53952   0.00000  Uiso   1.00
O274   O     0.35004   0.12224   0.60554   0.00000  Uiso   1.00
O275   O     0.62166   0.76606   0.57766   0.00000  Uiso   1.00
O276   O     0.47986   0.82106   0.67916   0.00000  Uiso   1.00
C277   C     0.42785   0.10735   0.56815   0.00000  Uiso   1.00
C278   C     0.50955   0.02315   0.55475   0.00000  Uiso   1.00
C279   C     0.57353   0.88553   0.57193   0.00000  Uiso   1.00
C280   C     0.49820   0.96080   0.58960   0.00000  Uiso   1.00
H281   H     0.43880   0.96940   0.62570   0.00000  Uiso   1.00
C282   C     0.55748   0.81918   0.61218   0.00000  Uiso   1.00
C283   C     0.59750   0.01080   0.50120   0.00000  Uiso   1.00
H284   H     0.60570   0.05270   0.47750   0.00000  Uiso   1.00
C285   C     0.67378   0.93498   0.48298   0.00000  Uiso   1.00
H286   H     0.73330   0.92590   0.44730   0.00000  Uiso   1.00
C287   C     0.66127   0.87327   0.51787   0.00000  Uiso   1.00
H288   H     0.71240   0.82330   0.50480   0.00000  Uiso   1.00
Co289  Co    0.72001   0.45189   0.65101   0.00000  Uiso   1.00
Co290  Co    0.75196   0.43617   0.74212   0.00000  Uiso   1.00
O291   O     0.66362   0.51302   0.70462   0.00000  Uiso   1.00
O293   O     0.74236   0.32226   0.83236   0.00000  Uiso   1.00
O294   O     0.74765   0.31715   0.75775   0.00000  Uiso   1.00
O295   O     0.74606   0.92456   0.06916   0.00000  Uiso   1.00
O296   O     0.78447   0.00287   0.92427   0.00000  Uiso   1.00
C297   C     0.74799   0.28349   0.82329   0.00000  Uiso   1.00
C298   C     0.75597   0.18867   0.89957   0.00000  Uiso   1.00
C299   C     0.76288   0.04958   0.97958   0.00000  Uiso   1.00
C300   C     0.75449   0.13799   0.90649   0.00000  Uiso   1.00
H301   H     0.74790   0.16290   0.86240   0.00000  Uiso   1.00
C302   C     0.76434   0.99104   0.98944   0.00000  Uiso   1.00
C303   C     0.76688   0.14998   0.96518   0.00000  Uiso   1.00
H304   H     0.76780   0.18390   0.96100   0.00000  Uiso   1.00
C305   C     0.77680   0.06200   0.03610   0.00000  Uiso   1.00
H306   H     0.78610   0.03580   0.07880   0.00000  Uiso   1.00
C307   C     0.77264   0.01374   0.04394   0.00000  Uiso   1.00
H308   H     0.77630   0.95530   0.09380   0.00000  Uiso   1.00
O309   O     0.53952   0.44012   0.16082   0.00000  Uiso   1.00
O310   O     0.60554   0.35004   0.12224   0.00000  Uiso   1.00
O311   O     0.57766   0.62166   0.76606   0.00000  Uiso   1.00
O312   O     0.67916   0.47986   0.82106   0.00000  Uiso   1.00
C313   C     0.56815   0.42785   0.10735   0.00000  Uiso   1.00
C314   C     0.55475   0.50955   0.02315   0.00000  Uiso   1.00
C315   C     0.57193   0.57353   0.88553   0.00000  Uiso   1.00
C316   C     0.58960   0.49820   0.96080   0.00000  Uiso   1.00
H317   H     0.62570   0.43880   0.96940   0.00000  Uiso   1.00
C318   C     0.61218   0.55748   0.81918   0.00000  Uiso   1.00
C319   C     0.50120   0.59750   0.01080   0.00000  Uiso   1.00
H320   H     0.47750   0.60570   0.05270   0.00000  Uiso   1.00
C321   C     0.48298   0.67378   0.93498   0.00000  Uiso   1.00
H322   H     0.44730   0.73330   0.92590   0.00000  Uiso   1.00
C323   C     0.51787   0.66127   0.87327   0.00000  Uiso   1.00
H324   H     0.50480   0.71240   0.82330   0.00000  Uiso   1.00
Co325  Co    0.77999   0.84899   0.04811   0.00000  Uiso   1.00
Co326  Co    0.74804   0.75788   0.06383   0.00000  Uiso   1.00
O327   O     0.83638   0.79538   0.98698   0.00000  Uiso   1.00
O329   O     0.75764   0.66764   0.17774   0.00000  Uiso   1.00
O330   O     0.75235   0.74225   0.18285   0.00000  Uiso   1.00
O331   O     0.75394   0.43084   0.57544   0.00000  Uiso   1.00
O332   O     0.71553   0.57573   0.49713   0.00000  Uiso   1.00
C333   C     0.75201   0.67671   0.21651   0.00000  Uiso   1.00
C334   C     0.74403   0.60043   0.31133   0.00000  Uiso   1.00
C335   C     0.73712   0.52042   0.45042   0.00000  Uiso   1.00
C336   C     0.74551   0.59351   0.36201   0.00000  Uiso   1.00
H337   H     0.75210   0.63760   0.33710   0.00000  Uiso   1.00
C338   C     0.73566   0.51056   0.50896   0.00000  Uiso   1.00
C339   C     0.73312   0.53482   0.35002   0.00000  Uiso   1.00
H340   H     0.73220   0.53900   0.31610   0.00000  Uiso   1.00
C341   C     0.72320   0.46390   0.43800   0.00000  Uiso   1.00
H342   H     0.71390   0.42120   0.46420   0.00000  Uiso   1.00
C343   C     0.72736   0.45606   0.48626   0.00000  Uiso   1.00
H344   H     0.72370   0.40620   0.54470   0.00000  Uiso   1.00
O345   O     0.96048   0.33918   0.05988   0.00000  Uiso   1.00
O346   O     0.89446   0.37776   0.14996   0.00000  Uiso   1.00
O347   O     0.92234   0.73394   0.87834   0.00000  Uiso   1.00
O348   O     0.82084   0.67894   0.02014   0.00000  Uiso   1.00
C349   C     0.93185   0.39265   0.07215   0.00000  Uiso   1.00
C350   C     0.94525   0.47685   0.99045   0.00000  Uiso   1.00
C351   C     0.92807   0.61447   0.92647   0.00000  Uiso   1.00
C352   C     0.91040   0.53920   0.00180   0.00000  Uiso   1.00
H353   H     0.87430   0.53060   0.06120   0.00000  Uiso   1.00
C354   C     0.88782   0.68082   0.94252   0.00000  Uiso   1.00
C355   C     0.99880   0.48920   0.90250   0.00000  Uiso   1.00
H356   H     0.02250   0.44730   0.89430   0.00000  Uiso   1.00
C357   C     0.01702   0.56502   0.82622   0.00000  Uiso   1.00
H358   H     0.05270   0.57410   0.76670   0.00000  Uiso   1.00
C359   C     0.98213   0.62673   0.83873   0.00000  Uiso   1.00
H360   H     0.99520   0.67670   0.78760   0.00000  Uiso   1.00
Co361  Co    0.84899   0.04811   0.77999   0.00000  Uiso   1.00
Co362  Co    0.75788   0.06383   0.74804   0.00000  Uiso   1.00
O363   O     0.79538   0.98698   0.83638   0.00000  Uiso   1.00
O365   O     0.66764   0.17774   0.75764   0.00000  Uiso   1.00
O366   O     0.74225   0.18285   0.75235   0.00000  Uiso   1.00
O367   O     0.43084   0.57544   0.75394   0.00000  Uiso   1.00
O368   O     0.57573   0.49713   0.71553   0.00000  Uiso   1.00
C369   C     0.67671   0.21651   0.75201   0.00000  Uiso   1.00
C370   C     0.60043   0.31133   0.74403   0.00000  Uiso   1.00
C371   C     0.52042   0.45042   0.73712   0.00000  Uiso   1.00
C372   C     0.59351   0.36201   0.74551   0.00000  Uiso   1.00
H373   H     0.63760   0.33710   0.75210   0.00000  Uiso   1.00
C374   C     0.51056   0.50896   0.73566   0.00000  Uiso   1.00
C375   C     0.53482   0.35002   0.73312   0.00000  Uiso   1.00
H376   H     0.53900   0.31610   0.73220   0.00000  Uiso   1.00
C377   C     0.46390   0.43800   0.72320   0.00000  Uiso   1.00
H378   H     0.42120   0.46420   0.71390   0.00000  Uiso   1.00
C379   C     0.45606   0.48626   0.72736   0.00000  Uiso   1.00
H380   H     0.40620   0.54470   0.72370   0.00000  Uiso   1.00
O381   O     0.33918   0.05988   0.96048   0.00000  Uiso   1.00
O382   O     0.37776   0.14996   0.89446   0.00000  Uiso   1.00
O383   O     0.73394   0.87834   0.92234   0.00000  Uiso   1.00
O384   O     0.67894   0.02014   0.82084   0.00000  Uiso   1.00
C385   C     0.39265   0.07215   0.93185   0.00000  Uiso   1.00
C386   C     0.47685   0.99045   0.94525   0.00000  Uiso   1.00
C387   C     0.61447   0.92647   0.92807   0.00000  Uiso   1.00
C388   C     0.53920   0.00180   0.91040   0.00000  Uiso   1.00
H389   H     0.53060   0.06120   0.87430   0.00000  Uiso   1.00
C390   C     0.68082   0.94252   0.88782   0.00000  Uiso   1.00
C391   C     0.48920   0.90250   0.99880   0.00000  Uiso   1.00
H392   H     0.44730   0.89430   0.02250   0.00000  Uiso   1.00
C393   C     0.56502   0.82622   0.01702   0.00000  Uiso   1.00
H394   H     0.57410   0.76670   0.05270   0.00000  Uiso   1.00
C395   C     0.62673   0.83873   0.98213   0.00000  Uiso   1.00
H396   H     0.67670   0.78760   0.99520   0.00000  Uiso   1.00
Co397  Co    0.04811   0.77999   0.84899   0.00000  Uiso   1.00
Co398  Co    0.06383   0.74804   0.75788   0.00000  Uiso   1.00
O399   O     0.98698   0.83638   0.79538   0.00000  Uiso   1.00
O401   O     0.17774   0.75764   0.66764   0.00000  Uiso   1.00
O402   O     0.18285   0.75235   0.74225   0.00000  Uiso   1.00
O403   O     0.57544   0.75394   0.43084   0.00000  Uiso   1.00
O404   O     0.49713   0.71553   0.57573   0.00000  Uiso   1.00
C405   C     0.21651   0.75201   0.67671   0.00000  Uiso   1.00
C406   C     0.31133   0.74403   0.60043   0.00000  Uiso   1.00
C407   C     0.45042   0.73712   0.52042   0.00000  Uiso   1.00
C408   C     0.36201   0.74551   0.59351   0.00000  Uiso   1.00
H409   H     0.33710   0.75210   0.63760   0.00000  Uiso   1.00
C410   C     0.50896   0.73566   0.51056   0.00000  Uiso   1.00
C411   C     0.35002   0.73312   0.53482   0.00000  Uiso   1.00
H412   H     0.31610   0.73220   0.53900   0.00000  Uiso   1.00
C413   C     0.43800   0.72320   0.46390   0.00000  Uiso   1.00
H414   H     0.46420   0.71390   0.42120   0.00000  Uiso   1.00
C415   C     0.48626   0.72736   0.45606   0.00000  Uiso   1.00
H416   H     0.54470   0.72370   0.40620   0.00000  Uiso   1.00
O417   O     0.05988   0.96048   0.33918   0.00000  Uiso   1.00
O418   O     0.14996   0.89446   0.37776   0.00000  Uiso   1.00
O419   O     0.87834   0.92234   0.73394   0.00000  Uiso   1.00
O420   O     0.02014   0.82084   0.67894   0.00000  Uiso   1.00
C421   C     0.07215   0.93185   0.39265   0.00000  Uiso   1.00
C422   C     0.99045   0.94525   0.47685   0.00000  Uiso   1.00
C423   C     0.92647   0.92807   0.61447   0.00000  Uiso   1.00
C424   C     0.00180   0.91040   0.53920   0.00000  Uiso   1.00
H425   H     0.06120   0.87430   0.53060   0.00000  Uiso   1.00
C426   C     0.94252   0.88782   0.68082   0.00000  Uiso   1.00
C427   C     0.90250   0.99880   0.48920   0.00000  Uiso   1.00
H428   H     0.89430   0.02250   0.44730   0.00000  Uiso   1.00
C429   C     0.82622   0.01702   0.56502   0.00000  Uiso   1.00
H430   H     0.76670   0.05270   0.57410   0.00000  Uiso   1.00
C431   C     0.83873   0.98213   0.62673   0.00000  Uiso   1.00
H432   H     0.78760   0.99520   0.67670   0.00000  Uiso   1.00
Co433  Co    0.35957   0.35957   0.35957   0.00000  Uiso   1.00
Co434  Co    0.14043   0.14043   0.14043   0.00000  Uiso   1.00
Co435  Co    0.64043   0.64043   0.64043   0.00000  Uiso   1.00
Co436  Co    0.85957   0.85957   0.85957   0.00000  Uiso   1.00
K437   K     0.34953   0.15047   0.75000   0.00000  Uiso   1.00
K438   K     0.75000   0.34953   0.15047   0.00000  Uiso   1.00
K439   K     0.15047   0.75000   0.34953   0.00000  Uiso   1.00
K440   K     0.65047   0.84953   0.25000   0.00000  Uiso   1.00
K441   K     0.25000   0.65047   0.84953   0.00000  Uiso   1.00
K442   K     0.84953   0.25000   0.65047   0.00000  Uiso   1.00
loop_
_geom_bond_atom_site_label_1
_geom_bond_atom_site_label_2
_geom_bond_distance
_geom_bond_site_symmetry_2
_ccdc_geom_bond_type
Co1    O3      1.987   .     S
Co1    O6      2.084   .     S
Co1    O116    2.182   .     S
Co1    O187    1.997   .     S
Co1    O273    2.059   .     S
Co2    O3      1.990   .     S
Co2    O5      1.966   .     S
Co2    O24     1.945   .     S
Co2    O274    1.945   .     S
O3     Co433   2.047   .     S
O5     C9      1.251   .     D
O6     C9      1.247   .     S
O7     Co181   1.997   .     S
O7     C14     1.269   1_655 S
O8     Co109   2.182   .     S
O8     C14     1.229   1_556 S
C9     C10     1.488   .     S
C10    C12     1.381   .     D
C10    C15     1.385   .     S
C11    C12     1.390   .     S
C11    C14     1.474   1_556 S
C11    C19     1.374   1_455 S
C12    H13     0.933   .     S
C14    O7      1.269   1_455 S
C14    O8      1.229   1_554 S
C14    C11     1.474   1_554 S
C15    H16     0.933   .     S
C15    C17     1.372   1_455 S
C17    H18     0.933   .     S
C17    C19     1.353   .     S
C17    C15     1.372   1_655 S
C19    C11     1.374   1_655 S
C19    H20     0.930   1_556 D
H20    C19     0.930   1_554 D
O21    C25     1.256   .     S
O21    Co289   2.059   .     S
O22    C25     1.260   .     D
O22    Co290   1.945   .     S
O23    C30     1.256   .     D
O23    Co433   2.081   .     S
O24    C30     1.250   .     S
C25    C26     1.479   .     S
C26    C31     1.380   .     S
C26    C28     1.371   1_655 S
C27    C28     1.379   .     S
C27    C30     1.493   .     S
C27    C35     1.373   .     D
C28    H29     0.930   .     S
C28    C26     1.371   1_455 S
C31    H32     0.929   .     S
C31    C33     1.393   1_655 S
C33    H34     0.930   .     S
C33    C35     1.378   .     S
C33    C31     1.393   1_455 S
C35    H36     0.929   .     S
Co37   O39     1.987   .     S
Co37   O42     2.084   .     S
Co37   O151    1.997   .     S
Co37   O188    2.182   .     S
Co37   O309    2.059   .     S
Co38   O39     1.990   .     S
Co38   O41     1.966   .     S
Co38   O60     1.945   .     S
Co38   O310    1.945   .     S
O39    Co433   2.047   .     S
O41    C45     1.251   .     D
O42    C45     1.247   .     S
O43    Co145   1.997   .     S
O43    C50     1.269   1_565 S
O44    Co181   2.182   .     S
O44    C50     1.229   1_655 S
C45    C46     1.488   .     S
C46    C48     1.381   .     S
C46    C51     1.385   .     D
C47    C48     1.390   .     D
C47    C50     1.474   1_655 S
C47    C55     1.374   1_545 S
C48    H49     0.933   .     S
C50    O43     1.269   1_545 S
C50    O44     1.229   1_455 S
C50    C47     1.474   1_455 S
C51    H52     0.933   .     S
C51    C53     1.372   1_545 S
C53    H54     0.933   .     S
C53    C55     1.353   .     D
C53    C51     1.372   1_565 S
C55    C47     1.374   1_565 S
C55    H56     0.930   1_655 D
H56    C55     0.930   1_455 D
O57    C61     1.256   .     D
O57    Co217   2.059   .     S
O58    C61     1.260   .     S
O58    Co218   1.945   .     S
O59    C66     1.256   .     S
O59    Co433   2.081   .     S
O60    C66     1.250   .     D
C61    C62     1.479   .     S
C62    C67     1.380   .     D
C62    C64     1.371   1_565 S
C63    C64     1.379   .     D
C63    C66     1.493   .     S
C63    C71     1.373   .     S
C64    H65     0.930   .     S
C64    C62     1.371   1_545 S
C67    H68     0.929   .     S
C67    C69     1.393   1_565 S
C69    H70     0.930   .     S
C69    C71     1.378   .     D
C69    C67     1.393   1_545 S
C71    H72     0.929   .     S
Co73   O75     1.987   .     S
Co73   O78     2.084   .     S
Co73   O115    1.997   .     S
Co73   O152    2.182   .     S
Co73   O237    2.059   .     S
Co74   O75     1.990   .     S
Co74   O77     1.966   .     S
Co74   O96     1.945   .     S
Co74   O238    1.945   .     S
O75    Co433   2.047   .     S
O77    C81     1.251   .     D
O78    C81     1.247   .     S
O79    Co109   1.997   .     S
O79    C86     1.269   1_556 S
O80    Co145   2.182   .     S
O80    C86     1.229   1_565 D
C81    C82     1.488   .     S
C82    C84     1.381   .     D
C82    C87     1.385   .     S
C83    C84     1.390   .     S
C83    C86     1.474   1_565 S
C83    C91     1.374   1_554 S
C84    H85     0.933   .     S
C86    O79     1.269   1_554 S
C86    O80     1.229   1_545 D
C86    C83     1.474   1_545 S
C87    H88     0.933   .     S
C87    C89     1.372   1_554 S
C89    H90     0.933   .     S
C89    C91     1.353   .     S
C89    C87     1.372   1_556 S
C91    C83     1.374   1_556 S
C91    H92     0.930   1_565 S
H92    C91     0.930   1_545 S
O93    C97     1.256   .     D
O93    Co253   2.059   .     S
O94    C97     1.260   .     S
O94    Co254   1.945   .     S
O95    C102    1.256   .     D
O95    Co433   2.081   .     S
O96    C102    1.250   .     S
C97    C98     1.479   .     S
C98    C103    1.380   .     S
C98    C100    1.371   1_556 S
C99    C100    1.379   .     S
C99    C102    1.493   .     S
C99    C107    1.373   .     D
C100   H101    0.930   .     S
C100   C98     1.371   1_554 S
C103   H104    0.929   .     S
C103   C105    1.393   1_556 S
C105   H106    0.930   .     S
C105   C107    1.378   .     S
C105   C103    1.393   1_554 S
C107   H108    0.929   .     S
Co109  O114    2.084   .     S
Co109  O381    2.059   .     S
Co109  O111    1.987   1_556 S
Co110  O113    1.966   .     S
Co110  O132    1.945   .     S
Co110  O382    1.945   .     S
Co110  O111    1.990   1_556 D
O111   Co434   2.047   .     S
O111   Co109   1.987   1_554 S
O111   Co110   1.990   1_554 D
O113   C117    1.251   .     D
O114   C117    1.247   .     S
O115   C122    1.269   .     D
O116   C122    1.229   .     S
C117   C118    1.488   .     S
C118   C120    1.381   .     D
C118   C123    1.385   .     S
C119   C120    1.390   .     S
C119   C122    1.474   .     S
C119   C127    1.374   .     D
C120   H121    0.933   .     S
C123   H124    0.933   .     S
C123   C125    1.372   .     D
C125   H126    0.933   .     S
C125   C127    1.353   .     S
C127   H128    0.930   .     S
O129   C133    1.256   .     D
O129   Co397   2.059   .     S
O130   C133    1.260   .     S
O130   Co398   1.945   .     S
O131   C138    1.256   .     S
O131   Co434   2.081   .     S
O132   C138    1.250   1_556 S
C133   C134    1.479   1_556 S
C134   C139    1.380   .     D
C134   C133    1.479   1_554 S
C134   C136    1.371   1_554 D
C135   C138    1.493   .     S
C135   C143    1.373   .     S
C135   C136    1.379   1_554 D
C136   H137    0.930   .     S
C136   C134    1.371   1_556 D
C136   C135    1.379   1_556 D
C138   O132    1.250   1_554 S
C139   H140    0.929   1_455 D
C139   C141    1.393   1_455 D
H140   C139    0.929   1_655 D
C141   H142    0.930   .     S
C141   C139    1.393   1_655 D
C141   C143    1.378   1_655 S
C143   H144    0.929   .     S
C143   C141    1.378   1_455 S
Co145  O150    2.084   .     S
Co145  O417    2.059   .     S
Co145  O147    1.987   1_565 S
Co146  O149    1.966   .     S
Co146  O168    1.945   .     S
Co146  O418    1.945   .     S
Co146  O147    1.990   1_565 D
O147   Co434   2.047   .     S
O147   Co145   1.987   1_545 S
O147   Co146   1.990   1_545 D
O149   C153    1.251   .     D
O150   C153    1.247   .     S
O151   C158    1.269   .     S
O152   C158    1.229   .     D
C153   C154    1.488   .     S
C154   C156    1.381   .     D
C154   C159    1.385   .     S
C155   C156    1.390   .     S
C155   C158    1.474   .     S
C155   C163    1.374   .     D
C156   H157    0.933   .     S
C159   H160    0.933   .     S
C159   C161    1.372   .     D
C161   H162    0.933   .     S
C161   C163    1.353   .     S
C163   H164    0.930   .     S
O165   C169    1.256   .     D
O165   Co325   2.059   .     S
O166   C169    1.260   .     S
O166   Co326   1.945   .     S
O167   C174    1.256   .     D
O167   Co434   2.081   .     S
O168   C174    1.250   1_565 D
C169   C170    1.479   1_565 S
C170   C175    1.380   .     D
C170   C169    1.479   1_545 S
C170   C172    1.371   1_545 S
C171   C174    1.493   .     S
C171   C179    1.373   .     S
C171   C172    1.379   1_545 S
C172   H173    0.930   .     S
C172   C170    1.371   1_565 S
C172   C171    1.379   1_565 S
C174   O168    1.250   1_545 D
C175   H176    0.929   1_554 S
C175   C177    1.393   1_554 S
H176   C175    0.929   1_556 S
C177   H178    0.930   .     S
C177   C175    1.393   1_556 S
C177   C179    1.378   1_556 S
C179   H180    0.929   .     S
C179   C177    1.378   1_554 S
Co181  O186    2.084   .     S
Co181  O345    2.059   .     S
Co181  O183    1.987   1_655 S
Co182  O185    1.966   .     S
Co182  O204    1.945   .     S
Co182  O346    1.945   .     S
Co182  O183    1.990   1_655 S
O183   Co434   2.047   .     S
O183   Co181   1.987   1_455 S
O183   Co182   1.990   1_455 S
O185   C189    1.251   .     S
O186   C189    1.247   .     D
O187   C194    1.269   .     D
O188   C194    1.229   .     S
C189   C190    1.488   .     S
C190   C192    1.381   .     D
C190   C195    1.385   .     S
C191   C192    1.390   .     S
C191   C194    1.474   .     S
C191   C199    1.374   .     D
C192   H193    0.933   .     S
C195   H196    0.933   .     S
C195   C197    1.372   .     D
C197   H198    0.933   .     S
C197   C199    1.353   .     S
C199   H200    0.930   .     S
O201   C205    1.256   .     D
O201   Co361   2.059   .     S
O202   C205    1.260   .     S
O202   Co362   1.945   .     S
O203   C210    1.256   .     D
O203   Co434   2.081   .     S
O204   C210    1.250   1_655 D
C205   C206    1.479   1_655 S
C206   C211    1.380   .     S
C206   C205    1.479   1_455 S
C206   C208    1.371   1_455 S
C207   C210    1.493   .     S
C207   C215    1.373   .     D
C207   C208    1.379   1_455 S
C208   H209    0.930   .     S
C208   C206    1.371   1_655 S
C208   C207    1.379   1_655 S
C210   O204    1.250   1_455 D
C211   H212    0.929   1_545 S
C211   C213    1.393   1_545 S
H212   C211    0.929   1_565 S
C213   H214    0.930   .     S
C213   C211    1.393   1_565 S
C213   C215    1.378   1_565 D
C215   H216    0.929   .     S
C215   C213    1.378   1_545 D
Co217  O219    1.987   .     S
Co217  O222    2.084   .     S
Co217  O332    2.182   .     S
Co217  O403    1.997   .     S
Co218  O219    1.990   .     S
Co218  O221    1.966   .     S
Co218  O240    1.945   .     S
O219   Co435   2.047   .     S
O221   C225    1.251   .     D
O222   C225    1.247   .     S
O223   Co397   1.997   .     S
O223   C230    1.269   1_455 S
O224   Co325   2.182   .     S
O224   C230    1.229   1_554 S
C225   C226    1.488   .     S
C226   C228    1.381   .     S
C226   C231    1.385   .     D
C227   C228    1.390   .     D
C227   C230    1.474   1_554 D
C227   C235    1.374   1_655 S
C228   H229    0.933   .     S
C230   O223    1.269   1_655 S
C230   O224    1.229   1_556 S
C230   C227    1.474   1_556 D
C231   H232    0.933   .     S
C231   C233    1.372   1_655 S
C233   H234    0.933   .     S
C233   C235    1.353   .     D
C233   C231    1.372   1_455 S
C235   C227    1.374   1_455 S
C235   H236    0.930   1_554 S
H236   C235    0.930   1_556 S
O237   C241    1.256   .     S
O238   C241    1.260   .     D
O239   C246    1.256   .     D
O239   Co435   2.081   .     S
O240   C246    1.250   .     S
C241   C242    1.479   .     S
C242   C247    1.380   .     S
C242   C244    1.371   1_455 S
C243   C244    1.379   .     S
C243   C246    1.493   .     S
C243   C251    1.373   .     D
C244   H245    0.930   .     S
C244   C242    1.371   1_655 S
C247   H248    0.929   .     S
C247   C249    1.393   1_455 S
C249   H250    0.930   .     S
C249   C251    1.378   .     S
C249   C247    1.393   1_655 S
C251   H252    0.929   .     S
Co253  O255    1.987   .     S
Co253  O258    2.084   .     S
Co253  O367    1.997   .     S
Co253  O404    2.182   .     S
Co254  O255    1.990   .     S
Co254  O257    1.966   .     S
Co254  O276    1.945   .     S
O255   Co435   2.047   .     S
O257   C261    1.251   .     S
O258   C261    1.247   .     D
O259   Co361   1.997   .     S
O259   C266    1.269   1_545 S
O260   Co397   2.182   .     S
O260   C266    1.229   1_455 S
C261   C262    1.488   .     S
C262   C264    1.381   .     D
C262   C267    1.385   .     S
C263   C264    1.390   .     S
C263   C266    1.474   1_455 S
C263   C271    1.374   1_565 S
C264   H265    0.933   .     S
C266   O259    1.269   1_565 S
C266   O260    1.229   1_655 S
C266   C263    1.474   1_655 S
C267   H268    0.933   .     S
C267   C269    1.372   1_565 D
C269   H270    0.933   .     S
C269   C271    1.353   .     S
C269   C267    1.372   1_545 D
C271   C263    1.374   1_545 S
C271   H272    0.930   1_455 D
H272   C271    0.930   1_655 D
O273   C277    1.256   .     S
O274   C277    1.260   .     D
O275   C282    1.256   .     S
O275   Co435   2.081   .     S
O276   C282    1.250   .     D
C277   C278    1.479   .     S
C278   C283    1.380   .     S
C278   C280    1.371   1_545 S
C279   C280    1.379   .     S
C279   C282    1.493   .     S
C279   C287    1.373   .     D
C280   H281    0.930   .     S
C280   C278    1.371   1_565 S
C283   H284    0.929   .     S
C283   C285    1.393   1_545 D
C285   H286    0.930   .     S
C285   C287    1.378   .     S
C285   C283    1.393   1_565 D
C287   H288    0.929   .     S
Co289  O291    1.987   .     S
Co289  O294    2.084   .     S
Co289  O331    1.997   .     S
Co289  O368    2.182   .     S
Co290  O291    1.990   .     S
Co290  O293    1.966   .     S
Co290  O312    1.945   .     S
O291   Co435   2.047   .     S
O293   C297    1.251   .     D
O294   C297    1.247   .     S
O295   Co325   1.997   .     S
O295   C302    1.269   1_554 S
O296   Co361   2.182   .     S
O296   C302    1.229   1_545 D
C297   C298    1.488   .     S
C298   C300    1.381   .     S
C298   C303    1.385   .     D
C299   C300    1.390   .     D
C299   C302    1.474   1_545 S
C299   C307    1.374   1_556 S
C300   H301    0.933   .     S
C302   O295    1.269   1_556 S
C302   O296    1.229   1_565 D
C302   C299    1.474   1_565 S
C303   H304    0.933   .     S
C303   C305    1.372   1_556 S
C305   H306    0.933   .     S
C305   C307    1.353   .     D
C305   C303    1.372   1_554 S
C307   C299    1.374   1_554 S
C307   H308    0.930   1_545 S
H308   C307    0.930   1_565 S
O309   C313    1.256   .     D
O310   C313    1.260   .     S
O311   C318    1.256   .     S
O311   Co435   2.081   .     S
O312   C318    1.250   .     D
C313   C314    1.479   .     S
C314   C319    1.380   .     S
C314   C316    1.371   1_554 S
C315   C316    1.379   .     S
C315   C318    1.493   .     S
C315   C323    1.373   .     D
C316   H317    0.930   .     S
C316   C314    1.371   1_556 S
C319   H320    0.929   .     S
C319   C321    1.393   1_554 S
C321   H322    0.930   .     S
C321   C323    1.378   .     S
C321   C319    1.393   1_556 S
C323   H324    0.929   .     S
Co325  O330    2.084   .     S
Co325  O327    1.987   1_554 S
Co326  O329    1.966   .     S
Co326  O348    1.945   .     S
Co326  O327    1.990   1_554 S
O327   Co436   2.047   .     S
O327   Co325   1.987   1_556 S
O327   Co326   1.990   1_556 S
O329   C333    1.251   .     S
O330   C333    1.247   .     D
O331   C338    1.269   .     D
O332   C338    1.229   .     S
C333   C334    1.488   .     S
C334   C336    1.381   .     S
C334   C339    1.385   .     D
C335   C336    1.390   .     D
C335   C338    1.474   .     S
C335   C343    1.374   .     S
C336   H337    0.933   .     S
C339   H340    0.933   .     S
C339   C341    1.372   .     S
C341   H342    0.933   .     S
C341   C343    1.353   .     D
C343   H344    0.930   .     S
O345   C349    1.256   .     D
O346   C349    1.260   .     S
O347   C354    1.256   .     D
O347   Co436   2.081   .     S
O348   C354    1.250   1_554 S
C349   C350    1.479   1_554 S
C350   C355    1.380   .     D
C350   C349    1.479   1_556 S
C350   C352    1.371   1_556 D
C351   C354    1.493   .     S
C351   C359    1.373   .     S
C351   C352    1.379   1_556 S
C352   H353    0.930   .     S
C352   C350    1.371   1_554 D
C352   C351    1.379   1_554 S
C354   O348    1.250   1_556 S
C355   H356    0.929   1_655 D
C355   C357    1.393   1_655 S
H356   C355    0.929   1_455 D
C357   H358    0.930   .     S
C357   C355    1.393   1_455 S
C357   C359    1.378   1_455 D
C359   H360    0.929   .     S
C359   C357    1.378   1_655 D
Co361  O366    2.084   .     S
Co361  O363    1.987   1_545 S
Co362  O365    1.966   .     S
Co362  O384    1.945   .     S
Co362  O363    1.990   1_545 D
O363   Co436   2.047   .     S
O363   Co361   1.987   1_565 S
O363   Co362   1.990   1_565 D
O365   C369    1.251   .     S
O366   C369    1.247   .     D
O367   C374    1.269   .     D
O368   C374    1.229   .     S
C369   C370    1.488   .     S
C370   C372    1.381   .     D
C370   C375    1.385   .     S
C371   C372    1.390   .     S
C371   C374    1.474   .     S
C371   C379    1.374   .     D
C372   H373    0.933   .     S
C375   H376    0.933   .     S
C375   C377    1.372   .     D
C377   H378    0.933   .     S
C377   C379    1.353   .     S
C379   H380    0.930   .     S
O381   C385    1.256   .     S
O382   C385    1.260   .     D
O383   C390    1.256   .     D
O383   Co436   2.081   .     S
O384   C390    1.250   1_545 S
C385   C386    1.479   1_545 D
C386   C391    1.380   .     D
C386   C385    1.479   1_565 D
C386   C388    1.371   1_565 S
C387   C390    1.493   .     S
C387   C395    1.373   .     S
C387   C388    1.379   1_565 S
C388   H389    0.930   .     S
C388   C386    1.371   1_545 S
C388   C387    1.379   1_545 S
C390   O384    1.250   1_565 S
C391   H392    0.929   1_556 S
C391   C393    1.393   1_556 S
H392   C391    0.929   1_554 S
C393   H394    0.930   .     S
C393   C391    1.393   1_554 S
C393   C395    1.378   1_554 S
C395   H396    0.929   .     S
C395   C393    1.378   1_556 S
Co397  O402    2.084   .     S
Co397  O399    1.987   1_455 S
Co398  O401    1.966   .     S
Co398  O420    1.945   .     S
Co398  O399    1.990   1_455 S
O399   Co436   2.047   .     S
O399   Co397   1.987   1_655 S
O399   Co398   1.990   1_655 S
O401   C405    1.251   .     D
O402   C405    1.247   .     S
O403   C410    1.269   .     D
O404   C410    1.229   .     S
C405   C406    1.488   .     S
C406   C408    1.381   .     S
C406   C411    1.385   .     D
C407   C408    1.390   .     D
C407   C410    1.474   .     S
C407   C415    1.374   .     S
C408   H409    0.933   .     S
C411   H412    0.933   .     S
C411   C413    1.372   .     S
C413   H414    0.933   .     S
C413   C415    1.353   .     D
C415   H416    0.930   .     S
O417   C421    1.256   .     S
O418   C421    1.260   .     D
O419   C426    1.256   .     S
O419   Co436   2.081   .     S
O420   C426    1.250   1_455 S
C421   C422    1.479   1_455 S
C422   C427    1.380   .     S
C422   C421    1.479   1_655 S
C422   C424    1.371   1_655 D
C423   C426    1.493   .     S
C423   C431    1.373   .     D
C423   C424    1.379   1_655 S
C424   H425    0.930   .     S
C424   C422    1.371   1_455 D
C424   C423    1.379   1_455 S
C426   O420    1.250   1_655 S
C427   H428    0.929   1_565 S
C427   C429    1.393   1_565 S
H428   C427    0.929   1_545 S
C429   H430    0.930   .     S
C429   C427    1.393   1_545 S
C429   C431    1.378   1_545 S
C431   H432    0.929   .     S
C431   C429    1.378   1_565 S
