data_image0
_cell_length_a       15.433
_cell_length_b       28.552
_cell_length_c       36.861
_cell_angle_alpha    90
_cell_angle_beta     90
_cell_angle_gamma    90

_symmetry_space_group_name_H-M    "P 1"
_symmetry_int_tables_number       1

loop_
  _symmetry_equiv_pos_as_xyz
  'x, y, z'

loop_
  _atom_site_label
  _atom_site_occupancy
  _atom_site_fract_x
  _atom_site_fract_y
  _atom_site_fract_z
  _atom_site_thermal_displace_type
  _atom_site_B_iso_or_equiv
  _atom_site_type_symbol
  Cd1      1.0000 0.46136  0.25813  0.55228  Biso   1.000  Cd
  O1       1.0000 0.36990  0.31558  0.52055  Biso   1.000  O
  O2       1.0000 0.50877  0.31618  0.50995  Biso   1.000  O
  C1       1.0000 0.43314  0.32963  0.50299  Biso   1.000  C
  C2       1.0000 0.41839  0.36324  0.47207  Biso   1.000  C
  C3       1.0000 0.48200  0.36670  0.44927  Biso   1.000  C
  H1       1.0000 0.47710  0.38630  0.42920  Biso   1.000  H
  H2       1.0000 0.53260  0.34960  0.45300  Biso   1.000  H
  N1       1.0000 0.32496  0.23934  0.57774  Biso   1.000  N
  C4       1.0000 0.32055  0.22564  0.61231  Biso   1.000  C
  H3       1.0000 0.37190  0.21750  0.62390  Biso   1.000  H
  C5       1.0000 0.24499  0.22283  0.63172  Biso   1.000  C
  H4       1.0000 0.24590  0.21360  0.65590  Biso   1.000  H
  C6       1.0000 0.16671  0.23394  0.61486  Biso   1.000  C
  C7       1.0000 0.17080  0.24658  0.57870  Biso   1.000  C
  H5       1.0000 0.12030  0.25300  0.56590  Biso   1.000  H
  C8       1.0000 0.25049  0.24963  0.56177  Biso   1.000  C
  H6       1.0000 0.25190  0.25950  0.53770  Biso   1.000  H
  N2       1.0000 0.45916  0.20879  0.50120  Biso   1.000  N
  N3       1.0000 0.50844  0.05852  0.35054  Biso   1.000  N
  C9       1.0000 0.53398  0.18502  0.44787  Biso   1.000  C
  H7       1.0000 0.57990  0.18970  0.43190  Biso   1.000  H
  C10      1.0000 0.52353  0.21380  0.47724  Biso   1.000  C
  H8       1.0000 0.56310  0.23800  0.48070  Biso   1.000  H
  C11      1.0000 0.40402  0.17357  0.49574  Biso   1.000  C
  H9       1.0000 0.35910  0.16950  0.51230  Biso   1.000  H
  C12      1.0000 0.40978  0.14291  0.46699  Biso   1.000  C
  H10      1.0000 0.37000  0.11870  0.46440  Biso   1.000  H
  C13      1.0000 0.47586  0.14879  0.44197  Biso   1.000  C
  C14      1.0000 0.48486  0.11767  0.40994  Biso   1.000  C
  C15      1.0000 0.50980  0.13485  0.37649  Biso   1.000  C
  H11      1.0000 0.51900  0.16680  0.37340  Biso   1.000  H
  C16      1.0000 0.52107  0.10439  0.34768  Biso   1.000  C
  H12      1.0000 0.53820  0.11650  0.32540  Biso   1.000  H
  C17      1.0000 0.48248  0.04229  0.38247  Biso   1.000  C
  H13      1.0000 0.47250  0.01030  0.38460  Biso   1.000  H
  C18      1.0000 0.46943  0.06989  0.41256  Biso   1.000  C
  H14      1.0000 0.45060  0.05680  0.43430  Biso   1.000  H
  Cd2      1.0000 0.46136  0.75813  0.05228  Biso   1.000  Cd
  O3       1.0000 0.36990  0.81558  0.02055  Biso   1.000  O
  O4       1.0000 0.50877  0.81618  0.00995  Biso   1.000  O
  C19      1.0000 0.43314  0.82963  0.00299  Biso   1.000  C
  C20      1.0000 0.41839  0.86324  0.97207  Biso   1.000  C
  C21      1.0000 0.48200  0.86670  0.94927  Biso   1.000  C
  H15      1.0000 0.47710  0.88630  0.92920  Biso   1.000  H
  H16      1.0000 0.53260  0.84960  0.95300  Biso   1.000  H
  N4       1.0000 0.32496  0.73934  0.07774  Biso   1.000  N
  C22      1.0000 0.32055  0.72564  0.11231  Biso   1.000  C
  H17      1.0000 0.37190  0.71750  0.12390  Biso   1.000  H
  C23      1.0000 0.24499  0.72283  0.13172  Biso   1.000  C
  H18      1.0000 0.24590  0.71360  0.15590  Biso   1.000  H
  C24      1.0000 0.16671  0.73394  0.11486  Biso   1.000  C
  C25      1.0000 0.17080  0.74658  0.07870  Biso   1.000  C
  H19      1.0000 0.12030  0.75300  0.06590  Biso   1.000  H
  C26      1.0000 0.25049  0.74963  0.06177  Biso   1.000  C
  H20      1.0000 0.25190  0.75950  0.03770  Biso   1.000  H
  N5       1.0000 0.45916  0.70879  0.00120  Biso   1.000  N
  N6       1.0000 0.50844  0.55852  0.85054  Biso   1.000  N
  C27      1.0000 0.53398  0.68502  0.94787  Biso   1.000  C
  H21      1.0000 0.57990  0.68970  0.93190  Biso   1.000  H
  C28      1.0000 0.52353  0.71380  0.97724  Biso   1.000  C
  H22      1.0000 0.56310  0.73800  0.98070  Biso   1.000  H
  C29      1.0000 0.40402  0.67357  0.99574  Biso   1.000  C
  H23      1.0000 0.35910  0.66950  0.01230  Biso   1.000  H
  C30      1.0000 0.40978  0.64291  0.96699  Biso   1.000  C
  H24      1.0000 0.37000  0.61870  0.96440  Biso   1.000  H
  C31      1.0000 0.47586  0.64879  0.94197  Biso   1.000  C
  C32      1.0000 0.48486  0.61767  0.90994  Biso   1.000  C
  C33      1.0000 0.50980  0.63485  0.87649  Biso   1.000  C
  H25      1.0000 0.51900  0.66680  0.87340  Biso   1.000  H
  C34      1.0000 0.52107  0.60439  0.84768  Biso   1.000  C
  H26      1.0000 0.53820  0.61650  0.82540  Biso   1.000  H
  C35      1.0000 0.48248  0.54229  0.88247  Biso   1.000  C
  H27      1.0000 0.47250  0.51030  0.88460  Biso   1.000  H
  C36      1.0000 0.46943  0.56989  0.91256  Biso   1.000  C
  H28      1.0000 0.45060  0.55680  0.93430  Biso   1.000  H
  Cd3      1.0000 0.96136  0.25813  0.05228  Biso   1.000  Cd
  O5       1.0000 0.86990  0.31558  0.02055  Biso   1.000  O
  O6       1.0000 0.00877  0.31618  0.00995  Biso   1.000  O
  C37      1.0000 0.93314  0.32963  0.00299  Biso   1.000  C
  C38      1.0000 0.91839  0.36324  0.97207  Biso   1.000  C
  C39      1.0000 0.98200  0.36670  0.94927  Biso   1.000  C
  H29      1.0000 0.97710  0.38630  0.92920  Biso   1.000  H
  H30      1.0000 0.03260  0.34960  0.95300  Biso   1.000  H
  N7       1.0000 0.82496  0.23934  0.07774  Biso   1.000  N
  C40      1.0000 0.82055  0.22564  0.11231  Biso   1.000  C
  H31      1.0000 0.87190  0.21750  0.12390  Biso   1.000  H
  C41      1.0000 0.74499  0.22283  0.13172  Biso   1.000  C
  H32      1.0000 0.74590  0.21360  0.15590  Biso   1.000  H
  C42      1.0000 0.66671  0.23394  0.11486  Biso   1.000  C
  C43      1.0000 0.67080  0.24658  0.07870  Biso   1.000  C
  H33      1.0000 0.62030  0.25300  0.06590  Biso   1.000  H
  C44      1.0000 0.75049  0.24963  0.06177  Biso   1.000  C
  H34      1.0000 0.75190  0.25950  0.03770  Biso   1.000  H
  N8       1.0000 0.95916  0.20879  0.00120  Biso   1.000  N
  N9       1.0000 0.00844  0.05852  0.85054  Biso   1.000  N
  C45      1.0000 0.03398  0.18502  0.94787  Biso   1.000  C
  H35      1.0000 0.07990  0.18970  0.93190  Biso   1.000  H
  C46      1.0000 0.02353  0.21380  0.97724  Biso   1.000  C
  H36      1.0000 0.06310  0.23800  0.98070  Biso   1.000  H
  C47      1.0000 0.90402  0.17357  0.99574  Biso   1.000  C
  H37      1.0000 0.85910  0.16950  0.01230  Biso   1.000  H
  C48      1.0000 0.90978  0.14291  0.96699  Biso   1.000  C
  H38      1.0000 0.87000  0.11870  0.96440  Biso   1.000  H
  C49      1.0000 0.97586  0.14879  0.94197  Biso   1.000  C
  C50      1.0000 0.98486  0.11767  0.90994  Biso   1.000  C
  C51      1.0000 0.00980  0.13485  0.87649  Biso   1.000  C
  H39      1.0000 0.01900  0.16680  0.87340  Biso   1.000  H
  C52      1.0000 0.02107  0.10439  0.84768  Biso   1.000  C
  H40      1.0000 0.03820  0.11650  0.82540  Biso   1.000  H
  C53      1.0000 0.98248  0.04229  0.88247  Biso   1.000  C
  H41      1.0000 0.97250  0.01030  0.88460  Biso   1.000  H
  C54      1.0000 0.96943  0.06989  0.91256  Biso   1.000  C
  H42      1.0000 0.95060  0.05680  0.93430  Biso   1.000  H
  Cd4      1.0000 0.96136  0.75813  0.55228  Biso   1.000  Cd
  O7       1.0000 0.86990  0.81558  0.52055  Biso   1.000  O
  O8       1.0000 0.00877  0.81618  0.50995  Biso   1.000  O
  C55      1.0000 0.93314  0.82963  0.50299  Biso   1.000  C
  C56      1.0000 0.91839  0.86324  0.47207  Biso   1.000  C
  C57      1.0000 0.98200  0.86670  0.44927  Biso   1.000  C
  H43      1.0000 0.97710  0.88630  0.42920  Biso   1.000  H
  H44      1.0000 0.03260  0.84960  0.45300  Biso   1.000  H
  N10      1.0000 0.82496  0.73934  0.57774  Biso   1.000  N
  C58      1.0000 0.82055  0.72564  0.61231  Biso   1.000  C
  H45      1.0000 0.87190  0.71750  0.62390  Biso   1.000  H
  C59      1.0000 0.74499  0.72283  0.63172  Biso   1.000  C
  H46      1.0000 0.74590  0.71360  0.65590  Biso   1.000  H
  C60      1.0000 0.66671  0.73394  0.61486  Biso   1.000  C
  C61      1.0000 0.67080  0.74658  0.57870  Biso   1.000  C
  H47      1.0000 0.62030  0.75300  0.56590  Biso   1.000  H
  C62      1.0000 0.75049  0.74963  0.56177  Biso   1.000  C
  H48      1.0000 0.75190  0.75950  0.53770  Biso   1.000  H
  N11      1.0000 0.95916  0.70879  0.50120  Biso   1.000  N
  N12      1.0000 0.00844  0.55852  0.35054  Biso   1.000  N
  C63      1.0000 0.03398  0.68502  0.44787  Biso   1.000  C
  H49      1.0000 0.07990  0.68970  0.43190  Biso   1.000  H
  C64      1.0000 0.02353  0.71380  0.47724  Biso   1.000  C
  H50      1.0000 0.06310  0.73800  0.48070  Biso   1.000  H
  C65      1.0000 0.90402  0.67357  0.49574  Biso   1.000  C
  H51      1.0000 0.85910  0.66950  0.51230  Biso   1.000  H
  C66      1.0000 0.90978  0.64291  0.46699  Biso   1.000  C
  H52      1.0000 0.87000  0.61870  0.46440  Biso   1.000  H
  C67      1.0000 0.97586  0.64879  0.44197  Biso   1.000  C
  C68      1.0000 0.98486  0.61767  0.40994  Biso   1.000  C
  C69      1.0000 0.00980  0.63485  0.37649  Biso   1.000  C
  H53      1.0000 0.01900  0.66680  0.37340  Biso   1.000  H
  C70      1.0000 0.02107  0.60439  0.34768  Biso   1.000  C
  H54      1.0000 0.03820  0.61650  0.32540  Biso   1.000  H
  C71      1.0000 0.98248  0.54229  0.38247  Biso   1.000  C
  H55      1.0000 0.97250  0.51030  0.38460  Biso   1.000  H
  C72      1.0000 0.96943  0.56989  0.41256  Biso   1.000  C
  H56      1.0000 0.95060  0.55680  0.43430  Biso   1.000  H
  Cd5      1.0000 0.28864  0.49187  0.55228  Biso   1.000  Cd
  O9       1.0000 0.38010  0.43442  0.52055  Biso   1.000  O
  O10      1.0000 0.24123  0.43382  0.50995  Biso   1.000  O
  C73      1.0000 0.31686  0.42037  0.50299  Biso   1.000  C
  C74      1.0000 0.33161  0.38676  0.47207  Biso   1.000  C
  C75      1.0000 0.26800  0.38330  0.44927  Biso   1.000  C
  H57      1.0000 0.27290  0.36370  0.42920  Biso   1.000  H
  H58      1.0000 0.21740  0.40040  0.45300  Biso   1.000  H
  N13      1.0000 0.42504  0.51066  0.57774  Biso   1.000  N
  C76      1.0000 0.42945  0.52436  0.61231  Biso   1.000  C
  H59      1.0000 0.37810  0.53250  0.62390  Biso   1.000  H
  C77      1.0000 0.50501  0.52717  0.63172  Biso   1.000  C
  H60      1.0000 0.50410  0.53640  0.65590  Biso   1.000  H
  C78      1.0000 0.58329  0.51606  0.61486  Biso   1.000  C
  C79      1.0000 0.57920  0.50342  0.57870  Biso   1.000  C
  H61      1.0000 0.62970  0.49700  0.56590  Biso   1.000  H
  C80      1.0000 0.49951  0.50037  0.56177  Biso   1.000  C
  H62      1.0000 0.49810  0.49050  0.53770  Biso   1.000  H
  N14      1.0000 0.29084  0.54121  0.50120  Biso   1.000  N
  N15      1.0000 0.24156  0.69148  0.35054  Biso   1.000  N
  C81      1.0000 0.21602  0.56498  0.44787  Biso   1.000  C
  H63      1.0000 0.17010  0.56030  0.43190  Biso   1.000  H
  C82      1.0000 0.22647  0.53620  0.47724  Biso   1.000  C
  H64      1.0000 0.18690  0.51200  0.48070  Biso   1.000  H
  C83      1.0000 0.34598  0.57643  0.49574  Biso   1.000  C
  H65      1.0000 0.39090  0.58050  0.51230  Biso   1.000  H
  C84      1.0000 0.34022  0.60709  0.46699  Biso   1.000  C
  H66      1.0000 0.38000  0.63130  0.46440  Biso   1.000  H
  C85      1.0000 0.27414  0.60121  0.44197  Biso   1.000  C
  C86      1.0000 0.26514  0.63233  0.40994  Biso   1.000  C
  C87      1.0000 0.24020  0.61515  0.37649  Biso   1.000  C
  H67      1.0000 0.23100  0.58320  0.37340  Biso   1.000  H
  C88      1.0000 0.22893  0.64561  0.34768  Biso   1.000  C
  H68      1.0000 0.21180  0.63350  0.32540  Biso   1.000  H
  C89      1.0000 0.26752  0.70771  0.38247  Biso   1.000  C
  H69      1.0000 0.27750  0.73970  0.38460  Biso   1.000  H
  C90      1.0000 0.28057  0.68011  0.41256  Biso   1.000  C
  H70      1.0000 0.29940  0.69320  0.43430  Biso   1.000  H
  Cd6      1.0000 0.28864  0.99187  0.05228  Biso   1.000  Cd
  O11      1.0000 0.38010  0.93442  0.02055  Biso   1.000  O
  O12      1.0000 0.24123  0.93382  0.00995  Biso   1.000  O
  C91      1.0000 0.31686  0.92037  0.00299  Biso   1.000  C
  C92      1.0000 0.33161  0.88676  0.97207  Biso   1.000  C
  C93      1.0000 0.26800  0.88330  0.94927  Biso   1.000  C
  H71      1.0000 0.27290  0.86370  0.92920  Biso   1.000  H
  H72      1.0000 0.21740  0.90040  0.95300  Biso   1.000  H
  N16      1.0000 0.42504  0.01066  0.07774  Biso   1.000  N
  C94      1.0000 0.42945  0.02436  0.11231  Biso   1.000  C
  H73      1.0000 0.37810  0.03250  0.12390  Biso   1.000  H
  C95      1.0000 0.50501  0.02717  0.13172  Biso   1.000  C
  H74      1.0000 0.50410  0.03640  0.15590  Biso   1.000  H
  C96      1.0000 0.58329  0.01606  0.11486  Biso   1.000  C
  C97      1.0000 0.57920  0.00342  0.07870  Biso   1.000  C
  H75      1.0000 0.62970  0.99700  0.06590  Biso   1.000  H
  C98      1.0000 0.49951  0.00037  0.06177  Biso   1.000  C
  H76      1.0000 0.49810  0.99050  0.03770  Biso   1.000  H
  N17      1.0000 0.29084  0.04121  0.00120  Biso   1.000  N
  N18      1.0000 0.24156  0.19148  0.85054  Biso   1.000  N
  C99      1.0000 0.21602  0.06498  0.94787  Biso   1.000  C
  H77      1.0000 0.17010  0.06030  0.93190  Biso   1.000  H
  C100     1.0000 0.22647  0.03620  0.97724  Biso   1.000  C
  H78      1.0000 0.18690  0.01200  0.98070  Biso   1.000  H
  C101     1.0000 0.34598  0.07643  0.99574  Biso   1.000  C
  H79      1.0000 0.39090  0.08050  0.01230  Biso   1.000  H
  C102     1.0000 0.34022  0.10709  0.96699  Biso   1.000  C
  H80      1.0000 0.38000  0.13130  0.96440  Biso   1.000  H
  C103     1.0000 0.27414  0.10121  0.94197  Biso   1.000  C
  C104     1.0000 0.26514  0.13233  0.90994  Biso   1.000  C
  C105     1.0000 0.24020  0.11515  0.87649  Biso   1.000  C
  H81      1.0000 0.23100  0.08320  0.87340  Biso   1.000  H
  C106     1.0000 0.22893  0.14561  0.84768  Biso   1.000  C
  H82      1.0000 0.21180  0.13350  0.82540  Biso   1.000  H
  C107     1.0000 0.26752  0.20771  0.88247  Biso   1.000  C
  H83      1.0000 0.27750  0.23970  0.88460  Biso   1.000  H
  C108     1.0000 0.28057  0.18011  0.91256  Biso   1.000  C
  H84      1.0000 0.29940  0.19320  0.93430  Biso   1.000  H
  Cd7      1.0000 0.78864  0.49187  0.05228  Biso   1.000  Cd
  O13      1.0000 0.88010  0.43442  0.02055  Biso   1.000  O
  O14      1.0000 0.74123  0.43382  0.00995  Biso   1.000  O
  C109     1.0000 0.81686  0.42037  0.00299  Biso   1.000  C
  C110     1.0000 0.83161  0.38676  0.97207  Biso   1.000  C
  C111     1.0000 0.76800  0.38330  0.94927  Biso   1.000  C
  H85      1.0000 0.77290  0.36370  0.92920  Biso   1.000  H
  H86      1.0000 0.71740  0.40040  0.95300  Biso   1.000  H
  N19      1.0000 0.92504  0.51066  0.07774  Biso   1.000  N
  C112     1.0000 0.92945  0.52436  0.11231  Biso   1.000  C
  H87      1.0000 0.87810  0.53250  0.12390  Biso   1.000  H
  C113     1.0000 0.00501  0.52717  0.13172  Biso   1.000  C
  H88      1.0000 0.00410  0.53640  0.15590  Biso   1.000  H
  C114     1.0000 0.08329  0.51606  0.11486  Biso   1.000  C
  C115     1.0000 0.07920  0.50342  0.07870  Biso   1.000  C
  H89      1.0000 0.12970  0.49700  0.06590  Biso   1.000  H
  C116     1.0000 0.99951  0.50037  0.06177  Biso   1.000  C
  H90      1.0000 0.99810  0.49050  0.03770  Biso   1.000  H
  N20      1.0000 0.79084  0.54121  0.00120  Biso   1.000  N
  N21      1.0000 0.74156  0.69148  0.85054  Biso   1.000  N
  C117     1.0000 0.71602  0.56498  0.94787  Biso   1.000  C
  H91      1.0000 0.67010  0.56030  0.93190  Biso   1.000  H
  C118     1.0000 0.72647  0.53620  0.97724  Biso   1.000  C
  H92      1.0000 0.68690  0.51200  0.98070  Biso   1.000  H
  C119     1.0000 0.84598  0.57643  0.99574  Biso   1.000  C
  H93      1.0000 0.89090  0.58050  0.01230  Biso   1.000  H
  C120     1.0000 0.84022  0.60709  0.96699  Biso   1.000  C
  H94      1.0000 0.88000  0.63130  0.96440  Biso   1.000  H
  C121     1.0000 0.77414  0.60121  0.94197  Biso   1.000  C
  C122     1.0000 0.76514  0.63233  0.90994  Biso   1.000  C
  C123     1.0000 0.74020  0.61515  0.87649  Biso   1.000  C
  H95      1.0000 0.73100  0.58320  0.87340  Biso   1.000  H
  C124     1.0000 0.72893  0.64561  0.84768  Biso   1.000  C
  H96      1.0000 0.71180  0.63350  0.82540  Biso   1.000  H
  C125     1.0000 0.76752  0.70771  0.88247  Biso   1.000  C
  H97      1.0000 0.77750  0.73970  0.88460  Biso   1.000  H
  C126     1.0000 0.78057  0.68011  0.91256  Biso   1.000  C
  H98      1.0000 0.79940  0.69320  0.93430  Biso   1.000  H
  Cd8      1.0000 0.78864  0.99187  0.55228  Biso   1.000  Cd
  O15      1.0000 0.88010  0.93442  0.52055  Biso   1.000  O
  O16      1.0000 0.74123  0.93382  0.50995  Biso   1.000  O
  C127     1.0000 0.81686  0.92037  0.50299  Biso   1.000  C
  C128     1.0000 0.83161  0.88676  0.47207  Biso   1.000  C
  C129     1.0000 0.76800  0.88330  0.44927  Biso   1.000  C
  H99      1.0000 0.77290  0.86370  0.42920  Biso   1.000  H
  H100     1.0000 0.71740  0.90040  0.45300  Biso   1.000  H
  N22      1.0000 0.92504  0.01066  0.57774  Biso   1.000  N
  C130     1.0000 0.92945  0.02436  0.61231  Biso   1.000  C
  H101     1.0000 0.87810  0.03250  0.62390  Biso   1.000  H
  C131     1.0000 0.00501  0.02717  0.63172  Biso   1.000  C
  H102     1.0000 0.00410  0.03640  0.65590  Biso   1.000  H
  C132     1.0000 0.08329  0.01606  0.61486  Biso   1.000  C
  C133     1.0000 0.07920  0.00342  0.57870  Biso   1.000  C
  H103     1.0000 0.12970  0.99700  0.56590  Biso   1.000  H
  C134     1.0000 0.99951  0.00037  0.56177  Biso   1.000  C
  H104     1.0000 0.99810  0.99050  0.53770  Biso   1.000  H
  N23      1.0000 0.79084  0.04121  0.50120  Biso   1.000  N
  N24      1.0000 0.74156  0.19148  0.35054  Biso   1.000  N
  C135     1.0000 0.71602  0.06498  0.44787  Biso   1.000  C
  H105     1.0000 0.67010  0.06030  0.43190  Biso   1.000  H
  C136     1.0000 0.72647  0.03620  0.47724  Biso   1.000  C
  H106     1.0000 0.68690  0.01200  0.48070  Biso   1.000  H
  C137     1.0000 0.84598  0.07643  0.49574  Biso   1.000  C
  H107     1.0000 0.89090  0.08050  0.51230  Biso   1.000  H
  C138     1.0000 0.84022  0.10709  0.46699  Biso   1.000  C
  H108     1.0000 0.88000  0.13130  0.46440  Biso   1.000  H
  C139     1.0000 0.77414  0.10121  0.44197  Biso   1.000  C
  C140     1.0000 0.76514  0.13233  0.40994  Biso   1.000  C
  C141     1.0000 0.74020  0.11515  0.37649  Biso   1.000  C
  H109     1.0000 0.73100  0.08320  0.37340  Biso   1.000  H
  C142     1.0000 0.72893  0.14561  0.34768  Biso   1.000  C
  H110     1.0000 0.71180  0.13350  0.32540  Biso   1.000  H
  C143     1.0000 0.76752  0.20771  0.38247  Biso   1.000  C
  H111     1.0000 0.77750  0.23970  0.38460  Biso   1.000  H
  C144     1.0000 0.78057  0.18011  0.41256  Biso   1.000  C
  H112     1.0000 0.79940  0.19320  0.43430  Biso   1.000  H
  Cd9      1.0000 0.28864  0.25813  0.19772  Biso   1.000  Cd
  O17      1.0000 0.38010  0.31558  0.22945  Biso   1.000  O
  O18      1.0000 0.24123  0.31618  0.24005  Biso   1.000  O
  C145     1.0000 0.31686  0.32963  0.24701  Biso   1.000  C
  C146     1.0000 0.33161  0.36324  0.27793  Biso   1.000  C
  C147     1.0000 0.26800  0.36670  0.30073  Biso   1.000  C
  H113     1.0000 0.27290  0.38630  0.32080  Biso   1.000  H
  H114     1.0000 0.21740  0.34960  0.29700  Biso   1.000  H
  N25      1.0000 0.42504  0.23934  0.17226  Biso   1.000  N
  C148     1.0000 0.42945  0.22564  0.13769  Biso   1.000  C
  H115     1.0000 0.37810  0.21750  0.12610  Biso   1.000  H
  C149     1.0000 0.50501  0.22283  0.11828  Biso   1.000  C
  H116     1.0000 0.50410  0.21360  0.09410  Biso   1.000  H
  C150     1.0000 0.58329  0.23394  0.13514  Biso   1.000  C
  C151     1.0000 0.57920  0.24658  0.17130  Biso   1.000  C
  H117     1.0000 0.62970  0.25300  0.18410  Biso   1.000  H
  C152     1.0000 0.49951  0.24963  0.18823  Biso   1.000  C
  H118     1.0000 0.49810  0.25950  0.21230  Biso   1.000  H
  N26      1.0000 0.29084  0.20879  0.24880  Biso   1.000  N
  N27      1.0000 0.24156  0.05852  0.39946  Biso   1.000  N
  C153     1.0000 0.21602  0.18502  0.30213  Biso   1.000  C
  H119     1.0000 0.17010  0.18970  0.31810  Biso   1.000  H
  C154     1.0000 0.22647  0.21380  0.27276  Biso   1.000  C
  H120     1.0000 0.18690  0.23800  0.26930  Biso   1.000  H
  C155     1.0000 0.34598  0.17357  0.25426  Biso   1.000  C
  H121     1.0000 0.39090  0.16950  0.23770  Biso   1.000  H
  C156     1.0000 0.34022  0.14291  0.28301  Biso   1.000  C
  H122     1.0000 0.38000  0.11870  0.28560  Biso   1.000  H
  C157     1.0000 0.27414  0.14879  0.30803  Biso   1.000  C
  C158     1.0000 0.26514  0.11767  0.34006  Biso   1.000  C
  C159     1.0000 0.24020  0.13485  0.37351  Biso   1.000  C
  H123     1.0000 0.23100  0.16680  0.37660  Biso   1.000  H
  C160     1.0000 0.22893  0.10439  0.40232  Biso   1.000  C
  H124     1.0000 0.21180  0.11650  0.42460  Biso   1.000  H
  C161     1.0000 0.26752  0.04229  0.36753  Biso   1.000  C
  H125     1.0000 0.27750  0.01030  0.36540  Biso   1.000  H
  C162     1.0000 0.28057  0.06989  0.33744  Biso   1.000  C
  H126     1.0000 0.29940  0.05680  0.31570  Biso   1.000  H
  Cd10     1.0000 0.28864  0.75813  0.69772  Biso   1.000  Cd
  O19      1.0000 0.38010  0.81558  0.72945  Biso   1.000  O
  O20      1.0000 0.24123  0.81618  0.74005  Biso   1.000  O
  C163     1.0000 0.31686  0.82963  0.74701  Biso   1.000  C
  C164     1.0000 0.33161  0.86324  0.77793  Biso   1.000  C
  C165     1.0000 0.26800  0.86670  0.80073  Biso   1.000  C
  H127     1.0000 0.27290  0.88630  0.82080  Biso   1.000  H
  H128     1.0000 0.21740  0.84960  0.79700  Biso   1.000  H
  N28      1.0000 0.42504  0.73934  0.67226  Biso   1.000  N
  C166     1.0000 0.42945  0.72564  0.63769  Biso   1.000  C
  H129     1.0000 0.37810  0.71750  0.62610  Biso   1.000  H
  C167     1.0000 0.50501  0.72283  0.61828  Biso   1.000  C
  H130     1.0000 0.50410  0.71360  0.59410  Biso   1.000  H
  C168     1.0000 0.58329  0.73394  0.63514  Biso   1.000  C
  C169     1.0000 0.57920  0.74658  0.67130  Biso   1.000  C
  H131     1.0000 0.62970  0.75300  0.68410  Biso   1.000  H
  C170     1.0000 0.49951  0.74963  0.68823  Biso   1.000  C
  H132     1.0000 0.49810  0.75950  0.71230  Biso   1.000  H
  N29      1.0000 0.29084  0.70879  0.74880  Biso   1.000  N
  N30      1.0000 0.24156  0.55852  0.89946  Biso   1.000  N
  C171     1.0000 0.21602  0.68502  0.80213  Biso   1.000  C
  H133     1.0000 0.17010  0.68970  0.81810  Biso   1.000  H
  C172     1.0000 0.22647  0.71380  0.77276  Biso   1.000  C
  H134     1.0000 0.18690  0.73800  0.76930  Biso   1.000  H
  C173     1.0000 0.34598  0.67357  0.75426  Biso   1.000  C
  H135     1.0000 0.39090  0.66950  0.73770  Biso   1.000  H
  C174     1.0000 0.34022  0.64291  0.78301  Biso   1.000  C
  H136     1.0000 0.38000  0.61870  0.78560  Biso   1.000  H
  C175     1.0000 0.27414  0.64879  0.80803  Biso   1.000  C
  C176     1.0000 0.26514  0.61767  0.84006  Biso   1.000  C
  C177     1.0000 0.24020  0.63485  0.87351  Biso   1.000  C
  H137     1.0000 0.23100  0.66680  0.87660  Biso   1.000  H
  C178     1.0000 0.22893  0.60439  0.90232  Biso   1.000  C
  H138     1.0000 0.21180  0.61650  0.92460  Biso   1.000  H
  C179     1.0000 0.26752  0.54229  0.86753  Biso   1.000  C
  H139     1.0000 0.27750  0.51030  0.86540  Biso   1.000  H
  C180     1.0000 0.28057  0.56989  0.83744  Biso   1.000  C
  H140     1.0000 0.29940  0.55680  0.81570  Biso   1.000  H
  Cd11     1.0000 0.78864  0.25813  0.69772  Biso   1.000  Cd
  O21      1.0000 0.88010  0.31558  0.72945  Biso   1.000  O
  O22      1.0000 0.74123  0.31618  0.74005  Biso   1.000  O
  C181     1.0000 0.81686  0.32963  0.74701  Biso   1.000  C
  C182     1.0000 0.83161  0.36324  0.77793  Biso   1.000  C
  C183     1.0000 0.76800  0.36670  0.80073  Biso   1.000  C
  H141     1.0000 0.77290  0.38630  0.82080  Biso   1.000  H
  H142     1.0000 0.71740  0.34960  0.79700  Biso   1.000  H
  N31      1.0000 0.92504  0.23934  0.67226  Biso   1.000  N
  C184     1.0000 0.92945  0.22564  0.63769  Biso   1.000  C
  H143     1.0000 0.87810  0.21750  0.62610  Biso   1.000  H
  C185     1.0000 0.00501  0.22283  0.61828  Biso   1.000  C
  H144     1.0000 0.00410  0.21360  0.59410  Biso   1.000  H
  C186     1.0000 0.08329  0.23394  0.63514  Biso   1.000  C
  C187     1.0000 0.07920  0.24658  0.67130  Biso   1.000  C
  H145     1.0000 0.12970  0.25300  0.68410  Biso   1.000  H
  C188     1.0000 0.99951  0.24963  0.68823  Biso   1.000  C
  H146     1.0000 0.99810  0.25950  0.71230  Biso   1.000  H
  N32      1.0000 0.79084  0.20879  0.74880  Biso   1.000  N
  N33      1.0000 0.74156  0.05852  0.89946  Biso   1.000  N
  C189     1.0000 0.71602  0.18502  0.80213  Biso   1.000  C
  H147     1.0000 0.67010  0.18970  0.81810  Biso   1.000  H
  C190     1.0000 0.72647  0.21380  0.77276  Biso   1.000  C
  H148     1.0000 0.68690  0.23800  0.76930  Biso   1.000  H
  C191     1.0000 0.84598  0.17357  0.75426  Biso   1.000  C
  H149     1.0000 0.89090  0.16950  0.73770  Biso   1.000  H
  C192     1.0000 0.84022  0.14291  0.78301  Biso   1.000  C
  H150     1.0000 0.88000  0.11870  0.78560  Biso   1.000  H
  C193     1.0000 0.77414  0.14879  0.80803  Biso   1.000  C
  C194     1.0000 0.76514  0.11767  0.84006  Biso   1.000  C
  C195     1.0000 0.74020  0.13485  0.87351  Biso   1.000  C
  H151     1.0000 0.73100  0.16680  0.87660  Biso   1.000  H
  C196     1.0000 0.72893  0.10439  0.90232  Biso   1.000  C
  H152     1.0000 0.71180  0.11650  0.92460  Biso   1.000  H
  C197     1.0000 0.76752  0.04229  0.86753  Biso   1.000  C
  H153     1.0000 0.77750  0.01030  0.86540  Biso   1.000  H
  C198     1.0000 0.78057  0.06989  0.83744  Biso   1.000  C
  H154     1.0000 0.79940  0.05680  0.81570  Biso   1.000  H
  Cd12     1.0000 0.78864  0.75813  0.19772  Biso   1.000  Cd
  O23      1.0000 0.88010  0.81558  0.22945  Biso   1.000  O
  O24      1.0000 0.74123  0.81618  0.24005  Biso   1.000  O
  C199     1.0000 0.81686  0.82963  0.24701  Biso   1.000  C
  C200     1.0000 0.83161  0.86324  0.27793  Biso   1.000  C
  C201     1.0000 0.76800  0.86670  0.30073  Biso   1.000  C
  H155     1.0000 0.77290  0.88630  0.32080  Biso   1.000  H
  H156     1.0000 0.71740  0.84960  0.29700  Biso   1.000  H
  N34      1.0000 0.92504  0.73934  0.17226  Biso   1.000  N
  C202     1.0000 0.92945  0.72564  0.13769  Biso   1.000  C
  H157     1.0000 0.87810  0.71750  0.12610  Biso   1.000  H
  C203     1.0000 0.00501  0.72283  0.11828  Biso   1.000  C
  H158     1.0000 0.00410  0.71360  0.09410  Biso   1.000  H
  C204     1.0000 0.08329  0.73394  0.13514  Biso   1.000  C
  C205     1.0000 0.07920  0.74658  0.17130  Biso   1.000  C
  H159     1.0000 0.12970  0.75300  0.18410  Biso   1.000  H
  C206     1.0000 0.99951  0.74963  0.18823  Biso   1.000  C
  H160     1.0000 0.99810  0.75950  0.21230  Biso   1.000  H
  N35      1.0000 0.79084  0.70879  0.24880  Biso   1.000  N
  N36      1.0000 0.74156  0.55852  0.39946  Biso   1.000  N
  C207     1.0000 0.71602  0.68502  0.30213  Biso   1.000  C
  H161     1.0000 0.67010  0.68970  0.31810  Biso   1.000  H
  C208     1.0000 0.72647  0.71380  0.27276  Biso   1.000  C
  H162     1.0000 0.68690  0.73800  0.26930  Biso   1.000  H
  C209     1.0000 0.84598  0.67357  0.25426  Biso   1.000  C
  H163     1.0000 0.89090  0.66950  0.23770  Biso   1.000  H
  C210     1.0000 0.84022  0.64291  0.28301  Biso   1.000  C
  H164     1.0000 0.88000  0.61870  0.28560  Biso   1.000  H
  C211     1.0000 0.77414  0.64879  0.30803  Biso   1.000  C
  C212     1.0000 0.76514  0.61767  0.34006  Biso   1.000  C
  C213     1.0000 0.74020  0.63485  0.37351  Biso   1.000  C
  H165     1.0000 0.73100  0.66680  0.37660  Biso   1.000  H
  C214     1.0000 0.72893  0.60439  0.40232  Biso   1.000  C
  H166     1.0000 0.71180  0.61650  0.42460  Biso   1.000  H
  C215     1.0000 0.76752  0.54229  0.36753  Biso   1.000  C
  H167     1.0000 0.77750  0.51030  0.36540  Biso   1.000  H
  C216     1.0000 0.78057  0.56989  0.33744  Biso   1.000  C
  H168     1.0000 0.79940  0.55680  0.31570  Biso   1.000  H
  Cd13     1.0000 0.46136  0.49187  0.19772  Biso   1.000  Cd
  O25      1.0000 0.36990  0.43442  0.22945  Biso   1.000  O
  O26      1.0000 0.50877  0.43382  0.24005  Biso   1.000  O
  C217     1.0000 0.43314  0.42037  0.24701  Biso   1.000  C
  C218     1.0000 0.41839  0.38676  0.27793  Biso   1.000  C
  C219     1.0000 0.48200  0.38330  0.30073  Biso   1.000  C
  H169     1.0000 0.47710  0.36370  0.32080  Biso   1.000  H
  H170     1.0000 0.53260  0.40040  0.29700  Biso   1.000  H
  N37      1.0000 0.32496  0.51066  0.17226  Biso   1.000  N
  C220     1.0000 0.32055  0.52436  0.13769  Biso   1.000  C
  H171     1.0000 0.37190  0.53250  0.12610  Biso   1.000  H
  C221     1.0000 0.24499  0.52717  0.11828  Biso   1.000  C
  H172     1.0000 0.24590  0.53640  0.09410  Biso   1.000  H
  C222     1.0000 0.16671  0.51606  0.13514  Biso   1.000  C
  C223     1.0000 0.17080  0.50342  0.17130  Biso   1.000  C
  H173     1.0000 0.12030  0.49700  0.18410  Biso   1.000  H
  C224     1.0000 0.25049  0.50037  0.18823  Biso   1.000  C
  H174     1.0000 0.25190  0.49050  0.21230  Biso   1.000  H
  N38      1.0000 0.45916  0.54121  0.24880  Biso   1.000  N
  N39      1.0000 0.50844  0.69148  0.39946  Biso   1.000  N
  C225     1.0000 0.53398  0.56498  0.30213  Biso   1.000  C
  H175     1.0000 0.57990  0.56030  0.31810  Biso   1.000  H
  C226     1.0000 0.52353  0.53620  0.27276  Biso   1.000  C
  H176     1.0000 0.56310  0.51200  0.26930  Biso   1.000  H
  C227     1.0000 0.40402  0.57643  0.25426  Biso   1.000  C
  H177     1.0000 0.35910  0.58050  0.23770  Biso   1.000  H
  C228     1.0000 0.40978  0.60709  0.28301  Biso   1.000  C
  H178     1.0000 0.37000  0.63130  0.28560  Biso   1.000  H
  C229     1.0000 0.47586  0.60121  0.30803  Biso   1.000  C
  C230     1.0000 0.48486  0.63233  0.34006  Biso   1.000  C
  C231     1.0000 0.50980  0.61515  0.37351  Biso   1.000  C
  H179     1.0000 0.51900  0.58320  0.37660  Biso   1.000  H
  C232     1.0000 0.52107  0.64561  0.40232  Biso   1.000  C
  H180     1.0000 0.53820  0.63350  0.42460  Biso   1.000  H
  C233     1.0000 0.48248  0.70771  0.36753  Biso   1.000  C
  H181     1.0000 0.47250  0.73970  0.36540  Biso   1.000  H
  C234     1.0000 0.46943  0.68011  0.33744  Biso   1.000  C
  H182     1.0000 0.45060  0.69320  0.31570  Biso   1.000  H
  Cd14     1.0000 0.46136  0.99187  0.69772  Biso   1.000  Cd
  O27      1.0000 0.36990  0.93442  0.72945  Biso   1.000  O
  O28      1.0000 0.50877  0.93382  0.74005  Biso   1.000  O
  C235     1.0000 0.43314  0.92037  0.74701  Biso   1.000  C
  C236     1.0000 0.41839  0.88676  0.77793  Biso   1.000  C
  C237     1.0000 0.48200  0.88330  0.80073  Biso   1.000  C
  H183     1.0000 0.47710  0.86370  0.82080  Biso   1.000  H
  H184     1.0000 0.53260  0.90040  0.79700  Biso   1.000  H
  N40      1.0000 0.32496  0.01066  0.67226  Biso   1.000  N
  C238     1.0000 0.32055  0.02436  0.63769  Biso   1.000  C
  H185     1.0000 0.37190  0.03250  0.62610  Biso   1.000  H
  C239     1.0000 0.24499  0.02717  0.61828  Biso   1.000  C
  H186     1.0000 0.24590  0.03640  0.59410  Biso   1.000  H
  C240     1.0000 0.16671  0.01606  0.63514  Biso   1.000  C
  C241     1.0000 0.17080  0.00342  0.67130  Biso   1.000  C
  H187     1.0000 0.12030  0.99700  0.68410  Biso   1.000  H
  C242     1.0000 0.25049  0.00037  0.68823  Biso   1.000  C
  H188     1.0000 0.25190  0.99050  0.71230  Biso   1.000  H
  N41      1.0000 0.45916  0.04121  0.74880  Biso   1.000  N
  N42      1.0000 0.50844  0.19148  0.89946  Biso   1.000  N
  C243     1.0000 0.53398  0.06498  0.80213  Biso   1.000  C
  H189     1.0000 0.57990  0.06030  0.81810  Biso   1.000  H
  C244     1.0000 0.52353  0.03620  0.77276  Biso   1.000  C
  H190     1.0000 0.56310  0.01200  0.76930  Biso   1.000  H
  C245     1.0000 0.40402  0.07643  0.75426  Biso   1.000  C
  H191     1.0000 0.35910  0.08050  0.73770  Biso   1.000  H
  C246     1.0000 0.40978  0.10709  0.78301  Biso   1.000  C
  H192     1.0000 0.37000  0.13130  0.78560  Biso   1.000  H
  C247     1.0000 0.47586  0.10121  0.80803  Biso   1.000  C
  C248     1.0000 0.48486  0.13233  0.84006  Biso   1.000  C
  C249     1.0000 0.50980  0.11515  0.87351  Biso   1.000  C
  H193     1.0000 0.51900  0.08320  0.87660  Biso   1.000  H
  C250     1.0000 0.52107  0.14561  0.90232  Biso   1.000  C
  H194     1.0000 0.53820  0.13350  0.92460  Biso   1.000  H
  C251     1.0000 0.48248  0.20771  0.86753  Biso   1.000  C
  H195     1.0000 0.47250  0.23970  0.86540  Biso   1.000  H
  C252     1.0000 0.46943  0.18011  0.83744  Biso   1.000  C
  H196     1.0000 0.45060  0.19320  0.81570  Biso   1.000  H
  Cd15     1.0000 0.96136  0.49187  0.69772  Biso   1.000  Cd
  O29      1.0000 0.86990  0.43442  0.72945  Biso   1.000  O
  O30      1.0000 0.00877  0.43382  0.74005  Biso   1.000  O
  C253     1.0000 0.93314  0.42037  0.74701  Biso   1.000  C
  C254     1.0000 0.91839  0.38676  0.77793  Biso   1.000  C
  C255     1.0000 0.98200  0.38330  0.80073  Biso   1.000  C
  H197     1.0000 0.97710  0.36370  0.82080  Biso   1.000  H
  H198     1.0000 0.03260  0.40040  0.79700  Biso   1.000  H
  N43      1.0000 0.82496  0.51066  0.67226  Biso   1.000  N
  C256     1.0000 0.82055  0.52436  0.63769  Biso   1.000  C
  H199     1.0000 0.87190  0.53250  0.62610  Biso   1.000  H
  C257     1.0000 0.74499  0.52717  0.61828  Biso   1.000  C
  H200     1.0000 0.74590  0.53640  0.59410  Biso   1.000  H
  C258     1.0000 0.66671  0.51606  0.63514  Biso   1.000  C
  C259     1.0000 0.67080  0.50342  0.67130  Biso   1.000  C
  H201     1.0000 0.62030  0.49700  0.68410  Biso   1.000  H
  C260     1.0000 0.75049  0.50037  0.68823  Biso   1.000  C
  H202     1.0000 0.75190  0.49050  0.71230  Biso   1.000  H
  N44      1.0000 0.95916  0.54121  0.74880  Biso   1.000  N
  N45      1.0000 0.00844  0.69148  0.89946  Biso   1.000  N
  C261     1.0000 0.03398  0.56498  0.80213  Biso   1.000  C
  H203     1.0000 0.07990  0.56030  0.81810  Biso   1.000  H
  C262     1.0000 0.02353  0.53620  0.77276  Biso   1.000  C
  H204     1.0000 0.06310  0.51200  0.76930  Biso   1.000  H
  C263     1.0000 0.90402  0.57643  0.75426  Biso   1.000  C
  H205     1.0000 0.85910  0.58050  0.73770  Biso   1.000  H
  C264     1.0000 0.90978  0.60709  0.78301  Biso   1.000  C
  H206     1.0000 0.87000  0.63130  0.78560  Biso   1.000  H
  C265     1.0000 0.97586  0.60121  0.80803  Biso   1.000  C
  C266     1.0000 0.98486  0.63233  0.84006  Biso   1.000  C
  C267     1.0000 0.00980  0.61515  0.87351  Biso   1.000  C
  H207     1.0000 0.01900  0.58320  0.87660  Biso   1.000  H
  C268     1.0000 0.02107  0.64561  0.90232  Biso   1.000  C
  H208     1.0000 0.03820  0.63350  0.92460  Biso   1.000  H
  C269     1.0000 0.98248  0.70771  0.86753  Biso   1.000  C
  H209     1.0000 0.97250  0.73970  0.86540  Biso   1.000  H
  C270     1.0000 0.96943  0.68011  0.83744  Biso   1.000  C
  H210     1.0000 0.95060  0.69320  0.81570  Biso   1.000  H
  Cd16     1.0000 0.96136  0.99187  0.19772  Biso   1.000  Cd
  O31      1.0000 0.86990  0.93442  0.22945  Biso   1.000  O
  O32      1.0000 0.00877  0.93382  0.24005  Biso   1.000  O
  C271     1.0000 0.93314  0.92037  0.24701  Biso   1.000  C
  C272     1.0000 0.91839  0.88676  0.27793  Biso   1.000  C
  C273     1.0000 0.98200  0.88330  0.30073  Biso   1.000  C
  H211     1.0000 0.97710  0.86370  0.32080  Biso   1.000  H
  H212     1.0000 0.03260  0.90040  0.29700  Biso   1.000  H
  N46      1.0000 0.82496  0.01066  0.17226  Biso   1.000  N
  C274     1.0000 0.82055  0.02436  0.13769  Biso   1.000  C
  H213     1.0000 0.87190  0.03250  0.12610  Biso   1.000  H
  C275     1.0000 0.74499  0.02717  0.11828  Biso   1.000  C
  H214     1.0000 0.74590  0.03640  0.09410  Biso   1.000  H
  C276     1.0000 0.66671  0.01606  0.13514  Biso   1.000  C
  C277     1.0000 0.67080  0.00342  0.17130  Biso   1.000  C
  H215     1.0000 0.62030  0.99700  0.18410  Biso   1.000  H
  C278     1.0000 0.75049  0.00037  0.18823  Biso   1.000  C
  H216     1.0000 0.75190  0.99050  0.21230  Biso   1.000  H
  N47      1.0000 0.95916  0.04121  0.24880  Biso   1.000  N
  N48      1.0000 0.00844  0.19148  0.39946  Biso   1.000  N
  C279     1.0000 0.03398  0.06498  0.30213  Biso   1.000  C
  H217     1.0000 0.07990  0.06030  0.31810  Biso   1.000  H
  C280     1.0000 0.02353  0.03620  0.27276  Biso   1.000  C
  H218     1.0000 0.06310  0.01200  0.26930  Biso   1.000  H
  C281     1.0000 0.90402  0.07643  0.25426  Biso   1.000  C
  H219     1.0000 0.85910  0.08050  0.23770  Biso   1.000  H
  C282     1.0000 0.90978  0.10709  0.28301  Biso   1.000  C
  H220     1.0000 0.87000  0.13130  0.28560  Biso   1.000  H
  C283     1.0000 0.97586  0.10121  0.30803  Biso   1.000  C
  C284     1.0000 0.98486  0.13233  0.34006  Biso   1.000  C
  C285     1.0000 0.00980  0.11515  0.37351  Biso   1.000  C
  H221     1.0000 0.01900  0.08320  0.37660  Biso   1.000  H
  C286     1.0000 0.02107  0.14561  0.40232  Biso   1.000  C
  H222     1.0000 0.03820  0.13350  0.42460  Biso   1.000  H
  C287     1.0000 0.98248  0.20771  0.36753  Biso   1.000  C
  H223     1.0000 0.97250  0.23970  0.36540  Biso   1.000  H
  C288     1.0000 0.96943  0.18011  0.33744  Biso   1.000  C
  H224     1.0000 0.95060  0.19320  0.31570  Biso   1.000  H
  Cd17     1.0000 0.53864  0.74187  0.44772  Biso   1.000  Cd
  O33      1.0000 0.63010  0.68442  0.47945  Biso   1.000  O
  O34      1.0000 0.49123  0.68382  0.49005  Biso   1.000  O
  C289     1.0000 0.56686  0.67037  0.49701  Biso   1.000  C
  C290     1.0000 0.58161  0.63676  0.52793  Biso   1.000  C
  C291     1.0000 0.51800  0.63330  0.55073  Biso   1.000  C
  H225     1.0000 0.52290  0.61370  0.57080  Biso   1.000  H
  H226     1.0000 0.46740  0.65040  0.54700  Biso   1.000  H
  N49      1.0000 0.67504  0.76066  0.42226  Biso   1.000  N
  C292     1.0000 0.67945  0.77436  0.38769  Biso   1.000  C
  H227     1.0000 0.62810  0.78250  0.37610  Biso   1.000  H
  C293     1.0000 0.75501  0.77717  0.36828  Biso   1.000  C
  H228     1.0000 0.75410  0.78640  0.34410  Biso   1.000  H
  C294     1.0000 0.83329  0.76606  0.38514  Biso   1.000  C
  C295     1.0000 0.82920  0.75342  0.42130  Biso   1.000  C
  H229     1.0000 0.87970  0.74700  0.43410  Biso   1.000  H
  C296     1.0000 0.74951  0.75037  0.43823  Biso   1.000  C
  H230     1.0000 0.74810  0.74050  0.46230  Biso   1.000  H
  N50      1.0000 0.54084  0.79121  0.49880  Biso   1.000  N
  N51      1.0000 0.49156  0.94148  0.64946  Biso   1.000  N
  C297     1.0000 0.46602  0.81498  0.55213  Biso   1.000  C
  H231     1.0000 0.42010  0.81030  0.56810  Biso   1.000  H
  C298     1.0000 0.47647  0.78620  0.52276  Biso   1.000  C
  H232     1.0000 0.43690  0.76200  0.51930  Biso   1.000  H
  C299     1.0000 0.59598  0.82643  0.50426  Biso   1.000  C
  H233     1.0000 0.64090  0.83050  0.48770  Biso   1.000  H
  C300     1.0000 0.59022  0.85709  0.53301  Biso   1.000  C
  H234     1.0000 0.63000  0.88130  0.53560  Biso   1.000  H
  C301     1.0000 0.52414  0.85121  0.55803  Biso   1.000  C
  C302     1.0000 0.51514  0.88233  0.59006  Biso   1.000  C
  C303     1.0000 0.49020  0.86515  0.62351  Biso   1.000  C
  H235     1.0000 0.48100  0.83320  0.62660  Biso   1.000  H
  C304     1.0000 0.47893  0.89561  0.65232  Biso   1.000  C
  H236     1.0000 0.46180  0.88350  0.67460  Biso   1.000  H
  C305     1.0000 0.51752  0.95771  0.61753  Biso   1.000  C
  H237     1.0000 0.52750  0.98970  0.61540  Biso   1.000  H
  C306     1.0000 0.53057  0.93011  0.58744  Biso   1.000  C
  H238     1.0000 0.54940  0.94320  0.56570  Biso   1.000  H
  Cd18     1.0000 0.53864  0.24187  0.94772  Biso   1.000  Cd
  O35      1.0000 0.63010  0.18442  0.97945  Biso   1.000  O
  O36      1.0000 0.49123  0.18382  0.99005  Biso   1.000  O
  C307     1.0000 0.56686  0.17037  0.99701  Biso   1.000  C
  C308     1.0000 0.58161  0.13676  0.02793  Biso   1.000  C
  C309     1.0000 0.51800  0.13330  0.05073  Biso   1.000  C
  H239     1.0000 0.52290  0.11370  0.07080  Biso   1.000  H
  H240     1.0000 0.46740  0.15040  0.04700  Biso   1.000  H
  N52      1.0000 0.67504  0.26066  0.92226  Biso   1.000  N
  C310     1.0000 0.67945  0.27436  0.88769  Biso   1.000  C
  H241     1.0000 0.62810  0.28250  0.87610  Biso   1.000  H
  C311     1.0000 0.75501  0.27717  0.86828  Biso   1.000  C
  H242     1.0000 0.75410  0.28640  0.84410  Biso   1.000  H
  C312     1.0000 0.83329  0.26606  0.88514  Biso   1.000  C
  C313     1.0000 0.82920  0.25342  0.92130  Biso   1.000  C
  H243     1.0000 0.87970  0.24700  0.93410  Biso   1.000  H
  C314     1.0000 0.74951  0.25037  0.93823  Biso   1.000  C
  H244     1.0000 0.74810  0.24050  0.96230  Biso   1.000  H
  N53      1.0000 0.54084  0.29121  0.99880  Biso   1.000  N
  N54      1.0000 0.49156  0.44148  0.14946  Biso   1.000  N
  C315     1.0000 0.46602  0.31498  0.05213  Biso   1.000  C
  H245     1.0000 0.42010  0.31030  0.06810  Biso   1.000  H
  C316     1.0000 0.47647  0.28620  0.02276  Biso   1.000  C
  H246     1.0000 0.43690  0.26200  0.01930  Biso   1.000  H
  C317     1.0000 0.59598  0.32643  0.00426  Biso   1.000  C
  H247     1.0000 0.64090  0.33050  0.98770  Biso   1.000  H
  C318     1.0000 0.59022  0.35709  0.03301  Biso   1.000  C
  H248     1.0000 0.63000  0.38130  0.03560  Biso   1.000  H
  C319     1.0000 0.52414  0.35121  0.05803  Biso   1.000  C
  C320     1.0000 0.51514  0.38233  0.09006  Biso   1.000  C
  C321     1.0000 0.49020  0.36515  0.12351  Biso   1.000  C
  H249     1.0000 0.48100  0.33320  0.12660  Biso   1.000  H
  C322     1.0000 0.47893  0.39561  0.15232  Biso   1.000  C
  H250     1.0000 0.46180  0.38350  0.17460  Biso   1.000  H
  C323     1.0000 0.51752  0.45771  0.11753  Biso   1.000  C
  H251     1.0000 0.52750  0.48970  0.11540  Biso   1.000  H
  C324     1.0000 0.53057  0.43011  0.08744  Biso   1.000  C
  H252     1.0000 0.54940  0.44320  0.06570  Biso   1.000  H
  Cd19     1.0000 0.03864  0.74187  0.94772  Biso   1.000  Cd
  O37      1.0000 0.13010  0.68442  0.97945  Biso   1.000  O
  O38      1.0000 0.99123  0.68382  0.99005  Biso   1.000  O
  C325     1.0000 0.06686  0.67037  0.99701  Biso   1.000  C
  C326     1.0000 0.08161  0.63676  0.02793  Biso   1.000  C
  C327     1.0000 0.01800  0.63330  0.05073  Biso   1.000  C
  H253     1.0000 0.02290  0.61370  0.07080  Biso   1.000  H
  H254     1.0000 0.96740  0.65040  0.04700  Biso   1.000  H
  N55      1.0000 0.17504  0.76066  0.92226  Biso   1.000  N
  C328     1.0000 0.17945  0.77436  0.88769  Biso   1.000  C
  H255     1.0000 0.12810  0.78250  0.87610  Biso   1.000  H
  C329     1.0000 0.25501  0.77717  0.86828  Biso   1.000  C
  H256     1.0000 0.25410  0.78640  0.84410  Biso   1.000  H
  C330     1.0000 0.33329  0.76606  0.88514  Biso   1.000  C
  C331     1.0000 0.32920  0.75342  0.92130  Biso   1.000  C
  H257     1.0000 0.37970  0.74700  0.93410  Biso   1.000  H
  C332     1.0000 0.24951  0.75037  0.93823  Biso   1.000  C
  H258     1.0000 0.24810  0.74050  0.96230  Biso   1.000  H
  N56      1.0000 0.04084  0.79121  0.99880  Biso   1.000  N
  N57      1.0000 0.99156  0.94148  0.14946  Biso   1.000  N
  C333     1.0000 0.96602  0.81498  0.05213  Biso   1.000  C
  H259     1.0000 0.92010  0.81030  0.06810  Biso   1.000  H
  C334     1.0000 0.97647  0.78620  0.02276  Biso   1.000  C
  H260     1.0000 0.93690  0.76200  0.01930  Biso   1.000  H
  C335     1.0000 0.09598  0.82643  0.00426  Biso   1.000  C
  H261     1.0000 0.14090  0.83050  0.98770  Biso   1.000  H
  C336     1.0000 0.09022  0.85709  0.03301  Biso   1.000  C
  H262     1.0000 0.13000  0.88130  0.03560  Biso   1.000  H
  C337     1.0000 0.02414  0.85121  0.05803  Biso   1.000  C
  C338     1.0000 0.01514  0.88233  0.09006  Biso   1.000  C
  C339     1.0000 0.99020  0.86515  0.12351  Biso   1.000  C
  H263     1.0000 0.98100  0.83320  0.12660  Biso   1.000  H
  C340     1.0000 0.97893  0.89561  0.15232  Biso   1.000  C
  H264     1.0000 0.96180  0.88350  0.17460  Biso   1.000  H
  C341     1.0000 0.01752  0.95771  0.11753  Biso   1.000  C
  H265     1.0000 0.02750  0.98970  0.11540  Biso   1.000  H
  C342     1.0000 0.03057  0.93011  0.08744  Biso   1.000  C
  H266     1.0000 0.04940  0.94320  0.06570  Biso   1.000  H
  Cd20     1.0000 0.03864  0.24187  0.44772  Biso   1.000  Cd
  O39      1.0000 0.13010  0.18442  0.47945  Biso   1.000  O
  O40      1.0000 0.99123  0.18382  0.49005  Biso   1.000  O
  C343     1.0000 0.06686  0.17037  0.49701  Biso   1.000  C
  C344     1.0000 0.08161  0.13676  0.52793  Biso   1.000  C
  C345     1.0000 0.01800  0.13330  0.55073  Biso   1.000  C
  H267     1.0000 0.02290  0.11370  0.57080  Biso   1.000  H
  H268     1.0000 0.96740  0.15040  0.54700  Biso   1.000  H
  N58      1.0000 0.17504  0.26066  0.42226  Biso   1.000  N
  C346     1.0000 0.17945  0.27436  0.38769  Biso   1.000  C
  H269     1.0000 0.12810  0.28250  0.37610  Biso   1.000  H
  C347     1.0000 0.25501  0.27717  0.36828  Biso   1.000  C
  H270     1.0000 0.25410  0.28640  0.34410  Biso   1.000  H
  C348     1.0000 0.33329  0.26606  0.38514  Biso   1.000  C
  C349     1.0000 0.32920  0.25342  0.42130  Biso   1.000  C
  H271     1.0000 0.37970  0.24700  0.43410  Biso   1.000  H
  C350     1.0000 0.24951  0.25037  0.43823  Biso   1.000  C
  H272     1.0000 0.24810  0.24050  0.46230  Biso   1.000  H
  N59      1.0000 0.04084  0.29121  0.49880  Biso   1.000  N
  N60      1.0000 0.99156  0.44148  0.64946  Biso   1.000  N
  C351     1.0000 0.96602  0.31498  0.55213  Biso   1.000  C
  H273     1.0000 0.92010  0.31030  0.56810  Biso   1.000  H
  C352     1.0000 0.97647  0.28620  0.52276  Biso   1.000  C
  H274     1.0000 0.93690  0.26200  0.51930  Biso   1.000  H
  C353     1.0000 0.09598  0.32643  0.50426  Biso   1.000  C
  H275     1.0000 0.14090  0.33050  0.48770  Biso   1.000  H
  C354     1.0000 0.09022  0.35709  0.53301  Biso   1.000  C
  H276     1.0000 0.13000  0.38130  0.53560  Biso   1.000  H
  C355     1.0000 0.02414  0.35121  0.55803  Biso   1.000  C
  C356     1.0000 0.01514  0.38233  0.59006  Biso   1.000  C
  C357     1.0000 0.99020  0.36515  0.62351  Biso   1.000  C
  H277     1.0000 0.98100  0.33320  0.62660  Biso   1.000  H
  C358     1.0000 0.97893  0.39561  0.65232  Biso   1.000  C
  H278     1.0000 0.96180  0.38350  0.67460  Biso   1.000  H
  C359     1.0000 0.01752  0.45771  0.61753  Biso   1.000  C
  H279     1.0000 0.02750  0.48970  0.61540  Biso   1.000  H
  C360     1.0000 0.03057  0.43011  0.58744  Biso   1.000  C
  H280     1.0000 0.04940  0.44320  0.56570  Biso   1.000  H
  Cd21     1.0000 0.71136  0.50813  0.44772  Biso   1.000  Cd
  O41      1.0000 0.61990  0.56558  0.47945  Biso   1.000  O
  O42      1.0000 0.75877  0.56618  0.49005  Biso   1.000  O
  C361     1.0000 0.68314  0.57963  0.49701  Biso   1.000  C
  C362     1.0000 0.66839  0.61324  0.52793  Biso   1.000  C
  C363     1.0000 0.73200  0.61670  0.55073  Biso   1.000  C
  H281     1.0000 0.72710  0.63630  0.57080  Biso   1.000  H
  H282     1.0000 0.78260  0.59960  0.54700  Biso   1.000  H
  N61      1.0000 0.57496  0.48934  0.42226  Biso   1.000  N
  C364     1.0000 0.57055  0.47564  0.38769  Biso   1.000  C
  H283     1.0000 0.62190  0.46750  0.37610  Biso   1.000  H
  C365     1.0000 0.49499  0.47283  0.36828  Biso   1.000  C
  H284     1.0000 0.49590  0.46360  0.34410  Biso   1.000  H
  C366     1.0000 0.41671  0.48394  0.38514  Biso   1.000  C
  C367     1.0000 0.42080  0.49658  0.42130  Biso   1.000  C
  H285     1.0000 0.37030  0.50300  0.43410  Biso   1.000  H
  C368     1.0000 0.50049  0.49963  0.43823  Biso   1.000  C
  H286     1.0000 0.50190  0.50950  0.46230  Biso   1.000  H
  N62      1.0000 0.70916  0.45879  0.49880  Biso   1.000  N
  N63      1.0000 0.75844  0.30852  0.64946  Biso   1.000  N
  C369     1.0000 0.78398  0.43502  0.55213  Biso   1.000  C
  H287     1.0000 0.82990  0.43970  0.56810  Biso   1.000  H
  C370     1.0000 0.77353  0.46380  0.52276  Biso   1.000  C
  H288     1.0000 0.81310  0.48800  0.51930  Biso   1.000  H
  C371     1.0000 0.65402  0.42357  0.50426  Biso   1.000  C
  H289     1.0000 0.60910  0.41950  0.48770  Biso   1.000  H
  C372     1.0000 0.65978  0.39291  0.53301  Biso   1.000  C
  H290     1.0000 0.62000  0.36870  0.53560  Biso   1.000  H
  C373     1.0000 0.72586  0.39879  0.55803  Biso   1.000  C
  C374     1.0000 0.73486  0.36767  0.59006  Biso   1.000  C
  C375     1.0000 0.75980  0.38485  0.62351  Biso   1.000  C
  H291     1.0000 0.76900  0.41680  0.62660  Biso   1.000  H
  C376     1.0000 0.77107  0.35439  0.65232  Biso   1.000  C
  H292     1.0000 0.78820  0.36650  0.67460  Biso   1.000  H
  C377     1.0000 0.73248  0.29229  0.61753  Biso   1.000  C
  H293     1.0000 0.72250  0.26030  0.61540  Biso   1.000  H
  C378     1.0000 0.71943  0.31989  0.58744  Biso   1.000  C
  H294     1.0000 0.70060  0.30680  0.56570  Biso   1.000  H
  Cd22     1.0000 0.71136  0.00813  0.94772  Biso   1.000  Cd
  O43      1.0000 0.61990  0.06558  0.97945  Biso   1.000  O
  O44      1.0000 0.75877  0.06618  0.99005  Biso   1.000  O
  C379     1.0000 0.68314  0.07963  0.99701  Biso   1.000  C
  C380     1.0000 0.66839  0.11324  0.02793  Biso   1.000  C
  C381     1.0000 0.73200  0.11670  0.05073  Biso   1.000  C
  H295     1.0000 0.72710  0.13630  0.07080  Biso   1.000  H
  H296     1.0000 0.78260  0.09960  0.04700  Biso   1.000  H
  N64      1.0000 0.57496  0.98934  0.92226  Biso   1.000  N
  C382     1.0000 0.57055  0.97564  0.88769  Biso   1.000  C
  H297     1.0000 0.62190  0.96750  0.87610  Biso   1.000  H
  C383     1.0000 0.49499  0.97283  0.86828  Biso   1.000  C
  H298     1.0000 0.49590  0.96360  0.84410  Biso   1.000  H
  C384     1.0000 0.41671  0.98394  0.88514  Biso   1.000  C
  C385     1.0000 0.42080  0.99658  0.92130  Biso   1.000  C
  H299     1.0000 0.37030  0.00300  0.93410  Biso   1.000  H
  C386     1.0000 0.50049  0.99963  0.93823  Biso   1.000  C
  H300     1.0000 0.50190  0.00950  0.96230  Biso   1.000  H
  N65      1.0000 0.70916  0.95879  0.99880  Biso   1.000  N
  N66      1.0000 0.75844  0.80852  0.14946  Biso   1.000  N
  C387     1.0000 0.78398  0.93502  0.05213  Biso   1.000  C
  H301     1.0000 0.82990  0.93970  0.06810  Biso   1.000  H
  C388     1.0000 0.77353  0.96380  0.02276  Biso   1.000  C
  H302     1.0000 0.81310  0.98800  0.01930  Biso   1.000  H
  C389     1.0000 0.65402  0.92357  0.00426  Biso   1.000  C
  H303     1.0000 0.60910  0.91950  0.98770  Biso   1.000  H
  C390     1.0000 0.65978  0.89291  0.03301  Biso   1.000  C
  H304     1.0000 0.62000  0.86870  0.03560  Biso   1.000  H
  C391     1.0000 0.72586  0.89879  0.05803  Biso   1.000  C
  C392     1.0000 0.73486  0.86767  0.09006  Biso   1.000  C
  C393     1.0000 0.75980  0.88485  0.12351  Biso   1.000  C
  H305     1.0000 0.76900  0.91680  0.12660  Biso   1.000  H
  C394     1.0000 0.77107  0.85439  0.15232  Biso   1.000  C
  H306     1.0000 0.78820  0.86650  0.17460  Biso   1.000  H
  C395     1.0000 0.73248  0.79229  0.11753  Biso   1.000  C
  H307     1.0000 0.72250  0.76030  0.11540  Biso   1.000  H
  C396     1.0000 0.71943  0.81989  0.08744  Biso   1.000  C
  H308     1.0000 0.70060  0.80680  0.06570  Biso   1.000  H
  Cd23     1.0000 0.21136  0.50813  0.94772  Biso   1.000  Cd
  O45      1.0000 0.11990  0.56558  0.97945  Biso   1.000  O
  O46      1.0000 0.25877  0.56618  0.99005  Biso   1.000  O
  C397     1.0000 0.18314  0.57963  0.99701  Biso   1.000  C
  C398     1.0000 0.16839  0.61324  0.02793  Biso   1.000  C
  C399     1.0000 0.23200  0.61670  0.05073  Biso   1.000  C
  H309     1.0000 0.22710  0.63630  0.07080  Biso   1.000  H
  H310     1.0000 0.28260  0.59960  0.04700  Biso   1.000  H
  N67      1.0000 0.07496  0.48934  0.92226  Biso   1.000  N
  C400     1.0000 0.07055  0.47564  0.88769  Biso   1.000  C
  H311     1.0000 0.12190  0.46750  0.87610  Biso   1.000  H
  C401     1.0000 0.99499  0.47283  0.86828  Biso   1.000  C
  H312     1.0000 0.99590  0.46360  0.84410  Biso   1.000  H
  C402     1.0000 0.91671  0.48394  0.88514  Biso   1.000  C
  C403     1.0000 0.92080  0.49658  0.92130  Biso   1.000  C
  H313     1.0000 0.87030  0.50300  0.93410  Biso   1.000  H
  C404     1.0000 0.00049  0.49963  0.93823  Biso   1.000  C
  H314     1.0000 0.00190  0.50950  0.96230  Biso   1.000  H
  N68      1.0000 0.20916  0.45879  0.99880  Biso   1.000  N
  N69      1.0000 0.25844  0.30852  0.14946  Biso   1.000  N
  C405     1.0000 0.28398  0.43502  0.05213  Biso   1.000  C
  H315     1.0000 0.32990  0.43970  0.06810  Biso   1.000  H
  C406     1.0000 0.27353  0.46380  0.02276  Biso   1.000  C
  H316     1.0000 0.31310  0.48800  0.01930  Biso   1.000  H
  C407     1.0000 0.15402  0.42357  0.00426  Biso   1.000  C
  H317     1.0000 0.10910  0.41950  0.98770  Biso   1.000  H
  C408     1.0000 0.15978  0.39291  0.03301  Biso   1.000  C
  H318     1.0000 0.12000  0.36870  0.03560  Biso   1.000  H
  C409     1.0000 0.22586  0.39879  0.05803  Biso   1.000  C
  C410     1.0000 0.23486  0.36767  0.09006  Biso   1.000  C
  C411     1.0000 0.25980  0.38485  0.12351  Biso   1.000  C
  H319     1.0000 0.26900  0.41680  0.12660  Biso   1.000  H
  C412     1.0000 0.27107  0.35439  0.15232  Biso   1.000  C
  H320     1.0000 0.28820  0.36650  0.17460  Biso   1.000  H
  C413     1.0000 0.23248  0.29229  0.11753  Biso   1.000  C
  H321     1.0000 0.22250  0.26030  0.11540  Biso   1.000  H
  C414     1.0000 0.21943  0.31989  0.08744  Biso   1.000  C
  H322     1.0000 0.20060  0.30680  0.06570  Biso   1.000  H
  Cd24     1.0000 0.21136  0.00813  0.44772  Biso   1.000  Cd
  O47      1.0000 0.11990  0.06558  0.47945  Biso   1.000  O
  O48      1.0000 0.25877  0.06618  0.49005  Biso   1.000  O
  C415     1.0000 0.18314  0.07963  0.49701  Biso   1.000  C
  C416     1.0000 0.16839  0.11324  0.52793  Biso   1.000  C
  C417     1.0000 0.23200  0.11670  0.55073  Biso   1.000  C
  H323     1.0000 0.22710  0.13630  0.57080  Biso   1.000  H
  H324     1.0000 0.28260  0.09960  0.54700  Biso   1.000  H
  N70      1.0000 0.07496  0.98934  0.42226  Biso   1.000  N
  C418     1.0000 0.07055  0.97564  0.38769  Biso   1.000  C
  H325     1.0000 0.12190  0.96750  0.37610  Biso   1.000  H
  C419     1.0000 0.99499  0.97283  0.36828  Biso   1.000  C
  H326     1.0000 0.99590  0.96360  0.34410  Biso   1.000  H
  C420     1.0000 0.91671  0.98394  0.38514  Biso   1.000  C
  C421     1.0000 0.92080  0.99658  0.42130  Biso   1.000  C
  H327     1.0000 0.87030  0.00300  0.43410  Biso   1.000  H
  C422     1.0000 0.00049  0.99963  0.43823  Biso   1.000  C
  H328     1.0000 0.00190  0.00950  0.46230  Biso   1.000  H
  N71      1.0000 0.20916  0.95879  0.49880  Biso   1.000  N
  N72      1.0000 0.25844  0.80852  0.64946  Biso   1.000  N
  C423     1.0000 0.28398  0.93502  0.55213  Biso   1.000  C
  H329     1.0000 0.32990  0.93970  0.56810  Biso   1.000  H
  C424     1.0000 0.27353  0.96380  0.52276  Biso   1.000  C
  H330     1.0000 0.31310  0.98800  0.51930  Biso   1.000  H
  C425     1.0000 0.15402  0.92357  0.50426  Biso   1.000  C
  H331     1.0000 0.10910  0.91950  0.48770  Biso   1.000  H
  C426     1.0000 0.15978  0.89291  0.53301  Biso   1.000  C
  H332     1.0000 0.12000  0.86870  0.53560  Biso   1.000  H
  C427     1.0000 0.22586  0.89879  0.55803  Biso   1.000  C
  C428     1.0000 0.23486  0.86767  0.59006  Biso   1.000  C
  C429     1.0000 0.25980  0.88485  0.62351  Biso   1.000  C
  H333     1.0000 0.26900  0.91680  0.62660  Biso   1.000  H
  C430     1.0000 0.27107  0.85439  0.65232  Biso   1.000  C
  H334     1.0000 0.28820  0.86650  0.67460  Biso   1.000  H
  C431     1.0000 0.23248  0.79229  0.61753  Biso   1.000  C
  H335     1.0000 0.22250  0.76030  0.61540  Biso   1.000  H
  C432     1.0000 0.21943  0.81989  0.58744  Biso   1.000  C
  H336     1.0000 0.20060  0.80680  0.56570  Biso   1.000  H
  Cd25     1.0000 0.71136  0.74187  0.80228  Biso   1.000  Cd
  O49      1.0000 0.61990  0.68442  0.77055  Biso   1.000  O
  O50      1.0000 0.75877  0.68382  0.75995  Biso   1.000  O
  C433     1.0000 0.68314  0.67037  0.75299  Biso   1.000  C
  C434     1.0000 0.66839  0.63676  0.72207  Biso   1.000  C
  C435     1.0000 0.73200  0.63330  0.69927  Biso   1.000  C
  H337     1.0000 0.72710  0.61370  0.67920  Biso   1.000  H
  H338     1.0000 0.78260  0.65040  0.70300  Biso   1.000  H
  N73      1.0000 0.57496  0.76066  0.82774  Biso   1.000  N
  C436     1.0000 0.57055  0.77436  0.86231  Biso   1.000  C
  H339     1.0000 0.62190  0.78250  0.87390  Biso   1.000  H
  C437     1.0000 0.49499  0.77717  0.88172  Biso   1.000  C
  H340     1.0000 0.49590  0.78640  0.90590  Biso   1.000  H
  C438     1.0000 0.41671  0.76606  0.86486  Biso   1.000  C
  C439     1.0000 0.42080  0.75342  0.82870  Biso   1.000  C
  H341     1.0000 0.37030  0.74700  0.81590  Biso   1.000  H
  C440     1.0000 0.50049  0.75037  0.81177  Biso   1.000  C
  H342     1.0000 0.50190  0.74050  0.78770  Biso   1.000  H
  N74      1.0000 0.70916  0.79121  0.75120  Biso   1.000  N
  N75      1.0000 0.75844  0.94148  0.60054  Biso   1.000  N
  C441     1.0000 0.78398  0.81498  0.69787  Biso   1.000  C
  H343     1.0000 0.82990  0.81030  0.68190  Biso   1.000  H
  C442     1.0000 0.77353  0.78620  0.72724  Biso   1.000  C
  H344     1.0000 0.81310  0.76200  0.73070  Biso   1.000  H
  C443     1.0000 0.65402  0.82643  0.74574  Biso   1.000  C
  H345     1.0000 0.60910  0.83050  0.76230  Biso   1.000  H
  C444     1.0000 0.65978  0.85709  0.71699  Biso   1.000  C
  H346     1.0000 0.62000  0.88130  0.71440  Biso   1.000  H
  C445     1.0000 0.72586  0.85121  0.69197  Biso   1.000  C
  C446     1.0000 0.73486  0.88233  0.65994  Biso   1.000  C
  C447     1.0000 0.75980  0.86515  0.62649  Biso   1.000  C
  H347     1.0000 0.76900  0.83320  0.62340  Biso   1.000  H
  C448     1.0000 0.77107  0.89561  0.59768  Biso   1.000  C
  H348     1.0000 0.78820  0.88350  0.57540  Biso   1.000  H
  C449     1.0000 0.73248  0.95771  0.63247  Biso   1.000  C
  H349     1.0000 0.72250  0.98970  0.63460  Biso   1.000  H
  C450     1.0000 0.71943  0.93011  0.66256  Biso   1.000  C
  H350     1.0000 0.70060  0.94320  0.68430  Biso   1.000  H
  Cd26     1.0000 0.71136  0.24187  0.30228  Biso   1.000  Cd
  O51      1.0000 0.61990  0.18442  0.27055  Biso   1.000  O
  O52      1.0000 0.75877  0.18382  0.25995  Biso   1.000  O
  C451     1.0000 0.68314  0.17037  0.25299  Biso   1.000  C
  C452     1.0000 0.66839  0.13676  0.22207  Biso   1.000  C
  C453     1.0000 0.73200  0.13330  0.19927  Biso   1.000  C
  H351     1.0000 0.72710  0.11370  0.17920  Biso   1.000  H
  H352     1.0000 0.78260  0.15040  0.20300  Biso   1.000  H
  N76      1.0000 0.57496  0.26066  0.32774  Biso   1.000  N
  C454     1.0000 0.57055  0.27436  0.36231  Biso   1.000  C
  H353     1.0000 0.62190  0.28250  0.37390  Biso   1.000  H
  C455     1.0000 0.49499  0.27717  0.38172  Biso   1.000  C
  H354     1.0000 0.49590  0.28640  0.40590  Biso   1.000  H
  C456     1.0000 0.41671  0.26606  0.36486  Biso   1.000  C
  C457     1.0000 0.42080  0.25342  0.32870  Biso   1.000  C
  H355     1.0000 0.37030  0.24700  0.31590  Biso   1.000  H
  C458     1.0000 0.50049  0.25037  0.31177  Biso   1.000  C
  H356     1.0000 0.50190  0.24050  0.28770  Biso   1.000  H
  N77      1.0000 0.70916  0.29121  0.25120  Biso   1.000  N
  N78      1.0000 0.75844  0.44148  0.10054  Biso   1.000  N
  C459     1.0000 0.78398  0.31498  0.19787  Biso   1.000  C
  H357     1.0000 0.82990  0.31030  0.18190  Biso   1.000  H
  C460     1.0000 0.77353  0.28620  0.22724  Biso   1.000  C
  H358     1.0000 0.81310  0.26200  0.23070  Biso   1.000  H
  C461     1.0000 0.65402  0.32643  0.24574  Biso   1.000  C
  H359     1.0000 0.60910  0.33050  0.26230  Biso   1.000  H
  C462     1.0000 0.65978  0.35709  0.21699  Biso   1.000  C
  H360     1.0000 0.62000  0.38130  0.21440  Biso   1.000  H
  C463     1.0000 0.72586  0.35121  0.19197  Biso   1.000  C
  C464     1.0000 0.73486  0.38233  0.15994  Biso   1.000  C
  C465     1.0000 0.75980  0.36515  0.12649  Biso   1.000  C
  H361     1.0000 0.76900  0.33320  0.12340  Biso   1.000  H
  C466     1.0000 0.77107  0.39561  0.09768  Biso   1.000  C
  H362     1.0000 0.78820  0.38350  0.07540  Biso   1.000  H
  C467     1.0000 0.73248  0.45771  0.13247  Biso   1.000  C
  H363     1.0000 0.72250  0.48970  0.13460  Biso   1.000  H
  C468     1.0000 0.71943  0.43011  0.16256  Biso   1.000  C
  H364     1.0000 0.70060  0.44320  0.18430  Biso   1.000  H
  Cd27     1.0000 0.21136  0.74187  0.30228  Biso   1.000  Cd
  O53      1.0000 0.11990  0.68442  0.27055  Biso   1.000  O
  O54      1.0000 0.25877  0.68382  0.25995  Biso   1.000  O
  C469     1.0000 0.18314  0.67037  0.25299  Biso   1.000  C
  C470     1.0000 0.16839  0.63676  0.22207  Biso   1.000  C
  C471     1.0000 0.23200  0.63330  0.19927  Biso   1.000  C
  H365     1.0000 0.22710  0.61370  0.17920  Biso   1.000  H
  H366     1.0000 0.28260  0.65040  0.20300  Biso   1.000  H
  N79      1.0000 0.07496  0.76066  0.32774  Biso   1.000  N
  C472     1.0000 0.07055  0.77436  0.36231  Biso   1.000  C
  H367     1.0000 0.12190  0.78250  0.37390  Biso   1.000  H
  C473     1.0000 0.99499  0.77717  0.38172  Biso   1.000  C
  H368     1.0000 0.99590  0.78640  0.40590  Biso   1.000  H
  C474     1.0000 0.91671  0.76606  0.36486  Biso   1.000  C
  C475     1.0000 0.92080  0.75342  0.32870  Biso   1.000  C
  H369     1.0000 0.87030  0.74700  0.31590  Biso   1.000  H
  C476     1.0000 0.00049  0.75037  0.31177  Biso   1.000  C
  H370     1.0000 0.00190  0.74050  0.28770  Biso   1.000  H
  N80      1.0000 0.20916  0.79121  0.25120  Biso   1.000  N
  N81      1.0000 0.25844  0.94148  0.10054  Biso   1.000  N
  C477     1.0000 0.28398  0.81498  0.19787  Biso   1.000  C
  H371     1.0000 0.32990  0.81030  0.18190  Biso   1.000  H
  C478     1.0000 0.27353  0.78620  0.22724  Biso   1.000  C
  H372     1.0000 0.31310  0.76200  0.23070  Biso   1.000  H
  C479     1.0000 0.15402  0.82643  0.24574  Biso   1.000  C
  H373     1.0000 0.10910  0.83050  0.26230  Biso   1.000  H
  C480     1.0000 0.15978  0.85709  0.21699  Biso   1.000  C
  H374     1.0000 0.12000  0.88130  0.21440  Biso   1.000  H
  C481     1.0000 0.22586  0.85121  0.19197  Biso   1.000  C
  C482     1.0000 0.23486  0.88233  0.15994  Biso   1.000  C
  C483     1.0000 0.25980  0.86515  0.12649  Biso   1.000  C
  H375     1.0000 0.26900  0.83320  0.12340  Biso   1.000  H
  C484     1.0000 0.27107  0.89561  0.09768  Biso   1.000  C
  H376     1.0000 0.28820  0.88350  0.07540  Biso   1.000  H
  C485     1.0000 0.23248  0.95771  0.13247  Biso   1.000  C
  H377     1.0000 0.22250  0.98970  0.13460  Biso   1.000  H
  C486     1.0000 0.21943  0.93011  0.16256  Biso   1.000  C
  H378     1.0000 0.20060  0.94320  0.18430  Biso   1.000  H
  Cd28     1.0000 0.21136  0.24187  0.80228  Biso   1.000  Cd
  O55      1.0000 0.11990  0.18442  0.77055  Biso   1.000  O
  O56      1.0000 0.25877  0.18382  0.75995  Biso   1.000  O
  C487     1.0000 0.18314  0.17037  0.75299  Biso   1.000  C
  C488     1.0000 0.16839  0.13676  0.72207  Biso   1.000  C
  C489     1.0000 0.23200  0.13330  0.69927  Biso   1.000  C
  H379     1.0000 0.22710  0.11370  0.67920  Biso   1.000  H
  H380     1.0000 0.28260  0.15040  0.70300  Biso   1.000  H
  N82      1.0000 0.07496  0.26066  0.82774  Biso   1.000  N
  C490     1.0000 0.07055  0.27436  0.86231  Biso   1.000  C
  H381     1.0000 0.12190  0.28250  0.87390  Biso   1.000  H
  C491     1.0000 0.99499  0.27717  0.88172  Biso   1.000  C
  H382     1.0000 0.99590  0.28640  0.90590  Biso   1.000  H
  C492     1.0000 0.91671  0.26606  0.86486  Biso   1.000  C
  C493     1.0000 0.92080  0.25342  0.82870  Biso   1.000  C
  H383     1.0000 0.87030  0.24700  0.81590  Biso   1.000  H
  C494     1.0000 0.00049  0.25037  0.81177  Biso   1.000  C
  H384     1.0000 0.00190  0.24050  0.78770  Biso   1.000  H
  N83      1.0000 0.20916  0.29121  0.75120  Biso   1.000  N
  N84      1.0000 0.25844  0.44148  0.60054  Biso   1.000  N
  C495     1.0000 0.28398  0.31498  0.69787  Biso   1.000  C
  H385     1.0000 0.32990  0.31030  0.68190  Biso   1.000  H
  C496     1.0000 0.27353  0.28620  0.72724  Biso   1.000  C
  H386     1.0000 0.31310  0.26200  0.73070  Biso   1.000  H
  C497     1.0000 0.15402  0.32643  0.74574  Biso   1.000  C
  H387     1.0000 0.10910  0.33050  0.76230  Biso   1.000  H
  C498     1.0000 0.15978  0.35709  0.71699  Biso   1.000  C
  H388     1.0000 0.12000  0.38130  0.71440  Biso   1.000  H
  C499     1.0000 0.22586  0.35121  0.69197  Biso   1.000  C
  C500     1.0000 0.23486  0.38233  0.65994  Biso   1.000  C
  C501     1.0000 0.25980  0.36515  0.62649  Biso   1.000  C
  H389     1.0000 0.26900  0.33320  0.62340  Biso   1.000  H
  C502     1.0000 0.27107  0.39561  0.59768  Biso   1.000  C
  H390     1.0000 0.28820  0.38350  0.57540  Biso   1.000  H
  C503     1.0000 0.23248  0.45771  0.63247  Biso   1.000  C
  H391     1.0000 0.22250  0.48970  0.63460  Biso   1.000  H
  C504     1.0000 0.21943  0.43011  0.66256  Biso   1.000  C
  H392     1.0000 0.20060  0.44320  0.68430  Biso   1.000  H
  Cd29     1.0000 0.53864  0.50813  0.80228  Biso   1.000  Cd
  O57      1.0000 0.63010  0.56558  0.77055  Biso   1.000  O
  O58      1.0000 0.49123  0.56618  0.75995  Biso   1.000  O
  C505     1.0000 0.56686  0.57963  0.75299  Biso   1.000  C
  C506     1.0000 0.58161  0.61324  0.72207  Biso   1.000  C
  C507     1.0000 0.51800  0.61670  0.69927  Biso   1.000  C
  H393     1.0000 0.52290  0.63630  0.67920  Biso   1.000  H
  H394     1.0000 0.46740  0.59960  0.70300  Biso   1.000  H
  N85      1.0000 0.67504  0.48934  0.82774  Biso   1.000  N
  C508     1.0000 0.67945  0.47564  0.86231  Biso   1.000  C
  H395     1.0000 0.62810  0.46750  0.87390  Biso   1.000  H
  C509     1.0000 0.75501  0.47283  0.88172  Biso   1.000  C
  H396     1.0000 0.75410  0.46360  0.90590  Biso   1.000  H
  C510     1.0000 0.83329  0.48394  0.86486  Biso   1.000  C
  C511     1.0000 0.82920  0.49658  0.82870  Biso   1.000  C
  H397     1.0000 0.87970  0.50300  0.81590  Biso   1.000  H
  C512     1.0000 0.74951  0.49963  0.81177  Biso   1.000  C
  H398     1.0000 0.74810  0.50950  0.78770  Biso   1.000  H
  N86      1.0000 0.54084  0.45879  0.75120  Biso   1.000  N
  N87      1.0000 0.49156  0.30852  0.60054  Biso   1.000  N
  C513     1.0000 0.46602  0.43502  0.69787  Biso   1.000  C
  H399     1.0000 0.42010  0.43970  0.68190  Biso   1.000  H
  C514     1.0000 0.47647  0.46380  0.72724  Biso   1.000  C
  H400     1.0000 0.43690  0.48800  0.73070  Biso   1.000  H
  C515     1.0000 0.59598  0.42357  0.74574  Biso   1.000  C
  H401     1.0000 0.64090  0.41950  0.76230  Biso   1.000  H
  C516     1.0000 0.59022  0.39291  0.71699  Biso   1.000  C
  H402     1.0000 0.63000  0.36870  0.71440  Biso   1.000  H
  C517     1.0000 0.52414  0.39879  0.69197  Biso   1.000  C
  C518     1.0000 0.51514  0.36767  0.65994  Biso   1.000  C
  C519     1.0000 0.49020  0.38485  0.62649  Biso   1.000  C
  H403     1.0000 0.48100  0.41680  0.62340  Biso   1.000  H
  C520     1.0000 0.47893  0.35439  0.59768  Biso   1.000  C
  H404     1.0000 0.46180  0.36650  0.57540  Biso   1.000  H
  C521     1.0000 0.51752  0.29229  0.63247  Biso   1.000  C
  H405     1.0000 0.52750  0.26030  0.63460  Biso   1.000  H
  C522     1.0000 0.53057  0.31989  0.66256  Biso   1.000  C
  H406     1.0000 0.54940  0.30680  0.68430  Biso   1.000  H
  Cd30     1.0000 0.53864  0.00813  0.30228  Biso   1.000  Cd
  O59      1.0000 0.63010  0.06558  0.27055  Biso   1.000  O
  O60      1.0000 0.49123  0.06618  0.25995  Biso   1.000  O
  C523     1.0000 0.56686  0.07963  0.25299  Biso   1.000  C
  C524     1.0000 0.58161  0.11324  0.22207  Biso   1.000  C
  C525     1.0000 0.51800  0.11670  0.19927  Biso   1.000  C
  H407     1.0000 0.52290  0.13630  0.17920  Biso   1.000  H
  H408     1.0000 0.46740  0.09960  0.20300  Biso   1.000  H
  N88      1.0000 0.67504  0.98934  0.32774  Biso   1.000  N
  C526     1.0000 0.67945  0.97564  0.36231  Biso   1.000  C
  H409     1.0000 0.62810  0.96750  0.37390  Biso   1.000  H
  C527     1.0000 0.75501  0.97283  0.38172  Biso   1.000  C
  H410     1.0000 0.75410  0.96360  0.40590  Biso   1.000  H
  C528     1.0000 0.83329  0.98394  0.36486  Biso   1.000  C
  C529     1.0000 0.82920  0.99658  0.32870  Biso   1.000  C
  H411     1.0000 0.87970  0.00300  0.31590  Biso   1.000  H
  C530     1.0000 0.74951  0.99963  0.31177  Biso   1.000  C
  H412     1.0000 0.74810  0.00950  0.28770  Biso   1.000  H
  N89      1.0000 0.54084  0.95879  0.25120  Biso   1.000  N
  N90      1.0000 0.49156  0.80852  0.10054  Biso   1.000  N
  C531     1.0000 0.46602  0.93502  0.19787  Biso   1.000  C
  H413     1.0000 0.42010  0.93970  0.18190  Biso   1.000  H
  C532     1.0000 0.47647  0.96380  0.22724  Biso   1.000  C
  H414     1.0000 0.43690  0.98800  0.23070  Biso   1.000  H
  C533     1.0000 0.59598  0.92357  0.24574  Biso   1.000  C
  H415     1.0000 0.64090  0.91950  0.26230  Biso   1.000  H
  C534     1.0000 0.59022  0.89291  0.21699  Biso   1.000  C
  H416     1.0000 0.63000  0.86870  0.21440  Biso   1.000  H
  C535     1.0000 0.52414  0.89879  0.19197  Biso   1.000  C
  C536     1.0000 0.51514  0.86767  0.15994  Biso   1.000  C
  C537     1.0000 0.49020  0.88485  0.12649  Biso   1.000  C
  H417     1.0000 0.48100  0.91680  0.12340  Biso   1.000  H
  C538     1.0000 0.47893  0.85439  0.09768  Biso   1.000  C
  H418     1.0000 0.46180  0.86650  0.07540  Biso   1.000  H
  C539     1.0000 0.51752  0.79229  0.13247  Biso   1.000  C
  H419     1.0000 0.52750  0.76030  0.13460  Biso   1.000  H
  C540     1.0000 0.53057  0.81989  0.16256  Biso   1.000  C
  H420     1.0000 0.54940  0.80680  0.18430  Biso   1.000  H
  Cd31     1.0000 0.03864  0.50813  0.30228  Biso   1.000  Cd
  O61      1.0000 0.13010  0.56558  0.27055  Biso   1.000  O
  O62      1.0000 0.99123  0.56618  0.25995  Biso   1.000  O
  C541     1.0000 0.06686  0.57963  0.25299  Biso   1.000  C
  C542     1.0000 0.08161  0.61324  0.22207  Biso   1.000  C
  C543     1.0000 0.01800  0.61670  0.19927  Biso   1.000  C
  H421     1.0000 0.02290  0.63630  0.17920  Biso   1.000  H
  H422     1.0000 0.96740  0.59960  0.20300  Biso   1.000  H
  N91      1.0000 0.17504  0.48934  0.32774  Biso   1.000  N
  C544     1.0000 0.17945  0.47564  0.36231  Biso   1.000  C
  H423     1.0000 0.12810  0.46750  0.37390  Biso   1.000  H
  C545     1.0000 0.25501  0.47283  0.38172  Biso   1.000  C
  H424     1.0000 0.25410  0.46360  0.40590  Biso   1.000  H
  C546     1.0000 0.33329  0.48394  0.36486  Biso   1.000  C
  C547     1.0000 0.32920  0.49658  0.32870  Biso   1.000  C
  H425     1.0000 0.37970  0.50300  0.31590  Biso   1.000  H
  C548     1.0000 0.24951  0.49963  0.31177  Biso   1.000  C
  H426     1.0000 0.24810  0.50950  0.28770  Biso   1.000  H
  N92      1.0000 0.04084  0.45879  0.25120  Biso   1.000  N
  N93      1.0000 0.99156  0.30852  0.10054  Biso   1.000  N
  C549     1.0000 0.96602  0.43502  0.19787  Biso   1.000  C
  H427     1.0000 0.92010  0.43970  0.18190  Biso   1.000  H
  C550     1.0000 0.97647  0.46380  0.22724  Biso   1.000  C
  H428     1.0000 0.93690  0.48800  0.23070  Biso   1.000  H
  C551     1.0000 0.09598  0.42357  0.24574  Biso   1.000  C
  H429     1.0000 0.14090  0.41950  0.26230  Biso   1.000  H
  C552     1.0000 0.09022  0.39291  0.21699  Biso   1.000  C
  H430     1.0000 0.13000  0.36870  0.21440  Biso   1.000  H
  C553     1.0000 0.02414  0.39879  0.19197  Biso   1.000  C
  C554     1.0000 0.01514  0.36767  0.15994  Biso   1.000  C
  C555     1.0000 0.99020  0.38485  0.12649  Biso   1.000  C
  H431     1.0000 0.98100  0.41680  0.12340  Biso   1.000  H
  C556     1.0000 0.97893  0.35439  0.09768  Biso   1.000  C
  H432     1.0000 0.96180  0.36650  0.07540  Biso   1.000  H
  C557     1.0000 0.01752  0.29229  0.13247  Biso   1.000  C
  H433     1.0000 0.02750  0.26030  0.13460  Biso   1.000  H
  C558     1.0000 0.03057  0.31989  0.16256  Biso   1.000  C
  H434     1.0000 0.04940  0.30680  0.18430  Biso   1.000  H
  Cd32     1.0000 0.03864  0.00813  0.80228  Biso   1.000  Cd
  O63      1.0000 0.13010  0.06558  0.77055  Biso   1.000  O
  O64      1.0000 0.99123  0.06618  0.75995  Biso   1.000  O
  C559     1.0000 0.06686  0.07963  0.75299  Biso   1.000  C
  C560     1.0000 0.08161  0.11324  0.72207  Biso   1.000  C
  C561     1.0000 0.01800  0.11670  0.69927  Biso   1.000  C
  H435     1.0000 0.02290  0.13630  0.67920  Biso   1.000  H
  H436     1.0000 0.96740  0.09960  0.70300  Biso   1.000  H
  N94      1.0000 0.17504  0.98934  0.82774  Biso   1.000  N
  C562     1.0000 0.17945  0.97564  0.86231  Biso   1.000  C
  H437     1.0000 0.12810  0.96750  0.87390  Biso   1.000  H
  C563     1.0000 0.25501  0.97283  0.88172  Biso   1.000  C
  H438     1.0000 0.25410  0.96360  0.90590  Biso   1.000  H
  C564     1.0000 0.33329  0.98394  0.86486  Biso   1.000  C
  C565     1.0000 0.32920  0.99658  0.82870  Biso   1.000  C
  H439     1.0000 0.37970  0.00300  0.81590  Biso   1.000  H
  C566     1.0000 0.24951  0.99963  0.81177  Biso   1.000  C
  H440     1.0000 0.24810  0.00950  0.78770  Biso   1.000  H
  N95      1.0000 0.04084  0.95879  0.75120  Biso   1.000  N
  N96      1.0000 0.99156  0.80852  0.60054  Biso   1.000  N
  C567     1.0000 0.96602  0.93502  0.69787  Biso   1.000  C
  H441     1.0000 0.92010  0.93970  0.68190  Biso   1.000  H
  C568     1.0000 0.97647  0.96380  0.72724  Biso   1.000  C
  H442     1.0000 0.93690  0.98800  0.73070  Biso   1.000  H
  C569     1.0000 0.09598  0.92357  0.74574  Biso   1.000  C
  H443     1.0000 0.14090  0.91950  0.76230  Biso   1.000  H
  C570     1.0000 0.09022  0.89291  0.71699  Biso   1.000  C
  H444     1.0000 0.13000  0.86870  0.71440  Biso   1.000  H
  C571     1.0000 0.02414  0.89879  0.69197  Biso   1.000  C
  C572     1.0000 0.01514  0.86767  0.65994  Biso   1.000  C
  C573     1.0000 0.99020  0.88485  0.62649  Biso   1.000  C
  H445     1.0000 0.98100  0.91680  0.62340  Biso   1.000  H
  C574     1.0000 0.97893  0.85439  0.59768  Biso   1.000  C
  H446     1.0000 0.96180  0.86650  0.57540  Biso   1.000  H
  C575     1.0000 0.01752  0.79229  0.63247  Biso   1.000  C
  H447     1.0000 0.02750  0.76030  0.63460  Biso   1.000  H
  C576     1.0000 0.03057  0.81989  0.66256  Biso   1.000  C
  H448     1.0000 0.04940  0.80680  0.68430  Biso   1.000  H
