data_image0
_cell_length_a       15.416
_cell_length_b       28.6414
_cell_length_c       36.813
_cell_angle_alpha    90
_cell_angle_beta     90
_cell_angle_gamma    90

_symmetry_space_group_name_H-M    "P 1"
_symmetry_int_tables_number       1

loop_
  _symmetry_equiv_pos_as_xyz
  'x, y, z'

loop_
  _atom_site_label
  _atom_site_occupancy
  _atom_site_fract_x
  _atom_site_fract_y
  _atom_site_fract_z
  _atom_site_thermal_displace_type
  _atom_site_B_iso_or_equiv
  _atom_site_type_symbol
  Cd1      1.0000 0.46182  0.25811  0.55221  Biso   1.000  Cd
  O1       1.0000 0.37024  0.31562  0.52038  Biso   1.000  O
  O2       1.0000 0.50922  0.31600  0.50994  Biso   1.000  O
  C1       1.0000 0.43310  0.32948  0.50289  Biso   1.000  C
  C2       1.0000 0.41810  0.36334  0.47186  Biso   1.000  C
  C3       1.0000 0.48340  0.36670  0.44860  Biso   1.000  C
  H1       1.0000 0.47870  0.38610  0.42840  Biso   1.000  H
  H2       1.0000 0.53390  0.34960  0.45240  Biso   1.000  H
  N1       1.0000 0.32518  0.23934  0.57763  Biso   1.000  N
  C4       1.0000 0.32100  0.22562  0.61229  Biso   1.000  C
  H3       1.0000 0.37240  0.21760  0.62400  Biso   1.000  H
  C5       1.0000 0.24470  0.22274  0.63165  Biso   1.000  C
  H4       1.0000 0.24550  0.21330  0.65580  Biso   1.000  H
  C6       1.0000 0.16646  0.23403  0.61489  Biso   1.000  C
  C7       1.0000 0.17080  0.24691  0.57864  Biso   1.000  C
  H5       1.0000 0.12020  0.25360  0.56590  Biso   1.000  H
  C8       1.0000 0.25020  0.24986  0.56147  Biso   1.000  C
  H6       1.0000 0.25150  0.25970  0.53740  Biso   1.000  H
  N2       1.0000 0.45940  0.20890  0.50108  Biso   1.000  N
  N3       1.0000 0.50856  0.05865  0.35038  Biso   1.000  N
  C9       1.0000 0.41020  0.14301  0.46699  Biso   1.000  C
  H7       1.0000 0.37060  0.11870  0.46460  Biso   1.000  H
  C10      1.0000 0.40450  0.17388  0.49557  Biso   1.000  C
  H8       1.0000 0.35930  0.17000  0.51200  Biso   1.000  H
  C11      1.0000 0.52384  0.21396  0.47705  Biso   1.000  C
  H9       1.0000 0.56340  0.23810  0.48050  Biso   1.000  H
  C12      1.0000 0.53405  0.18519  0.44766  Biso   1.000  C
  H10      1.0000 0.57980  0.19000  0.43160  Biso   1.000  H
  C13      1.0000 0.47610  0.14885  0.44185  Biso   1.000  C
  C14      1.0000 0.48508  0.11783  0.40984  Biso   1.000  C
  C15      1.0000 0.46950  0.07013  0.41262  Biso   1.000  C
  H11      1.0000 0.45080  0.05710  0.43440  Biso   1.000  H
  C16      1.0000 0.48240  0.04250  0.38249  Biso   1.000  C
  H12      1.0000 0.47220  0.01060  0.38470  Biso   1.000  H
  C17      1.0000 0.52110  0.10432  0.34747  Biso   1.000  C
  H13      1.0000 0.53790  0.11630  0.32510  Biso   1.000  H
  C18      1.0000 0.51042  0.13490  0.37623  Biso   1.000  C
  H14      1.0000 0.52020  0.16670  0.37300  Biso   1.000  H
  Cd2      1.0000 0.46182  0.75811  0.05221  Biso   1.000  Cd
  O3       1.0000 0.37024  0.81562  0.02038  Biso   1.000  O
  O4       1.0000 0.50922  0.81600  0.00994  Biso   1.000  O
  C19      1.0000 0.43310  0.82948  0.00289  Biso   1.000  C
  C20      1.0000 0.41810  0.86334  0.97186  Biso   1.000  C
  C21      1.0000 0.48340  0.86670  0.94860  Biso   1.000  C
  H15      1.0000 0.47870  0.88610  0.92840  Biso   1.000  H
  H16      1.0000 0.53390  0.84960  0.95240  Biso   1.000  H
  N4       1.0000 0.32518  0.73934  0.07763  Biso   1.000  N
  C22      1.0000 0.32100  0.72562  0.11229  Biso   1.000  C
  H17      1.0000 0.37240  0.71760  0.12400  Biso   1.000  H
  C23      1.0000 0.24470  0.72274  0.13165  Biso   1.000  C
  H18      1.0000 0.24550  0.71330  0.15580  Biso   1.000  H
  C24      1.0000 0.16646  0.73403  0.11489  Biso   1.000  C
  C25      1.0000 0.17080  0.74691  0.07864  Biso   1.000  C
  H19      1.0000 0.12020  0.75360  0.06590  Biso   1.000  H
  C26      1.0000 0.25020  0.74986  0.06147  Biso   1.000  C
  H20      1.0000 0.25150  0.75970  0.03740  Biso   1.000  H
  N5       1.0000 0.45940  0.70890  0.00108  Biso   1.000  N
  N6       1.0000 0.50856  0.55865  0.85038  Biso   1.000  N
  C27      1.0000 0.41020  0.64301  0.96699  Biso   1.000  C
  H21      1.0000 0.37060  0.61870  0.96460  Biso   1.000  H
  C28      1.0000 0.40450  0.67388  0.99557  Biso   1.000  C
  H22      1.0000 0.35930  0.67000  0.01200  Biso   1.000  H
  C29      1.0000 0.52384  0.71396  0.97705  Biso   1.000  C
  H23      1.0000 0.56340  0.73810  0.98050  Biso   1.000  H
  C30      1.0000 0.53405  0.68519  0.94766  Biso   1.000  C
  H24      1.0000 0.57980  0.69000  0.93160  Biso   1.000  H
  C31      1.0000 0.47610  0.64885  0.94185  Biso   1.000  C
  C32      1.0000 0.48508  0.61783  0.90984  Biso   1.000  C
  C33      1.0000 0.46950  0.57013  0.91262  Biso   1.000  C
  H25      1.0000 0.45080  0.55710  0.93440  Biso   1.000  H
  C34      1.0000 0.48240  0.54250  0.88249  Biso   1.000  C
  H26      1.0000 0.47220  0.51060  0.88470  Biso   1.000  H
  C35      1.0000 0.52110  0.60432  0.84747  Biso   1.000  C
  H27      1.0000 0.53790  0.61630  0.82510  Biso   1.000  H
  C36      1.0000 0.51042  0.63490  0.87623  Biso   1.000  C
  H28      1.0000 0.52020  0.66670  0.87300  Biso   1.000  H
  Cd3      1.0000 0.96182  0.25811  0.05221  Biso   1.000  Cd
  O5       1.0000 0.87024  0.31562  0.02038  Biso   1.000  O
  O6       1.0000 0.00922  0.31600  0.00994  Biso   1.000  O
  C37      1.0000 0.93310  0.32948  0.00289  Biso   1.000  C
  C38      1.0000 0.91810  0.36334  0.97186  Biso   1.000  C
  C39      1.0000 0.98340  0.36670  0.94860  Biso   1.000  C
  H29      1.0000 0.97870  0.38610  0.92840  Biso   1.000  H
  H30      1.0000 0.03390  0.34960  0.95240  Biso   1.000  H
  N7       1.0000 0.82518  0.23934  0.07763  Biso   1.000  N
  C40      1.0000 0.82100  0.22562  0.11229  Biso   1.000  C
  H31      1.0000 0.87240  0.21760  0.12400  Biso   1.000  H
  C41      1.0000 0.74470  0.22274  0.13165  Biso   1.000  C
  H32      1.0000 0.74550  0.21330  0.15580  Biso   1.000  H
  C42      1.0000 0.66646  0.23403  0.11489  Biso   1.000  C
  C43      1.0000 0.67080  0.24691  0.07864  Biso   1.000  C
  H33      1.0000 0.62020  0.25360  0.06590  Biso   1.000  H
  C44      1.0000 0.75020  0.24986  0.06147  Biso   1.000  C
  H34      1.0000 0.75150  0.25970  0.03740  Biso   1.000  H
  N8       1.0000 0.95940  0.20890  0.00108  Biso   1.000  N
  N9       1.0000 0.00856  0.05865  0.85038  Biso   1.000  N
  C45      1.0000 0.91020  0.14301  0.96699  Biso   1.000  C
  H35      1.0000 0.87060  0.11870  0.96460  Biso   1.000  H
  C46      1.0000 0.90450  0.17388  0.99557  Biso   1.000  C
  H36      1.0000 0.85930  0.17000  0.01200  Biso   1.000  H
  C47      1.0000 0.02384  0.21396  0.97705  Biso   1.000  C
  H37      1.0000 0.06340  0.23810  0.98050  Biso   1.000  H
  C48      1.0000 0.03405  0.18519  0.94766  Biso   1.000  C
  H38      1.0000 0.07980  0.19000  0.93160  Biso   1.000  H
  C49      1.0000 0.97610  0.14885  0.94185  Biso   1.000  C
  C50      1.0000 0.98508  0.11783  0.90984  Biso   1.000  C
  C51      1.0000 0.96950  0.07013  0.91262  Biso   1.000  C
  H39      1.0000 0.95080  0.05710  0.93440  Biso   1.000  H
  C52      1.0000 0.98240  0.04250  0.88249  Biso   1.000  C
  H40      1.0000 0.97220  0.01060  0.88470  Biso   1.000  H
  C53      1.0000 0.02110  0.10432  0.84747  Biso   1.000  C
  H41      1.0000 0.03790  0.11630  0.82510  Biso   1.000  H
  C54      1.0000 0.01042  0.13490  0.87623  Biso   1.000  C
  H42      1.0000 0.02020  0.16670  0.87300  Biso   1.000  H
  Cd4      1.0000 0.96182  0.75811  0.55221  Biso   1.000  Cd
  O7       1.0000 0.87024  0.81562  0.52038  Biso   1.000  O
  O8       1.0000 0.00922  0.81600  0.50994  Biso   1.000  O
  C55      1.0000 0.93310  0.82948  0.50289  Biso   1.000  C
  C56      1.0000 0.91810  0.86334  0.47186  Biso   1.000  C
  C57      1.0000 0.98340  0.86670  0.44860  Biso   1.000  C
  H43      1.0000 0.97870  0.88610  0.42840  Biso   1.000  H
  H44      1.0000 0.03390  0.84960  0.45240  Biso   1.000  H
  N10      1.0000 0.82518  0.73934  0.57763  Biso   1.000  N
  C58      1.0000 0.82100  0.72562  0.61229  Biso   1.000  C
  H45      1.0000 0.87240  0.71760  0.62400  Biso   1.000  H
  C59      1.0000 0.74470  0.72274  0.63165  Biso   1.000  C
  H46      1.0000 0.74550  0.71330  0.65580  Biso   1.000  H
  C60      1.0000 0.66646  0.73403  0.61489  Biso   1.000  C
  C61      1.0000 0.67080  0.74691  0.57864  Biso   1.000  C
  H47      1.0000 0.62020  0.75360  0.56590  Biso   1.000  H
  C62      1.0000 0.75020  0.74986  0.56147  Biso   1.000  C
  H48      1.0000 0.75150  0.75970  0.53740  Biso   1.000  H
  N11      1.0000 0.95940  0.70890  0.50108  Biso   1.000  N
  N12      1.0000 0.00856  0.55865  0.35038  Biso   1.000  N
  C63      1.0000 0.91020  0.64301  0.46699  Biso   1.000  C
  H49      1.0000 0.87060  0.61870  0.46460  Biso   1.000  H
  C64      1.0000 0.90450  0.67388  0.49557  Biso   1.000  C
  H50      1.0000 0.85930  0.67000  0.51200  Biso   1.000  H
  C65      1.0000 0.02384  0.71396  0.47705  Biso   1.000  C
  H51      1.0000 0.06340  0.73810  0.48050  Biso   1.000  H
  C66      1.0000 0.03405  0.68519  0.44766  Biso   1.000  C
  H52      1.0000 0.07980  0.69000  0.43160  Biso   1.000  H
  C67      1.0000 0.97610  0.64885  0.44185  Biso   1.000  C
  C68      1.0000 0.98508  0.61783  0.40984  Biso   1.000  C
  C69      1.0000 0.96950  0.57013  0.41262  Biso   1.000  C
  H53      1.0000 0.95080  0.55710  0.43440  Biso   1.000  H
  C70      1.0000 0.98240  0.54250  0.38249  Biso   1.000  C
  H54      1.0000 0.97220  0.51060  0.38470  Biso   1.000  H
  C71      1.0000 0.02110  0.60432  0.34747  Biso   1.000  C
  H55      1.0000 0.03790  0.61630  0.32510  Biso   1.000  H
  C72      1.0000 0.01042  0.63490  0.37623  Biso   1.000  C
  H56      1.0000 0.02020  0.66670  0.37300  Biso   1.000  H
  Cd5      1.0000 0.28818  0.49189  0.55221  Biso   1.000  Cd
  O9       1.0000 0.37976  0.43438  0.52038  Biso   1.000  O
  O10      1.0000 0.24078  0.43400  0.50994  Biso   1.000  O
  C73      1.0000 0.31690  0.42052  0.50289  Biso   1.000  C
  C74      1.0000 0.33190  0.38666  0.47186  Biso   1.000  C
  C75      1.0000 0.26660  0.38330  0.44860  Biso   1.000  C
  H57      1.0000 0.27130  0.36390  0.42840  Biso   1.000  H
  H58      1.0000 0.21610  0.40040  0.45240  Biso   1.000  H
  N13      1.0000 0.42482  0.51066  0.57763  Biso   1.000  N
  C76      1.0000 0.42900  0.52438  0.61229  Biso   1.000  C
  H59      1.0000 0.37760  0.53240  0.62400  Biso   1.000  H
  C77      1.0000 0.50530  0.52726  0.63165  Biso   1.000  C
  H60      1.0000 0.50450  0.53670  0.65580  Biso   1.000  H
  C78      1.0000 0.58354  0.51597  0.61489  Biso   1.000  C
  C79      1.0000 0.57920  0.50309  0.57864  Biso   1.000  C
  H61      1.0000 0.62980  0.49640  0.56590  Biso   1.000  H
  C80      1.0000 0.49980  0.50014  0.56147  Biso   1.000  C
  H62      1.0000 0.49850  0.49030  0.53740  Biso   1.000  H
  N14      1.0000 0.29060  0.54110  0.50108  Biso   1.000  N
  N15      1.0000 0.24144  0.69135  0.35038  Biso   1.000  N
  C81      1.0000 0.33980  0.60699  0.46699  Biso   1.000  C
  H63      1.0000 0.37940  0.63130  0.46460  Biso   1.000  H
  C82      1.0000 0.34550  0.57612  0.49557  Biso   1.000  C
  H64      1.0000 0.39070  0.58000  0.51200  Biso   1.000  H
  C83      1.0000 0.22616  0.53604  0.47705  Biso   1.000  C
  H65      1.0000 0.18660  0.51190  0.48050  Biso   1.000  H
  C84      1.0000 0.21595  0.56481  0.44766  Biso   1.000  C
  H66      1.0000 0.17020  0.56000  0.43160  Biso   1.000  H
  C85      1.0000 0.27390  0.60115  0.44185  Biso   1.000  C
  C86      1.0000 0.26492  0.63217  0.40984  Biso   1.000  C
  C87      1.0000 0.28050  0.67987  0.41262  Biso   1.000  C
  H67      1.0000 0.29920  0.69290  0.43440  Biso   1.000  H
  C88      1.0000 0.26760  0.70750  0.38249  Biso   1.000  C
  H68      1.0000 0.27780  0.73940  0.38470  Biso   1.000  H
  C89      1.0000 0.22890  0.64568  0.34747  Biso   1.000  C
  H69      1.0000 0.21210  0.63370  0.32510  Biso   1.000  H
  C90      1.0000 0.23958  0.61510  0.37623  Biso   1.000  C
  H70      1.0000 0.22980  0.58330  0.37300  Biso   1.000  H
  Cd6      1.0000 0.28818  0.99189  0.05221  Biso   1.000  Cd
  O11      1.0000 0.37976  0.93438  0.02038  Biso   1.000  O
  O12      1.0000 0.24078  0.93400  0.00994  Biso   1.000  O
  C91      1.0000 0.31690  0.92052  0.00289  Biso   1.000  C
  C92      1.0000 0.33190  0.88666  0.97186  Biso   1.000  C
  C93      1.0000 0.26660  0.88330  0.94860  Biso   1.000  C
  H71      1.0000 0.27130  0.86390  0.92840  Biso   1.000  H
  H72      1.0000 0.21610  0.90040  0.95240  Biso   1.000  H
  N16      1.0000 0.42482  0.01066  0.07763  Biso   1.000  N
  C94      1.0000 0.42900  0.02438  0.11229  Biso   1.000  C
  H73      1.0000 0.37760  0.03240  0.12400  Biso   1.000  H
  C95      1.0000 0.50530  0.02726  0.13165  Biso   1.000  C
  H74      1.0000 0.50450  0.03670  0.15580  Biso   1.000  H
  C96      1.0000 0.58354  0.01597  0.11489  Biso   1.000  C
  C97      1.0000 0.57920  0.00309  0.07864  Biso   1.000  C
  H75      1.0000 0.62980  0.99640  0.06590  Biso   1.000  H
  C98      1.0000 0.49980  0.00014  0.06147  Biso   1.000  C
  H76      1.0000 0.49850  0.99030  0.03740  Biso   1.000  H
  N17      1.0000 0.29060  0.04110  0.00108  Biso   1.000  N
  N18      1.0000 0.24144  0.19135  0.85038  Biso   1.000  N
  C99      1.0000 0.33980  0.10699  0.96699  Biso   1.000  C
  H77      1.0000 0.37940  0.13130  0.96460  Biso   1.000  H
  C100     1.0000 0.34550  0.07612  0.99557  Biso   1.000  C
  H78      1.0000 0.39070  0.08000  0.01200  Biso   1.000  H
  C101     1.0000 0.22616  0.03604  0.97705  Biso   1.000  C
  H79      1.0000 0.18660  0.01190  0.98050  Biso   1.000  H
  C102     1.0000 0.21595  0.06481  0.94766  Biso   1.000  C
  H80      1.0000 0.17020  0.06000  0.93160  Biso   1.000  H
  C103     1.0000 0.27390  0.10115  0.94185  Biso   1.000  C
  C104     1.0000 0.26492  0.13217  0.90984  Biso   1.000  C
  C105     1.0000 0.28050  0.17987  0.91262  Biso   1.000  C
  H81      1.0000 0.29920  0.19290  0.93440  Biso   1.000  H
  C106     1.0000 0.26760  0.20750  0.88249  Biso   1.000  C
  H82      1.0000 0.27780  0.23940  0.88470  Biso   1.000  H
  C107     1.0000 0.22890  0.14568  0.84747  Biso   1.000  C
  H83      1.0000 0.21210  0.13370  0.82510  Biso   1.000  H
  C108     1.0000 0.23958  0.11510  0.87623  Biso   1.000  C
  H84      1.0000 0.22980  0.08330  0.87300  Biso   1.000  H
  Cd7      1.0000 0.78818  0.49189  0.05221  Biso   1.000  Cd
  O13      1.0000 0.87976  0.43438  0.02038  Biso   1.000  O
  O14      1.0000 0.74078  0.43400  0.00994  Biso   1.000  O
  C109     1.0000 0.81690  0.42052  0.00289  Biso   1.000  C
  C110     1.0000 0.83190  0.38666  0.97186  Biso   1.000  C
  C111     1.0000 0.76660  0.38330  0.94860  Biso   1.000  C
  H85      1.0000 0.77130  0.36390  0.92840  Biso   1.000  H
  H86      1.0000 0.71610  0.40040  0.95240  Biso   1.000  H
  N19      1.0000 0.92482  0.51066  0.07763  Biso   1.000  N
  C112     1.0000 0.92900  0.52438  0.11229  Biso   1.000  C
  H87      1.0000 0.87760  0.53240  0.12400  Biso   1.000  H
  C113     1.0000 0.00530  0.52726  0.13165  Biso   1.000  C
  H88      1.0000 0.00450  0.53670  0.15580  Biso   1.000  H
  C114     1.0000 0.08354  0.51597  0.11489  Biso   1.000  C
  C115     1.0000 0.07920  0.50309  0.07864  Biso   1.000  C
  H89      1.0000 0.12980  0.49640  0.06590  Biso   1.000  H
  C116     1.0000 0.99980  0.50014  0.06147  Biso   1.000  C
  H90      1.0000 0.99850  0.49030  0.03740  Biso   1.000  H
  N20      1.0000 0.79060  0.54110  0.00108  Biso   1.000  N
  N21      1.0000 0.74144  0.69135  0.85038  Biso   1.000  N
  C117     1.0000 0.83980  0.60699  0.96699  Biso   1.000  C
  H91      1.0000 0.87940  0.63130  0.96460  Biso   1.000  H
  C118     1.0000 0.84550  0.57612  0.99557  Biso   1.000  C
  H92      1.0000 0.89070  0.58000  0.01200  Biso   1.000  H
  C119     1.0000 0.72616  0.53604  0.97705  Biso   1.000  C
  H93      1.0000 0.68660  0.51190  0.98050  Biso   1.000  H
  C120     1.0000 0.71595  0.56481  0.94766  Biso   1.000  C
  H94      1.0000 0.67020  0.56000  0.93160  Biso   1.000  H
  C121     1.0000 0.77390  0.60115  0.94185  Biso   1.000  C
  C122     1.0000 0.76492  0.63217  0.90984  Biso   1.000  C
  C123     1.0000 0.78050  0.67987  0.91262  Biso   1.000  C
  H95      1.0000 0.79920  0.69290  0.93440  Biso   1.000  H
  C124     1.0000 0.76760  0.70750  0.88249  Biso   1.000  C
  H96      1.0000 0.77780  0.73940  0.88470  Biso   1.000  H
  C125     1.0000 0.72890  0.64568  0.84747  Biso   1.000  C
  H97      1.0000 0.71210  0.63370  0.82510  Biso   1.000  H
  C126     1.0000 0.73958  0.61510  0.87623  Biso   1.000  C
  H98      1.0000 0.72980  0.58330  0.87300  Biso   1.000  H
  Cd8      1.0000 0.78818  0.99189  0.55221  Biso   1.000  Cd
  O15      1.0000 0.87976  0.93438  0.52038  Biso   1.000  O
  O16      1.0000 0.74078  0.93400  0.50994  Biso   1.000  O
  C127     1.0000 0.81690  0.92052  0.50289  Biso   1.000  C
  C128     1.0000 0.83190  0.88666  0.47186  Biso   1.000  C
  C129     1.0000 0.76660  0.88330  0.44860  Biso   1.000  C
  H99      1.0000 0.77130  0.86390  0.42840  Biso   1.000  H
  H100     1.0000 0.71610  0.90040  0.45240  Biso   1.000  H
  N22      1.0000 0.92482  0.01066  0.57763  Biso   1.000  N
  C130     1.0000 0.92900  0.02438  0.61229  Biso   1.000  C
  H101     1.0000 0.87760  0.03240  0.62400  Biso   1.000  H
  C131     1.0000 0.00530  0.02726  0.63165  Biso   1.000  C
  H102     1.0000 0.00450  0.03670  0.65580  Biso   1.000  H
  C132     1.0000 0.08354  0.01597  0.61489  Biso   1.000  C
  C133     1.0000 0.07920  0.00309  0.57864  Biso   1.000  C
  H103     1.0000 0.12980  0.99640  0.56590  Biso   1.000  H
  C134     1.0000 0.99980  0.00014  0.56147  Biso   1.000  C
  H104     1.0000 0.99850  0.99030  0.53740  Biso   1.000  H
  N23      1.0000 0.79060  0.04110  0.50108  Biso   1.000  N
  N24      1.0000 0.74144  0.19135  0.35038  Biso   1.000  N
  C135     1.0000 0.83980  0.10699  0.46699  Biso   1.000  C
  H105     1.0000 0.87940  0.13130  0.46460  Biso   1.000  H
  C136     1.0000 0.84550  0.07612  0.49557  Biso   1.000  C
  H106     1.0000 0.89070  0.08000  0.51200  Biso   1.000  H
  C137     1.0000 0.72616  0.03604  0.47705  Biso   1.000  C
  H107     1.0000 0.68660  0.01190  0.48050  Biso   1.000  H
  C138     1.0000 0.71595  0.06481  0.44766  Biso   1.000  C
  H108     1.0000 0.67020  0.06000  0.43160  Biso   1.000  H
  C139     1.0000 0.77390  0.10115  0.44185  Biso   1.000  C
  C140     1.0000 0.76492  0.13217  0.40984  Biso   1.000  C
  C141     1.0000 0.78050  0.17987  0.41262  Biso   1.000  C
  H109     1.0000 0.79920  0.19290  0.43440  Biso   1.000  H
  C142     1.0000 0.76760  0.20750  0.38249  Biso   1.000  C
  H110     1.0000 0.77780  0.23940  0.38470  Biso   1.000  H
  C143     1.0000 0.72890  0.14568  0.34747  Biso   1.000  C
  H111     1.0000 0.71210  0.13370  0.32510  Biso   1.000  H
  C144     1.0000 0.73958  0.11510  0.37623  Biso   1.000  C
  H112     1.0000 0.72980  0.08330  0.37300  Biso   1.000  H
  Cd9      1.0000 0.28818  0.25811  0.19779  Biso   1.000  Cd
  O17      1.0000 0.37976  0.31562  0.22962  Biso   1.000  O
  O18      1.0000 0.24078  0.31600  0.24006  Biso   1.000  O
  C145     1.0000 0.31690  0.32948  0.24711  Biso   1.000  C
  C146     1.0000 0.33190  0.36334  0.27814  Biso   1.000  C
  C147     1.0000 0.26660  0.36670  0.30140  Biso   1.000  C
  H113     1.0000 0.27130  0.38610  0.32160  Biso   1.000  H
  H114     1.0000 0.21610  0.34960  0.29760  Biso   1.000  H
  N25      1.0000 0.42482  0.23934  0.17237  Biso   1.000  N
  C148     1.0000 0.42900  0.22562  0.13771  Biso   1.000  C
  H115     1.0000 0.37760  0.21760  0.12600  Biso   1.000  H
  C149     1.0000 0.50530  0.22274  0.11835  Biso   1.000  C
  H116     1.0000 0.50450  0.21330  0.09420  Biso   1.000  H
  C150     1.0000 0.58354  0.23403  0.13511  Biso   1.000  C
  C151     1.0000 0.57920  0.24691  0.17136  Biso   1.000  C
  H117     1.0000 0.62980  0.25360  0.18410  Biso   1.000  H
  C152     1.0000 0.49980  0.24986  0.18853  Biso   1.000  C
  H118     1.0000 0.49850  0.25970  0.21260  Biso   1.000  H
  N26      1.0000 0.29060  0.20890  0.24892  Biso   1.000  N
  N27      1.0000 0.24144  0.05865  0.39962  Biso   1.000  N
  C153     1.0000 0.33980  0.14301  0.28301  Biso   1.000  C
  H119     1.0000 0.37940  0.11870  0.28540  Biso   1.000  H
  C154     1.0000 0.34550  0.17388  0.25443  Biso   1.000  C
  H120     1.0000 0.39070  0.17000  0.23800  Biso   1.000  H
  C155     1.0000 0.22616  0.21396  0.27295  Biso   1.000  C
  H121     1.0000 0.18660  0.23810  0.26950  Biso   1.000  H
  C156     1.0000 0.21595  0.18519  0.30234  Biso   1.000  C
  H122     1.0000 0.17020  0.19000  0.31840  Biso   1.000  H
  C157     1.0000 0.27390  0.14885  0.30815  Biso   1.000  C
  C158     1.0000 0.26492  0.11783  0.34016  Biso   1.000  C
  C159     1.0000 0.28050  0.07013  0.33738  Biso   1.000  C
  H123     1.0000 0.29920  0.05710  0.31560  Biso   1.000  H
  C160     1.0000 0.26760  0.04250  0.36751  Biso   1.000  C
  H124     1.0000 0.27780  0.01060  0.36530  Biso   1.000  H
  C161     1.0000 0.22890  0.10432  0.40253  Biso   1.000  C
  H125     1.0000 0.21210  0.11630  0.42490  Biso   1.000  H
  C162     1.0000 0.23958  0.13490  0.37377  Biso   1.000  C
  H126     1.0000 0.22980  0.16670  0.37700  Biso   1.000  H
  Cd10     1.0000 0.28818  0.75811  0.69779  Biso   1.000  Cd
  O19      1.0000 0.37976  0.81562  0.72962  Biso   1.000  O
  O20      1.0000 0.24078  0.81600  0.74006  Biso   1.000  O
  C163     1.0000 0.31690  0.82948  0.74711  Biso   1.000  C
  C164     1.0000 0.33190  0.86334  0.77814  Biso   1.000  C
  C165     1.0000 0.26660  0.86670  0.80140  Biso   1.000  C
  H127     1.0000 0.27130  0.88610  0.82160  Biso   1.000  H
  H128     1.0000 0.21610  0.84960  0.79760  Biso   1.000  H
  N28      1.0000 0.42482  0.73934  0.67237  Biso   1.000  N
  C166     1.0000 0.42900  0.72562  0.63771  Biso   1.000  C
  H129     1.0000 0.37760  0.71760  0.62600  Biso   1.000  H
  C167     1.0000 0.50530  0.72274  0.61835  Biso   1.000  C
  H130     1.0000 0.50450  0.71330  0.59420  Biso   1.000  H
  C168     1.0000 0.58354  0.73403  0.63511  Biso   1.000  C
  C169     1.0000 0.57920  0.74691  0.67136  Biso   1.000  C
  H131     1.0000 0.62980  0.75360  0.68410  Biso   1.000  H
  C170     1.0000 0.49980  0.74986  0.68853  Biso   1.000  C
  H132     1.0000 0.49850  0.75970  0.71260  Biso   1.000  H
  N29      1.0000 0.29060  0.70890  0.74892  Biso   1.000  N
  N30      1.0000 0.24144  0.55865  0.89962  Biso   1.000  N
  C171     1.0000 0.33980  0.64301  0.78301  Biso   1.000  C
  H133     1.0000 0.37940  0.61870  0.78540  Biso   1.000  H
  C172     1.0000 0.34550  0.67388  0.75443  Biso   1.000  C
  H134     1.0000 0.39070  0.67000  0.73800  Biso   1.000  H
  C173     1.0000 0.22616  0.71396  0.77295  Biso   1.000  C
  H135     1.0000 0.18660  0.73810  0.76950  Biso   1.000  H
  C174     1.0000 0.21595  0.68519  0.80234  Biso   1.000  C
  H136     1.0000 0.17020  0.69000  0.81840  Biso   1.000  H
  C175     1.0000 0.27390  0.64885  0.80815  Biso   1.000  C
  C176     1.0000 0.26492  0.61783  0.84016  Biso   1.000  C
  C177     1.0000 0.28050  0.57013  0.83738  Biso   1.000  C
  H137     1.0000 0.29920  0.55710  0.81560  Biso   1.000  H
  C178     1.0000 0.26760  0.54250  0.86751  Biso   1.000  C
  H138     1.0000 0.27780  0.51060  0.86530  Biso   1.000  H
  C179     1.0000 0.22890  0.60432  0.90253  Biso   1.000  C
  H139     1.0000 0.21210  0.61630  0.92490  Biso   1.000  H
  C180     1.0000 0.23958  0.63490  0.87377  Biso   1.000  C
  H140     1.0000 0.22980  0.66670  0.87700  Biso   1.000  H
  Cd11     1.0000 0.78818  0.25811  0.69779  Biso   1.000  Cd
  O21      1.0000 0.87976  0.31562  0.72962  Biso   1.000  O
  O22      1.0000 0.74078  0.31600  0.74006  Biso   1.000  O
  C181     1.0000 0.81690  0.32948  0.74711  Biso   1.000  C
  C182     1.0000 0.83190  0.36334  0.77814  Biso   1.000  C
  C183     1.0000 0.76660  0.36670  0.80140  Biso   1.000  C
  H141     1.0000 0.77130  0.38610  0.82160  Biso   1.000  H
  H142     1.0000 0.71610  0.34960  0.79760  Biso   1.000  H
  N31      1.0000 0.92482  0.23934  0.67237  Biso   1.000  N
  C184     1.0000 0.92900  0.22562  0.63771  Biso   1.000  C
  H143     1.0000 0.87760  0.21760  0.62600  Biso   1.000  H
  C185     1.0000 0.00530  0.22274  0.61835  Biso   1.000  C
  H144     1.0000 0.00450  0.21330  0.59420  Biso   1.000  H
  C186     1.0000 0.08354  0.23403  0.63511  Biso   1.000  C
  C187     1.0000 0.07920  0.24691  0.67136  Biso   1.000  C
  H145     1.0000 0.12980  0.25360  0.68410  Biso   1.000  H
  C188     1.0000 0.99980  0.24986  0.68853  Biso   1.000  C
  H146     1.0000 0.99850  0.25970  0.71260  Biso   1.000  H
  N32      1.0000 0.79060  0.20890  0.74892  Biso   1.000  N
  N33      1.0000 0.74144  0.05865  0.89962  Biso   1.000  N
  C189     1.0000 0.83980  0.14301  0.78301  Biso   1.000  C
  H147     1.0000 0.87940  0.11870  0.78540  Biso   1.000  H
  C190     1.0000 0.84550  0.17388  0.75443  Biso   1.000  C
  H148     1.0000 0.89070  0.17000  0.73800  Biso   1.000  H
  C191     1.0000 0.72616  0.21396  0.77295  Biso   1.000  C
  H149     1.0000 0.68660  0.23810  0.76950  Biso   1.000  H
  C192     1.0000 0.71595  0.18519  0.80234  Biso   1.000  C
  H150     1.0000 0.67020  0.19000  0.81840  Biso   1.000  H
  C193     1.0000 0.77390  0.14885  0.80815  Biso   1.000  C
  C194     1.0000 0.76492  0.11783  0.84016  Biso   1.000  C
  C195     1.0000 0.78050  0.07013  0.83738  Biso   1.000  C
  H151     1.0000 0.79920  0.05710  0.81560  Biso   1.000  H
  C196     1.0000 0.76760  0.04250  0.86751  Biso   1.000  C
  H152     1.0000 0.77780  0.01060  0.86530  Biso   1.000  H
  C197     1.0000 0.72890  0.10432  0.90253  Biso   1.000  C
  H153     1.0000 0.71210  0.11630  0.92490  Biso   1.000  H
  C198     1.0000 0.73958  0.13490  0.87377  Biso   1.000  C
  H154     1.0000 0.72980  0.16670  0.87700  Biso   1.000  H
  Cd12     1.0000 0.78818  0.75811  0.19779  Biso   1.000  Cd
  O23      1.0000 0.87976  0.81562  0.22962  Biso   1.000  O
  O24      1.0000 0.74078  0.81600  0.24006  Biso   1.000  O
  C199     1.0000 0.81690  0.82948  0.24711  Biso   1.000  C
  C200     1.0000 0.83190  0.86334  0.27814  Biso   1.000  C
  C201     1.0000 0.76660  0.86670  0.30140  Biso   1.000  C
  H155     1.0000 0.77130  0.88610  0.32160  Biso   1.000  H
  H156     1.0000 0.71610  0.84960  0.29760  Biso   1.000  H
  N34      1.0000 0.92482  0.73934  0.17237  Biso   1.000  N
  C202     1.0000 0.92900  0.72562  0.13771  Biso   1.000  C
  H157     1.0000 0.87760  0.71760  0.12600  Biso   1.000  H
  C203     1.0000 0.00530  0.72274  0.11835  Biso   1.000  C
  H158     1.0000 0.00450  0.71330  0.09420  Biso   1.000  H
  C204     1.0000 0.08354  0.73403  0.13511  Biso   1.000  C
  C205     1.0000 0.07920  0.74691  0.17136  Biso   1.000  C
  H159     1.0000 0.12980  0.75360  0.18410  Biso   1.000  H
  C206     1.0000 0.99980  0.74986  0.18853  Biso   1.000  C
  H160     1.0000 0.99850  0.75970  0.21260  Biso   1.000  H
  N35      1.0000 0.79060  0.70890  0.24892  Biso   1.000  N
  N36      1.0000 0.74144  0.55865  0.39962  Biso   1.000  N
  C207     1.0000 0.83980  0.64301  0.28301  Biso   1.000  C
  H161     1.0000 0.87940  0.61870  0.28540  Biso   1.000  H
  C208     1.0000 0.84550  0.67388  0.25443  Biso   1.000  C
  H162     1.0000 0.89070  0.67000  0.23800  Biso   1.000  H
  C209     1.0000 0.72616  0.71396  0.27295  Biso   1.000  C
  H163     1.0000 0.68660  0.73810  0.26950  Biso   1.000  H
  C210     1.0000 0.71595  0.68519  0.30234  Biso   1.000  C
  H164     1.0000 0.67020  0.69000  0.31840  Biso   1.000  H
  C211     1.0000 0.77390  0.64885  0.30815  Biso   1.000  C
  C212     1.0000 0.76492  0.61783  0.34016  Biso   1.000  C
  C213     1.0000 0.78050  0.57013  0.33738  Biso   1.000  C
  H165     1.0000 0.79920  0.55710  0.31560  Biso   1.000  H
  C214     1.0000 0.76760  0.54250  0.36751  Biso   1.000  C
  H166     1.0000 0.77780  0.51060  0.36530  Biso   1.000  H
  C215     1.0000 0.72890  0.60432  0.40253  Biso   1.000  C
  H167     1.0000 0.71210  0.61630  0.42490  Biso   1.000  H
  C216     1.0000 0.73958  0.63490  0.37377  Biso   1.000  C
  H168     1.0000 0.72980  0.66670  0.37700  Biso   1.000  H
  Cd13     1.0000 0.46182  0.49189  0.19779  Biso   1.000  Cd
  O25      1.0000 0.37024  0.43438  0.22962  Biso   1.000  O
  O26      1.0000 0.50922  0.43400  0.24006  Biso   1.000  O
  C217     1.0000 0.43310  0.42052  0.24711  Biso   1.000  C
  C218     1.0000 0.41810  0.38666  0.27814  Biso   1.000  C
  C219     1.0000 0.48340  0.38330  0.30140  Biso   1.000  C
  H169     1.0000 0.47870  0.36390  0.32160  Biso   1.000  H
  H170     1.0000 0.53390  0.40040  0.29760  Biso   1.000  H
  N37      1.0000 0.32518  0.51066  0.17237  Biso   1.000  N
  C220     1.0000 0.32100  0.52438  0.13771  Biso   1.000  C
  H171     1.0000 0.37240  0.53240  0.12600  Biso   1.000  H
  C221     1.0000 0.24470  0.52726  0.11835  Biso   1.000  C
  H172     1.0000 0.24550  0.53670  0.09420  Biso   1.000  H
  C222     1.0000 0.16646  0.51597  0.13511  Biso   1.000  C
  C223     1.0000 0.17080  0.50309  0.17136  Biso   1.000  C
  H173     1.0000 0.12020  0.49640  0.18410  Biso   1.000  H
  C224     1.0000 0.25020  0.50014  0.18853  Biso   1.000  C
  H174     1.0000 0.25150  0.49030  0.21260  Biso   1.000  H
  N38      1.0000 0.45940  0.54110  0.24892  Biso   1.000  N
  N39      1.0000 0.50856  0.69135  0.39962  Biso   1.000  N
  C225     1.0000 0.41020  0.60699  0.28301  Biso   1.000  C
  H175     1.0000 0.37060  0.63130  0.28540  Biso   1.000  H
  C226     1.0000 0.40450  0.57612  0.25443  Biso   1.000  C
  H176     1.0000 0.35930  0.58000  0.23800  Biso   1.000  H
  C227     1.0000 0.52384  0.53604  0.27295  Biso   1.000  C
  H177     1.0000 0.56340  0.51190  0.26950  Biso   1.000  H
  C228     1.0000 0.53405  0.56481  0.30234  Biso   1.000  C
  H178     1.0000 0.57980  0.56000  0.31840  Biso   1.000  H
  C229     1.0000 0.47610  0.60115  0.30815  Biso   1.000  C
  C230     1.0000 0.48508  0.63217  0.34016  Biso   1.000  C
  C231     1.0000 0.46950  0.67987  0.33738  Biso   1.000  C
  H179     1.0000 0.45080  0.69290  0.31560  Biso   1.000  H
  C232     1.0000 0.48240  0.70750  0.36751  Biso   1.000  C
  H180     1.0000 0.47220  0.73940  0.36530  Biso   1.000  H
  C233     1.0000 0.52110  0.64568  0.40253  Biso   1.000  C
  H181     1.0000 0.53790  0.63370  0.42490  Biso   1.000  H
  C234     1.0000 0.51042  0.61510  0.37377  Biso   1.000  C
  H182     1.0000 0.52020  0.58330  0.37700  Biso   1.000  H
  Cd14     1.0000 0.46182  0.99189  0.69779  Biso   1.000  Cd
  O27      1.0000 0.37024  0.93438  0.72962  Biso   1.000  O
  O28      1.0000 0.50922  0.93400  0.74006  Biso   1.000  O
  C235     1.0000 0.43310  0.92052  0.74711  Biso   1.000  C
  C236     1.0000 0.41810  0.88666  0.77814  Biso   1.000  C
  C237     1.0000 0.48340  0.88330  0.80140  Biso   1.000  C
  H183     1.0000 0.47870  0.86390  0.82160  Biso   1.000  H
  H184     1.0000 0.53390  0.90040  0.79760  Biso   1.000  H
  N40      1.0000 0.32518  0.01066  0.67237  Biso   1.000  N
  C238     1.0000 0.32100  0.02438  0.63771  Biso   1.000  C
  H185     1.0000 0.37240  0.03240  0.62600  Biso   1.000  H
  C239     1.0000 0.24470  0.02726  0.61835  Biso   1.000  C
  H186     1.0000 0.24550  0.03670  0.59420  Biso   1.000  H
  C240     1.0000 0.16646  0.01597  0.63511  Biso   1.000  C
  C241     1.0000 0.17080  0.00309  0.67136  Biso   1.000  C
  H187     1.0000 0.12020  0.99640  0.68410  Biso   1.000  H
  C242     1.0000 0.25020  0.00014  0.68853  Biso   1.000  C
  H188     1.0000 0.25150  0.99030  0.71260  Biso   1.000  H
  N41      1.0000 0.45940  0.04110  0.74892  Biso   1.000  N
  N42      1.0000 0.50856  0.19135  0.89962  Biso   1.000  N
  C243     1.0000 0.41020  0.10699  0.78301  Biso   1.000  C
  H189     1.0000 0.37060  0.13130  0.78540  Biso   1.000  H
  C244     1.0000 0.40450  0.07612  0.75443  Biso   1.000  C
  H190     1.0000 0.35930  0.08000  0.73800  Biso   1.000  H
  C245     1.0000 0.52384  0.03604  0.77295  Biso   1.000  C
  H191     1.0000 0.56340  0.01190  0.76950  Biso   1.000  H
  C246     1.0000 0.53405  0.06481  0.80234  Biso   1.000  C
  H192     1.0000 0.57980  0.06000  0.81840  Biso   1.000  H
  C247     1.0000 0.47610  0.10115  0.80815  Biso   1.000  C
  C248     1.0000 0.48508  0.13217  0.84016  Biso   1.000  C
  C249     1.0000 0.46950  0.17987  0.83738  Biso   1.000  C
  H193     1.0000 0.45080  0.19290  0.81560  Biso   1.000  H
  C250     1.0000 0.48240  0.20750  0.86751  Biso   1.000  C
  H194     1.0000 0.47220  0.23940  0.86530  Biso   1.000  H
  C251     1.0000 0.52110  0.14568  0.90253  Biso   1.000  C
  H195     1.0000 0.53790  0.13370  0.92490  Biso   1.000  H
  C252     1.0000 0.51042  0.11510  0.87377  Biso   1.000  C
  H196     1.0000 0.52020  0.08330  0.87700  Biso   1.000  H
  Cd15     1.0000 0.96182  0.49189  0.69779  Biso   1.000  Cd
  O29      1.0000 0.87024  0.43438  0.72962  Biso   1.000  O
  O30      1.0000 0.00922  0.43400  0.74006  Biso   1.000  O
  C253     1.0000 0.93310  0.42052  0.74711  Biso   1.000  C
  C254     1.0000 0.91810  0.38666  0.77814  Biso   1.000  C
  C255     1.0000 0.98340  0.38330  0.80140  Biso   1.000  C
  H197     1.0000 0.97870  0.36390  0.82160  Biso   1.000  H
  H198     1.0000 0.03390  0.40040  0.79760  Biso   1.000  H
  N43      1.0000 0.82518  0.51066  0.67237  Biso   1.000  N
  C256     1.0000 0.82100  0.52438  0.63771  Biso   1.000  C
  H199     1.0000 0.87240  0.53240  0.62600  Biso   1.000  H
  C257     1.0000 0.74470  0.52726  0.61835  Biso   1.000  C
  H200     1.0000 0.74550  0.53670  0.59420  Biso   1.000  H
  C258     1.0000 0.66646  0.51597  0.63511  Biso   1.000  C
  C259     1.0000 0.67080  0.50309  0.67136  Biso   1.000  C
  H201     1.0000 0.62020  0.49640  0.68410  Biso   1.000  H
  C260     1.0000 0.75020  0.50014  0.68853  Biso   1.000  C
  H202     1.0000 0.75150  0.49030  0.71260  Biso   1.000  H
  N44      1.0000 0.95940  0.54110  0.74892  Biso   1.000  N
  N45      1.0000 0.00856  0.69135  0.89962  Biso   1.000  N
  C261     1.0000 0.91020  0.60699  0.78301  Biso   1.000  C
  H203     1.0000 0.87060  0.63130  0.78540  Biso   1.000  H
  C262     1.0000 0.90450  0.57612  0.75443  Biso   1.000  C
  H204     1.0000 0.85930  0.58000  0.73800  Biso   1.000  H
  C263     1.0000 0.02384  0.53604  0.77295  Biso   1.000  C
  H205     1.0000 0.06340  0.51190  0.76950  Biso   1.000  H
  C264     1.0000 0.03405  0.56481  0.80234  Biso   1.000  C
  H206     1.0000 0.07980  0.56000  0.81840  Biso   1.000  H
  C265     1.0000 0.97610  0.60115  0.80815  Biso   1.000  C
  C266     1.0000 0.98508  0.63217  0.84016  Biso   1.000  C
  C267     1.0000 0.96950  0.67987  0.83738  Biso   1.000  C
  H207     1.0000 0.95080  0.69290  0.81560  Biso   1.000  H
  C268     1.0000 0.98240  0.70750  0.86751  Biso   1.000  C
  H208     1.0000 0.97220  0.73940  0.86530  Biso   1.000  H
  C269     1.0000 0.02110  0.64568  0.90253  Biso   1.000  C
  H209     1.0000 0.03790  0.63370  0.92490  Biso   1.000  H
  C270     1.0000 0.01042  0.61510  0.87377  Biso   1.000  C
  H210     1.0000 0.02020  0.58330  0.87700  Biso   1.000  H
  Cd16     1.0000 0.96182  0.99189  0.19779  Biso   1.000  Cd
  O31      1.0000 0.87024  0.93438  0.22962  Biso   1.000  O
  O32      1.0000 0.00922  0.93400  0.24006  Biso   1.000  O
  C271     1.0000 0.93310  0.92052  0.24711  Biso   1.000  C
  C272     1.0000 0.91810  0.88666  0.27814  Biso   1.000  C
  C273     1.0000 0.98340  0.88330  0.30140  Biso   1.000  C
  H211     1.0000 0.97870  0.86390  0.32160  Biso   1.000  H
  H212     1.0000 0.03390  0.90040  0.29760  Biso   1.000  H
  N46      1.0000 0.82518  0.01066  0.17237  Biso   1.000  N
  C274     1.0000 0.82100  0.02438  0.13771  Biso   1.000  C
  H213     1.0000 0.87240  0.03240  0.12600  Biso   1.000  H
  C275     1.0000 0.74470  0.02726  0.11835  Biso   1.000  C
  H214     1.0000 0.74550  0.03670  0.09420  Biso   1.000  H
  C276     1.0000 0.66646  0.01597  0.13511  Biso   1.000  C
  C277     1.0000 0.67080  0.00309  0.17136  Biso   1.000  C
  H215     1.0000 0.62020  0.99640  0.18410  Biso   1.000  H
  C278     1.0000 0.75020  0.00014  0.18853  Biso   1.000  C
  H216     1.0000 0.75150  0.99030  0.21260  Biso   1.000  H
  N47      1.0000 0.95940  0.04110  0.24892  Biso   1.000  N
  N48      1.0000 0.00856  0.19135  0.39962  Biso   1.000  N
  C279     1.0000 0.91020  0.10699  0.28301  Biso   1.000  C
  H217     1.0000 0.87060  0.13130  0.28540  Biso   1.000  H
  C280     1.0000 0.90450  0.07612  0.25443  Biso   1.000  C
  H218     1.0000 0.85930  0.08000  0.23800  Biso   1.000  H
  C281     1.0000 0.02384  0.03604  0.27295  Biso   1.000  C
  H219     1.0000 0.06340  0.01190  0.26950  Biso   1.000  H
  C282     1.0000 0.03405  0.06481  0.30234  Biso   1.000  C
  H220     1.0000 0.07980  0.06000  0.31840  Biso   1.000  H
  C283     1.0000 0.97610  0.10115  0.30815  Biso   1.000  C
  C284     1.0000 0.98508  0.13217  0.34016  Biso   1.000  C
  C285     1.0000 0.96950  0.17987  0.33738  Biso   1.000  C
  H221     1.0000 0.95080  0.19290  0.31560  Biso   1.000  H
  C286     1.0000 0.98240  0.20750  0.36751  Biso   1.000  C
  H222     1.0000 0.97220  0.23940  0.36530  Biso   1.000  H
  C287     1.0000 0.02110  0.14568  0.40253  Biso   1.000  C
  H223     1.0000 0.03790  0.13370  0.42490  Biso   1.000  H
  C288     1.0000 0.01042  0.11510  0.37377  Biso   1.000  C
  H224     1.0000 0.02020  0.08330  0.37700  Biso   1.000  H
  Cd17     1.0000 0.53818  0.74189  0.44779  Biso   1.000  Cd
  O33      1.0000 0.62976  0.68438  0.47962  Biso   1.000  O
  O34      1.0000 0.49078  0.68400  0.49006  Biso   1.000  O
  C289     1.0000 0.56690  0.67052  0.49711  Biso   1.000  C
  C290     1.0000 0.58190  0.63666  0.52814  Biso   1.000  C
  C291     1.0000 0.51660  0.63330  0.55140  Biso   1.000  C
  H225     1.0000 0.52130  0.61390  0.57160  Biso   1.000  H
  H226     1.0000 0.46610  0.65040  0.54760  Biso   1.000  H
  N49      1.0000 0.67482  0.76066  0.42237  Biso   1.000  N
  C292     1.0000 0.67900  0.77438  0.38771  Biso   1.000  C
  H227     1.0000 0.62760  0.78240  0.37600  Biso   1.000  H
  C293     1.0000 0.75530  0.77726  0.36835  Biso   1.000  C
  H228     1.0000 0.75450  0.78670  0.34420  Biso   1.000  H
  C294     1.0000 0.83354  0.76597  0.38511  Biso   1.000  C
  C295     1.0000 0.82920  0.75309  0.42136  Biso   1.000  C
  H229     1.0000 0.87980  0.74640  0.43410  Biso   1.000  H
  C296     1.0000 0.74980  0.75014  0.43853  Biso   1.000  C
  H230     1.0000 0.74850  0.74030  0.46260  Biso   1.000  H
  N50      1.0000 0.54060  0.79110  0.49892  Biso   1.000  N
  N51      1.0000 0.49144  0.94135  0.64962  Biso   1.000  N
  C297     1.0000 0.58980  0.85699  0.53301  Biso   1.000  C
  H231     1.0000 0.62940  0.88130  0.53540  Biso   1.000  H
  C298     1.0000 0.59550  0.82612  0.50443  Biso   1.000  C
  H232     1.0000 0.64070  0.83000  0.48800  Biso   1.000  H
  C299     1.0000 0.47616  0.78604  0.52295  Biso   1.000  C
  H233     1.0000 0.43660  0.76190  0.51950  Biso   1.000  H
  C300     1.0000 0.46595  0.81481  0.55234  Biso   1.000  C
  H234     1.0000 0.42020  0.81000  0.56840  Biso   1.000  H
  C301     1.0000 0.52390  0.85115  0.55815  Biso   1.000  C
  C302     1.0000 0.51492  0.88217  0.59016  Biso   1.000  C
  C303     1.0000 0.53050  0.92987  0.58738  Biso   1.000  C
  H235     1.0000 0.54920  0.94290  0.56560  Biso   1.000  H
  C304     1.0000 0.51760  0.95750  0.61751  Biso   1.000  C
  H236     1.0000 0.52780  0.98940  0.61530  Biso   1.000  H
  C305     1.0000 0.47890  0.89568  0.65253  Biso   1.000  C
  H237     1.0000 0.46210  0.88370  0.67490  Biso   1.000  H
  C306     1.0000 0.48958  0.86510  0.62377  Biso   1.000  C
  H238     1.0000 0.47980  0.83330  0.62700  Biso   1.000  H
  Cd18     1.0000 0.53818  0.24189  0.94779  Biso   1.000  Cd
  O35      1.0000 0.62976  0.18438  0.97962  Biso   1.000  O
  O36      1.0000 0.49078  0.18400  0.99006  Biso   1.000  O
  C307     1.0000 0.56690  0.17052  0.99711  Biso   1.000  C
  C308     1.0000 0.58190  0.13666  0.02814  Biso   1.000  C
  C309     1.0000 0.51660  0.13330  0.05140  Biso   1.000  C
  H239     1.0000 0.52130  0.11390  0.07160  Biso   1.000  H
  H240     1.0000 0.46610  0.15040  0.04760  Biso   1.000  H
  N52      1.0000 0.67482  0.26066  0.92237  Biso   1.000  N
  C310     1.0000 0.67900  0.27438  0.88771  Biso   1.000  C
  H241     1.0000 0.62760  0.28240  0.87600  Biso   1.000  H
  C311     1.0000 0.75530  0.27726  0.86835  Biso   1.000  C
  H242     1.0000 0.75450  0.28670  0.84420  Biso   1.000  H
  C312     1.0000 0.83354  0.26597  0.88511  Biso   1.000  C
  C313     1.0000 0.82920  0.25309  0.92136  Biso   1.000  C
  H243     1.0000 0.87980  0.24640  0.93410  Biso   1.000  H
  C314     1.0000 0.74980  0.25014  0.93853  Biso   1.000  C
  H244     1.0000 0.74850  0.24030  0.96260  Biso   1.000  H
  N53      1.0000 0.54060  0.29110  0.99892  Biso   1.000  N
  N54      1.0000 0.49144  0.44135  0.14962  Biso   1.000  N
  C315     1.0000 0.58980  0.35699  0.03301  Biso   1.000  C
  H245     1.0000 0.62940  0.38130  0.03540  Biso   1.000  H
  C316     1.0000 0.59550  0.32612  0.00443  Biso   1.000  C
  H246     1.0000 0.64070  0.33000  0.98800  Biso   1.000  H
  C317     1.0000 0.47616  0.28604  0.02295  Biso   1.000  C
  H247     1.0000 0.43660  0.26190  0.01950  Biso   1.000  H
  C318     1.0000 0.46595  0.31481  0.05234  Biso   1.000  C
  H248     1.0000 0.42020  0.31000  0.06840  Biso   1.000  H
  C319     1.0000 0.52390  0.35115  0.05815  Biso   1.000  C
  C320     1.0000 0.51492  0.38217  0.09016  Biso   1.000  C
  C321     1.0000 0.53050  0.42987  0.08738  Biso   1.000  C
  H249     1.0000 0.54920  0.44290  0.06560  Biso   1.000  H
  C322     1.0000 0.51760  0.45750  0.11751  Biso   1.000  C
  H250     1.0000 0.52780  0.48940  0.11530  Biso   1.000  H
  C323     1.0000 0.47890  0.39568  0.15253  Biso   1.000  C
  H251     1.0000 0.46210  0.38370  0.17490  Biso   1.000  H
  C324     1.0000 0.48958  0.36510  0.12377  Biso   1.000  C
  H252     1.0000 0.47980  0.33330  0.12700  Biso   1.000  H
  Cd19     1.0000 0.03818  0.74189  0.94779  Biso   1.000  Cd
  O37      1.0000 0.12976  0.68438  0.97962  Biso   1.000  O
  O38      1.0000 0.99078  0.68400  0.99006  Biso   1.000  O
  C325     1.0000 0.06690  0.67052  0.99711  Biso   1.000  C
  C326     1.0000 0.08190  0.63666  0.02814  Biso   1.000  C
  C327     1.0000 0.01660  0.63330  0.05140  Biso   1.000  C
  H253     1.0000 0.02130  0.61390  0.07160  Biso   1.000  H
  H254     1.0000 0.96610  0.65040  0.04760  Biso   1.000  H
  N55      1.0000 0.17482  0.76066  0.92237  Biso   1.000  N
  C328     1.0000 0.17900  0.77438  0.88771  Biso   1.000  C
  H255     1.0000 0.12760  0.78240  0.87600  Biso   1.000  H
  C329     1.0000 0.25530  0.77726  0.86835  Biso   1.000  C
  H256     1.0000 0.25450  0.78670  0.84420  Biso   1.000  H
  C330     1.0000 0.33354  0.76597  0.88511  Biso   1.000  C
  C331     1.0000 0.32920  0.75309  0.92136  Biso   1.000  C
  H257     1.0000 0.37980  0.74640  0.93410  Biso   1.000  H
  C332     1.0000 0.24980  0.75014  0.93853  Biso   1.000  C
  H258     1.0000 0.24850  0.74030  0.96260  Biso   1.000  H
  N56      1.0000 0.04060  0.79110  0.99892  Biso   1.000  N
  N57      1.0000 0.99144  0.94135  0.14962  Biso   1.000  N
  C333     1.0000 0.08980  0.85699  0.03301  Biso   1.000  C
  H259     1.0000 0.12940  0.88130  0.03540  Biso   1.000  H
  C334     1.0000 0.09550  0.82612  0.00443  Biso   1.000  C
  H260     1.0000 0.14070  0.83000  0.98800  Biso   1.000  H
  C335     1.0000 0.97616  0.78604  0.02295  Biso   1.000  C
  H261     1.0000 0.93660  0.76190  0.01950  Biso   1.000  H
  C336     1.0000 0.96595  0.81481  0.05234  Biso   1.000  C
  H262     1.0000 0.92020  0.81000  0.06840  Biso   1.000  H
  C337     1.0000 0.02390  0.85115  0.05815  Biso   1.000  C
  C338     1.0000 0.01492  0.88217  0.09016  Biso   1.000  C
  C339     1.0000 0.03050  0.92987  0.08738  Biso   1.000  C
  H263     1.0000 0.04920  0.94290  0.06560  Biso   1.000  H
  C340     1.0000 0.01760  0.95750  0.11751  Biso   1.000  C
  H264     1.0000 0.02780  0.98940  0.11530  Biso   1.000  H
  C341     1.0000 0.97890  0.89568  0.15253  Biso   1.000  C
  H265     1.0000 0.96210  0.88370  0.17490  Biso   1.000  H
  C342     1.0000 0.98958  0.86510  0.12377  Biso   1.000  C
  H266     1.0000 0.97980  0.83330  0.12700  Biso   1.000  H
  Cd20     1.0000 0.03818  0.24189  0.44779  Biso   1.000  Cd
  O39      1.0000 0.12976  0.18438  0.47962  Biso   1.000  O
  O40      1.0000 0.99078  0.18400  0.49006  Biso   1.000  O
  C343     1.0000 0.06690  0.17052  0.49711  Biso   1.000  C
  C344     1.0000 0.08190  0.13666  0.52814  Biso   1.000  C
  C345     1.0000 0.01660  0.13330  0.55140  Biso   1.000  C
  H267     1.0000 0.02130  0.11390  0.57160  Biso   1.000  H
  H268     1.0000 0.96610  0.15040  0.54760  Biso   1.000  H
  N58      1.0000 0.17482  0.26066  0.42237  Biso   1.000  N
  C346     1.0000 0.17900  0.27438  0.38771  Biso   1.000  C
  H269     1.0000 0.12760  0.28240  0.37600  Biso   1.000  H
  C347     1.0000 0.25530  0.27726  0.36835  Biso   1.000  C
  H270     1.0000 0.25450  0.28670  0.34420  Biso   1.000  H
  C348     1.0000 0.33354  0.26597  0.38511  Biso   1.000  C
  C349     1.0000 0.32920  0.25309  0.42136  Biso   1.000  C
  H271     1.0000 0.37980  0.24640  0.43410  Biso   1.000  H
  C350     1.0000 0.24980  0.25014  0.43853  Biso   1.000  C
  H272     1.0000 0.24850  0.24030  0.46260  Biso   1.000  H
  N59      1.0000 0.04060  0.29110  0.49892  Biso   1.000  N
  N60      1.0000 0.99144  0.44135  0.64962  Biso   1.000  N
  C351     1.0000 0.08980  0.35699  0.53301  Biso   1.000  C
  H273     1.0000 0.12940  0.38130  0.53540  Biso   1.000  H
  C352     1.0000 0.09550  0.32612  0.50443  Biso   1.000  C
  H274     1.0000 0.14070  0.33000  0.48800  Biso   1.000  H
  C353     1.0000 0.97616  0.28604  0.52295  Biso   1.000  C
  H275     1.0000 0.93660  0.26190  0.51950  Biso   1.000  H
  C354     1.0000 0.96595  0.31481  0.55234  Biso   1.000  C
  H276     1.0000 0.92020  0.31000  0.56840  Biso   1.000  H
  C355     1.0000 0.02390  0.35115  0.55815  Biso   1.000  C
  C356     1.0000 0.01492  0.38217  0.59016  Biso   1.000  C
  C357     1.0000 0.03050  0.42987  0.58738  Biso   1.000  C
  H277     1.0000 0.04920  0.44290  0.56560  Biso   1.000  H
  C358     1.0000 0.01760  0.45750  0.61751  Biso   1.000  C
  H278     1.0000 0.02780  0.48940  0.61530  Biso   1.000  H
  C359     1.0000 0.97890  0.39568  0.65253  Biso   1.000  C
  H279     1.0000 0.96210  0.38370  0.67490  Biso   1.000  H
  C360     1.0000 0.98958  0.36510  0.62377  Biso   1.000  C
  H280     1.0000 0.97980  0.33330  0.62700  Biso   1.000  H
  Cd21     1.0000 0.71182  0.50811  0.44779  Biso   1.000  Cd
  O41      1.0000 0.62024  0.56562  0.47962  Biso   1.000  O
  O42      1.0000 0.75922  0.56600  0.49006  Biso   1.000  O
  C361     1.0000 0.68310  0.57948  0.49711  Biso   1.000  C
  C362     1.0000 0.66810  0.61334  0.52814  Biso   1.000  C
  C363     1.0000 0.73340  0.61670  0.55140  Biso   1.000  C
  H281     1.0000 0.72870  0.63610  0.57160  Biso   1.000  H
  H282     1.0000 0.78390  0.59960  0.54760  Biso   1.000  H
  N61      1.0000 0.57518  0.48934  0.42237  Biso   1.000  N
  C364     1.0000 0.57100  0.47562  0.38771  Biso   1.000  C
  H283     1.0000 0.62240  0.46760  0.37600  Biso   1.000  H
  C365     1.0000 0.49470  0.47274  0.36835  Biso   1.000  C
  H284     1.0000 0.49550  0.46330  0.34420  Biso   1.000  H
  C366     1.0000 0.41646  0.48403  0.38511  Biso   1.000  C
  C367     1.0000 0.42080  0.49691  0.42136  Biso   1.000  C
  H285     1.0000 0.37020  0.50360  0.43410  Biso   1.000  H
  C368     1.0000 0.50020  0.49986  0.43853  Biso   1.000  C
  H286     1.0000 0.50150  0.50970  0.46260  Biso   1.000  H
  N62      1.0000 0.70940  0.45890  0.49892  Biso   1.000  N
  N63      1.0000 0.75856  0.30865  0.64962  Biso   1.000  N
  C369     1.0000 0.66020  0.39301  0.53301  Biso   1.000  C
  H287     1.0000 0.62060  0.36870  0.53540  Biso   1.000  H
  C370     1.0000 0.65450  0.42388  0.50443  Biso   1.000  C
  H288     1.0000 0.60930  0.42000  0.48800  Biso   1.000  H
  C371     1.0000 0.77384  0.46396  0.52295  Biso   1.000  C
  H289     1.0000 0.81340  0.48810  0.51950  Biso   1.000  H
  C372     1.0000 0.78405  0.43519  0.55234  Biso   1.000  C
  H290     1.0000 0.82980  0.44000  0.56840  Biso   1.000  H
  C373     1.0000 0.72610  0.39885  0.55815  Biso   1.000  C
  C374     1.0000 0.73508  0.36783  0.59016  Biso   1.000  C
  C375     1.0000 0.71950  0.32013  0.58738  Biso   1.000  C
  H291     1.0000 0.70080  0.30710  0.56560  Biso   1.000  H
  C376     1.0000 0.73240  0.29250  0.61751  Biso   1.000  C
  H292     1.0000 0.72220  0.26060  0.61530  Biso   1.000  H
  C377     1.0000 0.77110  0.35432  0.65253  Biso   1.000  C
  H293     1.0000 0.78790  0.36630  0.67490  Biso   1.000  H
  C378     1.0000 0.76042  0.38490  0.62377  Biso   1.000  C
  H294     1.0000 0.77020  0.41670  0.62700  Biso   1.000  H
  Cd22     1.0000 0.71182  0.00811  0.94779  Biso   1.000  Cd
  O43      1.0000 0.62024  0.06562  0.97962  Biso   1.000  O
  O44      1.0000 0.75922  0.06600  0.99006  Biso   1.000  O
  C379     1.0000 0.68310  0.07948  0.99711  Biso   1.000  C
  C380     1.0000 0.66810  0.11334  0.02814  Biso   1.000  C
  C381     1.0000 0.73340  0.11670  0.05140  Biso   1.000  C
  H295     1.0000 0.72870  0.13610  0.07160  Biso   1.000  H
  H296     1.0000 0.78390  0.09960  0.04760  Biso   1.000  H
  N64      1.0000 0.57518  0.98934  0.92237  Biso   1.000  N
  C382     1.0000 0.57100  0.97562  0.88771  Biso   1.000  C
  H297     1.0000 0.62240  0.96760  0.87600  Biso   1.000  H
  C383     1.0000 0.49470  0.97274  0.86835  Biso   1.000  C
  H298     1.0000 0.49550  0.96330  0.84420  Biso   1.000  H
  C384     1.0000 0.41646  0.98403  0.88511  Biso   1.000  C
  C385     1.0000 0.42080  0.99691  0.92136  Biso   1.000  C
  H299     1.0000 0.37020  0.00360  0.93410  Biso   1.000  H
  C386     1.0000 0.50020  0.99986  0.93853  Biso   1.000  C
  H300     1.0000 0.50150  0.00970  0.96260  Biso   1.000  H
  N65      1.0000 0.70940  0.95890  0.99892  Biso   1.000  N
  N66      1.0000 0.75856  0.80865  0.14962  Biso   1.000  N
  C387     1.0000 0.66020  0.89301  0.03301  Biso   1.000  C
  H301     1.0000 0.62060  0.86870  0.03540  Biso   1.000  H
  C388     1.0000 0.65450  0.92388  0.00443  Biso   1.000  C
  H302     1.0000 0.60930  0.92000  0.98800  Biso   1.000  H
  C389     1.0000 0.77384  0.96396  0.02295  Biso   1.000  C
  H303     1.0000 0.81340  0.98810  0.01950  Biso   1.000  H
  C390     1.0000 0.78405  0.93519  0.05234  Biso   1.000  C
  H304     1.0000 0.82980  0.94000  0.06840  Biso   1.000  H
  C391     1.0000 0.72610  0.89885  0.05815  Biso   1.000  C
  C392     1.0000 0.73508  0.86783  0.09016  Biso   1.000  C
  C393     1.0000 0.71950  0.82013  0.08738  Biso   1.000  C
  H305     1.0000 0.70080  0.80710  0.06560  Biso   1.000  H
  C394     1.0000 0.73240  0.79250  0.11751  Biso   1.000  C
  H306     1.0000 0.72220  0.76060  0.11530  Biso   1.000  H
  C395     1.0000 0.77110  0.85432  0.15253  Biso   1.000  C
  H307     1.0000 0.78790  0.86630  0.17490  Biso   1.000  H
  C396     1.0000 0.76042  0.88490  0.12377  Biso   1.000  C
  H308     1.0000 0.77020  0.91670  0.12700  Biso   1.000  H
  Cd23     1.0000 0.21182  0.50811  0.94779  Biso   1.000  Cd
  O45      1.0000 0.12024  0.56562  0.97962  Biso   1.000  O
  O46      1.0000 0.25922  0.56600  0.99006  Biso   1.000  O
  C397     1.0000 0.18310  0.57948  0.99711  Biso   1.000  C
  C398     1.0000 0.16810  0.61334  0.02814  Biso   1.000  C
  C399     1.0000 0.23340  0.61670  0.05140  Biso   1.000  C
  H309     1.0000 0.22870  0.63610  0.07160  Biso   1.000  H
  H310     1.0000 0.28390  0.59960  0.04760  Biso   1.000  H
  N67      1.0000 0.07518  0.48934  0.92237  Biso   1.000  N
  C400     1.0000 0.07100  0.47562  0.88771  Biso   1.000  C
  H311     1.0000 0.12240  0.46760  0.87600  Biso   1.000  H
  C401     1.0000 0.99470  0.47274  0.86835  Biso   1.000  C
  H312     1.0000 0.99550  0.46330  0.84420  Biso   1.000  H
  C402     1.0000 0.91646  0.48403  0.88511  Biso   1.000  C
  C403     1.0000 0.92080  0.49691  0.92136  Biso   1.000  C
  H313     1.0000 0.87020  0.50360  0.93410  Biso   1.000  H
  C404     1.0000 0.00020  0.49986  0.93853  Biso   1.000  C
  H314     1.0000 0.00150  0.50970  0.96260  Biso   1.000  H
  N68      1.0000 0.20940  0.45890  0.99892  Biso   1.000  N
  N69      1.0000 0.25856  0.30865  0.14962  Biso   1.000  N
  C405     1.0000 0.16020  0.39301  0.03301  Biso   1.000  C
  H315     1.0000 0.12060  0.36870  0.03540  Biso   1.000  H
  C406     1.0000 0.15450  0.42388  0.00443  Biso   1.000  C
  H316     1.0000 0.10930  0.42000  0.98800  Biso   1.000  H
  C407     1.0000 0.27384  0.46396  0.02295  Biso   1.000  C
  H317     1.0000 0.31340  0.48810  0.01950  Biso   1.000  H
  C408     1.0000 0.28405  0.43519  0.05234  Biso   1.000  C
  H318     1.0000 0.32980  0.44000  0.06840  Biso   1.000  H
  C409     1.0000 0.22610  0.39885  0.05815  Biso   1.000  C
  C410     1.0000 0.23508  0.36783  0.09016  Biso   1.000  C
  C411     1.0000 0.21950  0.32013  0.08738  Biso   1.000  C
  H319     1.0000 0.20080  0.30710  0.06560  Biso   1.000  H
  C412     1.0000 0.23240  0.29250  0.11751  Biso   1.000  C
  H320     1.0000 0.22220  0.26060  0.11530  Biso   1.000  H
  C413     1.0000 0.27110  0.35432  0.15253  Biso   1.000  C
  H321     1.0000 0.28790  0.36630  0.17490  Biso   1.000  H
  C414     1.0000 0.26042  0.38490  0.12377  Biso   1.000  C
  H322     1.0000 0.27020  0.41670  0.12700  Biso   1.000  H
  Cd24     1.0000 0.21182  0.00811  0.44779  Biso   1.000  Cd
  O47      1.0000 0.12024  0.06562  0.47962  Biso   1.000  O
  O48      1.0000 0.25922  0.06600  0.49006  Biso   1.000  O
  C415     1.0000 0.18310  0.07948  0.49711  Biso   1.000  C
  C416     1.0000 0.16810  0.11334  0.52814  Biso   1.000  C
  C417     1.0000 0.23340  0.11670  0.55140  Biso   1.000  C
  H323     1.0000 0.22870  0.13610  0.57160  Biso   1.000  H
  H324     1.0000 0.28390  0.09960  0.54760  Biso   1.000  H
  N70      1.0000 0.07518  0.98934  0.42237  Biso   1.000  N
  C418     1.0000 0.07100  0.97562  0.38771  Biso   1.000  C
  H325     1.0000 0.12240  0.96760  0.37600  Biso   1.000  H
  C419     1.0000 0.99470  0.97274  0.36835  Biso   1.000  C
  H326     1.0000 0.99550  0.96330  0.34420  Biso   1.000  H
  C420     1.0000 0.91646  0.98403  0.38511  Biso   1.000  C
  C421     1.0000 0.92080  0.99691  0.42136  Biso   1.000  C
  H327     1.0000 0.87020  0.00360  0.43410  Biso   1.000  H
  C422     1.0000 0.00020  0.99986  0.43853  Biso   1.000  C
  H328     1.0000 0.00150  0.00970  0.46260  Biso   1.000  H
  N71      1.0000 0.20940  0.95890  0.49892  Biso   1.000  N
  N72      1.0000 0.25856  0.80865  0.64962  Biso   1.000  N
  C423     1.0000 0.16020  0.89301  0.53301  Biso   1.000  C
  H329     1.0000 0.12060  0.86870  0.53540  Biso   1.000  H
  C424     1.0000 0.15450  0.92388  0.50443  Biso   1.000  C
  H330     1.0000 0.10930  0.92000  0.48800  Biso   1.000  H
  C425     1.0000 0.27384  0.96396  0.52295  Biso   1.000  C
  H331     1.0000 0.31340  0.98810  0.51950  Biso   1.000  H
  C426     1.0000 0.28405  0.93519  0.55234  Biso   1.000  C
  H332     1.0000 0.32980  0.94000  0.56840  Biso   1.000  H
  C427     1.0000 0.22610  0.89885  0.55815  Biso   1.000  C
  C428     1.0000 0.23508  0.86783  0.59016  Biso   1.000  C
  C429     1.0000 0.21950  0.82013  0.58738  Biso   1.000  C
  H333     1.0000 0.20080  0.80710  0.56560  Biso   1.000  H
  C430     1.0000 0.23240  0.79250  0.61751  Biso   1.000  C
  H334     1.0000 0.22220  0.76060  0.61530  Biso   1.000  H
  C431     1.0000 0.27110  0.85432  0.65253  Biso   1.000  C
  H335     1.0000 0.28790  0.86630  0.67490  Biso   1.000  H
  C432     1.0000 0.26042  0.88490  0.62377  Biso   1.000  C
  H336     1.0000 0.27020  0.91670  0.62700  Biso   1.000  H
  Cd25     1.0000 0.71182  0.74189  0.80221  Biso   1.000  Cd
  O49      1.0000 0.62024  0.68438  0.77038  Biso   1.000  O
  O50      1.0000 0.75922  0.68400  0.75994  Biso   1.000  O
  C433     1.0000 0.68310  0.67052  0.75289  Biso   1.000  C
  C434     1.0000 0.66810  0.63666  0.72186  Biso   1.000  C
  C435     1.0000 0.73340  0.63330  0.69860  Biso   1.000  C
  H337     1.0000 0.72870  0.61390  0.67840  Biso   1.000  H
  H338     1.0000 0.78390  0.65040  0.70240  Biso   1.000  H
  N73      1.0000 0.57518  0.76066  0.82763  Biso   1.000  N
  C436     1.0000 0.57100  0.77438  0.86229  Biso   1.000  C
  H339     1.0000 0.62240  0.78240  0.87400  Biso   1.000  H
  C437     1.0000 0.49470  0.77726  0.88165  Biso   1.000  C
  H340     1.0000 0.49550  0.78670  0.90580  Biso   1.000  H
  C438     1.0000 0.41646  0.76597  0.86489  Biso   1.000  C
  C439     1.0000 0.42080  0.75309  0.82864  Biso   1.000  C
  H341     1.0000 0.37020  0.74640  0.81590  Biso   1.000  H
  C440     1.0000 0.50020  0.75014  0.81147  Biso   1.000  C
  H342     1.0000 0.50150  0.74030  0.78740  Biso   1.000  H
  N74      1.0000 0.70940  0.79110  0.75108  Biso   1.000  N
  N75      1.0000 0.75856  0.94135  0.60038  Biso   1.000  N
  C441     1.0000 0.66020  0.85699  0.71699  Biso   1.000  C
  H343     1.0000 0.62060  0.88130  0.71460  Biso   1.000  H
  C442     1.0000 0.65450  0.82612  0.74557  Biso   1.000  C
  H344     1.0000 0.60930  0.83000  0.76200  Biso   1.000  H
  C443     1.0000 0.77384  0.78604  0.72705  Biso   1.000  C
  H345     1.0000 0.81340  0.76190  0.73050  Biso   1.000  H
  C444     1.0000 0.78405  0.81481  0.69766  Biso   1.000  C
  H346     1.0000 0.82980  0.81000  0.68160  Biso   1.000  H
  C445     1.0000 0.72610  0.85115  0.69185  Biso   1.000  C
  C446     1.0000 0.73508  0.88217  0.65984  Biso   1.000  C
  C447     1.0000 0.71950  0.92987  0.66262  Biso   1.000  C
  H347     1.0000 0.70080  0.94290  0.68440  Biso   1.000  H
  C448     1.0000 0.73240  0.95750  0.63249  Biso   1.000  C
  H348     1.0000 0.72220  0.98940  0.63470  Biso   1.000  H
  C449     1.0000 0.77110  0.89568  0.59747  Biso   1.000  C
  H349     1.0000 0.78790  0.88370  0.57510  Biso   1.000  H
  C450     1.0000 0.76042  0.86510  0.62623  Biso   1.000  C
  H350     1.0000 0.77020  0.83330  0.62300  Biso   1.000  H
  Cd26     1.0000 0.71182  0.24189  0.30221  Biso   1.000  Cd
  O51      1.0000 0.62024  0.18438  0.27038  Biso   1.000  O
  O52      1.0000 0.75922  0.18400  0.25994  Biso   1.000  O
  C451     1.0000 0.68310  0.17052  0.25289  Biso   1.000  C
  C452     1.0000 0.66810  0.13666  0.22186  Biso   1.000  C
  C453     1.0000 0.73340  0.13330  0.19860  Biso   1.000  C
  H351     1.0000 0.72870  0.11390  0.17840  Biso   1.000  H
  H352     1.0000 0.78390  0.15040  0.20240  Biso   1.000  H
  N76      1.0000 0.57518  0.26066  0.32763  Biso   1.000  N
  C454     1.0000 0.57100  0.27438  0.36229  Biso   1.000  C
  H353     1.0000 0.62240  0.28240  0.37400  Biso   1.000  H
  C455     1.0000 0.49470  0.27726  0.38165  Biso   1.000  C
  H354     1.0000 0.49550  0.28670  0.40580  Biso   1.000  H
  C456     1.0000 0.41646  0.26597  0.36489  Biso   1.000  C
  C457     1.0000 0.42080  0.25309  0.32864  Biso   1.000  C
  H355     1.0000 0.37020  0.24640  0.31590  Biso   1.000  H
  C458     1.0000 0.50020  0.25014  0.31147  Biso   1.000  C
  H356     1.0000 0.50150  0.24030  0.28740  Biso   1.000  H
  N77      1.0000 0.70940  0.29110  0.25108  Biso   1.000  N
  N78      1.0000 0.75856  0.44135  0.10038  Biso   1.000  N
  C459     1.0000 0.66020  0.35699  0.21699  Biso   1.000  C
  H357     1.0000 0.62060  0.38130  0.21460  Biso   1.000  H
  C460     1.0000 0.65450  0.32612  0.24557  Biso   1.000  C
  H358     1.0000 0.60930  0.33000  0.26200  Biso   1.000  H
  C461     1.0000 0.77384  0.28604  0.22705  Biso   1.000  C
  H359     1.0000 0.81340  0.26190  0.23050  Biso   1.000  H
  C462     1.0000 0.78405  0.31481  0.19766  Biso   1.000  C
  H360     1.0000 0.82980  0.31000  0.18160  Biso   1.000  H
  C463     1.0000 0.72610  0.35115  0.19185  Biso   1.000  C
  C464     1.0000 0.73508  0.38217  0.15984  Biso   1.000  C
  C465     1.0000 0.71950  0.42987  0.16262  Biso   1.000  C
  H361     1.0000 0.70080  0.44290  0.18440  Biso   1.000  H
  C466     1.0000 0.73240  0.45750  0.13249  Biso   1.000  C
  H362     1.0000 0.72220  0.48940  0.13470  Biso   1.000  H
  C467     1.0000 0.77110  0.39568  0.09747  Biso   1.000  C
  H363     1.0000 0.78790  0.38370  0.07510  Biso   1.000  H
  C468     1.0000 0.76042  0.36510  0.12623  Biso   1.000  C
  H364     1.0000 0.77020  0.33330  0.12300  Biso   1.000  H
  Cd27     1.0000 0.21182  0.74189  0.30221  Biso   1.000  Cd
  O53      1.0000 0.12024  0.68438  0.27038  Biso   1.000  O
  O54      1.0000 0.25922  0.68400  0.25994  Biso   1.000  O
  C469     1.0000 0.18310  0.67052  0.25289  Biso   1.000  C
  C470     1.0000 0.16810  0.63666  0.22186  Biso   1.000  C
  C471     1.0000 0.23340  0.63330  0.19860  Biso   1.000  C
  H365     1.0000 0.22870  0.61390  0.17840  Biso   1.000  H
  H366     1.0000 0.28390  0.65040  0.20240  Biso   1.000  H
  N79      1.0000 0.07518  0.76066  0.32763  Biso   1.000  N
  C472     1.0000 0.07100  0.77438  0.36229  Biso   1.000  C
  H367     1.0000 0.12240  0.78240  0.37400  Biso   1.000  H
  C473     1.0000 0.99470  0.77726  0.38165  Biso   1.000  C
  H368     1.0000 0.99550  0.78670  0.40580  Biso   1.000  H
  C474     1.0000 0.91646  0.76597  0.36489  Biso   1.000  C
  C475     1.0000 0.92080  0.75309  0.32864  Biso   1.000  C
  H369     1.0000 0.87020  0.74640  0.31590  Biso   1.000  H
  C476     1.0000 0.00020  0.75014  0.31147  Biso   1.000  C
  H370     1.0000 0.00150  0.74030  0.28740  Biso   1.000  H
  N80      1.0000 0.20940  0.79110  0.25108  Biso   1.000  N
  N81      1.0000 0.25856  0.94135  0.10038  Biso   1.000  N
  C477     1.0000 0.16020  0.85699  0.21699  Biso   1.000  C
  H371     1.0000 0.12060  0.88130  0.21460  Biso   1.000  H
  C478     1.0000 0.15450  0.82612  0.24557  Biso   1.000  C
  H372     1.0000 0.10930  0.83000  0.26200  Biso   1.000  H
  C479     1.0000 0.27384  0.78604  0.22705  Biso   1.000  C
  H373     1.0000 0.31340  0.76190  0.23050  Biso   1.000  H
  C480     1.0000 0.28405  0.81481  0.19766  Biso   1.000  C
  H374     1.0000 0.32980  0.81000  0.18160  Biso   1.000  H
  C481     1.0000 0.22610  0.85115  0.19185  Biso   1.000  C
  C482     1.0000 0.23508  0.88217  0.15984  Biso   1.000  C
  C483     1.0000 0.21950  0.92987  0.16262  Biso   1.000  C
  H375     1.0000 0.20080  0.94290  0.18440  Biso   1.000  H
  C484     1.0000 0.23240  0.95750  0.13249  Biso   1.000  C
  H376     1.0000 0.22220  0.98940  0.13470  Biso   1.000  H
  C485     1.0000 0.27110  0.89568  0.09747  Biso   1.000  C
  H377     1.0000 0.28790  0.88370  0.07510  Biso   1.000  H
  C486     1.0000 0.26042  0.86510  0.12623  Biso   1.000  C
  H378     1.0000 0.27020  0.83330  0.12300  Biso   1.000  H
  Cd28     1.0000 0.21182  0.24189  0.80221  Biso   1.000  Cd
  O55      1.0000 0.12024  0.18438  0.77038  Biso   1.000  O
  O56      1.0000 0.25922  0.18400  0.75994  Biso   1.000  O
  C487     1.0000 0.18310  0.17052  0.75289  Biso   1.000  C
  C488     1.0000 0.16810  0.13666  0.72186  Biso   1.000  C
  C489     1.0000 0.23340  0.13330  0.69860  Biso   1.000  C
  H379     1.0000 0.22870  0.11390  0.67840  Biso   1.000  H
  H380     1.0000 0.28390  0.15040  0.70240  Biso   1.000  H
  N82      1.0000 0.07518  0.26066  0.82763  Biso   1.000  N
  C490     1.0000 0.07100  0.27438  0.86229  Biso   1.000  C
  H381     1.0000 0.12240  0.28240  0.87400  Biso   1.000  H
  C491     1.0000 0.99470  0.27726  0.88165  Biso   1.000  C
  H382     1.0000 0.99550  0.28670  0.90580  Biso   1.000  H
  C492     1.0000 0.91646  0.26597  0.86489  Biso   1.000  C
  C493     1.0000 0.92080  0.25309  0.82864  Biso   1.000  C
  H383     1.0000 0.87020  0.24640  0.81590  Biso   1.000  H
  C494     1.0000 0.00020  0.25014  0.81147  Biso   1.000  C
  H384     1.0000 0.00150  0.24030  0.78740  Biso   1.000  H
  N83      1.0000 0.20940  0.29110  0.75108  Biso   1.000  N
  N84      1.0000 0.25856  0.44135  0.60038  Biso   1.000  N
  C495     1.0000 0.16020  0.35699  0.71699  Biso   1.000  C
  H385     1.0000 0.12060  0.38130  0.71460  Biso   1.000  H
  C496     1.0000 0.15450  0.32612  0.74557  Biso   1.000  C
  H386     1.0000 0.10930  0.33000  0.76200  Biso   1.000  H
  C497     1.0000 0.27384  0.28604  0.72705  Biso   1.000  C
  H387     1.0000 0.31340  0.26190  0.73050  Biso   1.000  H
  C498     1.0000 0.28405  0.31481  0.69766  Biso   1.000  C
  H388     1.0000 0.32980  0.31000  0.68160  Biso   1.000  H
  C499     1.0000 0.22610  0.35115  0.69185  Biso   1.000  C
  C500     1.0000 0.23508  0.38217  0.65984  Biso   1.000  C
  C501     1.0000 0.21950  0.42987  0.66262  Biso   1.000  C
  H389     1.0000 0.20080  0.44290  0.68440  Biso   1.000  H
  C502     1.0000 0.23240  0.45750  0.63249  Biso   1.000  C
  H390     1.0000 0.22220  0.48940  0.63470  Biso   1.000  H
  C503     1.0000 0.27110  0.39568  0.59747  Biso   1.000  C
  H391     1.0000 0.28790  0.38370  0.57510  Biso   1.000  H
  C504     1.0000 0.26042  0.36510  0.62623  Biso   1.000  C
  H392     1.0000 0.27020  0.33330  0.62300  Biso   1.000  H
  Cd29     1.0000 0.53818  0.50811  0.80221  Biso   1.000  Cd
  O57      1.0000 0.62976  0.56562  0.77038  Biso   1.000  O
  O58      1.0000 0.49078  0.56600  0.75994  Biso   1.000  O
  C505     1.0000 0.56690  0.57948  0.75289  Biso   1.000  C
  C506     1.0000 0.58190  0.61334  0.72186  Biso   1.000  C
  C507     1.0000 0.51660  0.61670  0.69860  Biso   1.000  C
  H393     1.0000 0.52130  0.63610  0.67840  Biso   1.000  H
  H394     1.0000 0.46610  0.59960  0.70240  Biso   1.000  H
  N85      1.0000 0.67482  0.48934  0.82763  Biso   1.000  N
  C508     1.0000 0.67900  0.47562  0.86229  Biso   1.000  C
  H395     1.0000 0.62760  0.46760  0.87400  Biso   1.000  H
  C509     1.0000 0.75530  0.47274  0.88165  Biso   1.000  C
  H396     1.0000 0.75450  0.46330  0.90580  Biso   1.000  H
  C510     1.0000 0.83354  0.48403  0.86489  Biso   1.000  C
  C511     1.0000 0.82920  0.49691  0.82864  Biso   1.000  C
  H397     1.0000 0.87980  0.50360  0.81590  Biso   1.000  H
  C512     1.0000 0.74980  0.49986  0.81147  Biso   1.000  C
  H398     1.0000 0.74850  0.50970  0.78740  Biso   1.000  H
  N86      1.0000 0.54060  0.45890  0.75108  Biso   1.000  N
  N87      1.0000 0.49144  0.30865  0.60038  Biso   1.000  N
  C513     1.0000 0.58980  0.39301  0.71699  Biso   1.000  C
  H399     1.0000 0.62940  0.36870  0.71460  Biso   1.000  H
  C514     1.0000 0.59550  0.42388  0.74557  Biso   1.000  C
  H400     1.0000 0.64070  0.42000  0.76200  Biso   1.000  H
  C515     1.0000 0.47616  0.46396  0.72705  Biso   1.000  C
  H401     1.0000 0.43660  0.48810  0.73050  Biso   1.000  H
  C516     1.0000 0.46595  0.43519  0.69766  Biso   1.000  C
  H402     1.0000 0.42020  0.44000  0.68160  Biso   1.000  H
  C517     1.0000 0.52390  0.39885  0.69185  Biso   1.000  C
  C518     1.0000 0.51492  0.36783  0.65984  Biso   1.000  C
  C519     1.0000 0.53050  0.32013  0.66262  Biso   1.000  C
  H403     1.0000 0.54920  0.30710  0.68440  Biso   1.000  H
  C520     1.0000 0.51760  0.29250  0.63249  Biso   1.000  C
  H404     1.0000 0.52780  0.26060  0.63470  Biso   1.000  H
  C521     1.0000 0.47890  0.35432  0.59747  Biso   1.000  C
  H405     1.0000 0.46210  0.36630  0.57510  Biso   1.000  H
  C522     1.0000 0.48958  0.38490  0.62623  Biso   1.000  C
  H406     1.0000 0.47980  0.41670  0.62300  Biso   1.000  H
  Cd30     1.0000 0.53818  0.00811  0.30221  Biso   1.000  Cd
  O59      1.0000 0.62976  0.06562  0.27038  Biso   1.000  O
  O60      1.0000 0.49078  0.06600  0.25994  Biso   1.000  O
  C523     1.0000 0.56690  0.07948  0.25289  Biso   1.000  C
  C524     1.0000 0.58190  0.11334  0.22186  Biso   1.000  C
  C525     1.0000 0.51660  0.11670  0.19860  Biso   1.000  C
  H407     1.0000 0.52130  0.13610  0.17840  Biso   1.000  H
  H408     1.0000 0.46610  0.09960  0.20240  Biso   1.000  H
  N88      1.0000 0.67482  0.98934  0.32763  Biso   1.000  N
  C526     1.0000 0.67900  0.97562  0.36229  Biso   1.000  C
  H409     1.0000 0.62760  0.96760  0.37400  Biso   1.000  H
  C527     1.0000 0.75530  0.97274  0.38165  Biso   1.000  C
  H410     1.0000 0.75450  0.96330  0.40580  Biso   1.000  H
  C528     1.0000 0.83354  0.98403  0.36489  Biso   1.000  C
  C529     1.0000 0.82920  0.99691  0.32864  Biso   1.000  C
  H411     1.0000 0.87980  0.00360  0.31590  Biso   1.000  H
  C530     1.0000 0.74980  0.99986  0.31147  Biso   1.000  C
  H412     1.0000 0.74850  0.00970  0.28740  Biso   1.000  H
  N89      1.0000 0.54060  0.95890  0.25108  Biso   1.000  N
  N90      1.0000 0.49144  0.80865  0.10038  Biso   1.000  N
  C531     1.0000 0.58980  0.89301  0.21699  Biso   1.000  C
  H413     1.0000 0.62940  0.86870  0.21460  Biso   1.000  H
  C532     1.0000 0.59550  0.92388  0.24557  Biso   1.000  C
  H414     1.0000 0.64070  0.92000  0.26200  Biso   1.000  H
  C533     1.0000 0.47616  0.96396  0.22705  Biso   1.000  C
  H415     1.0000 0.43660  0.98810  0.23050  Biso   1.000  H
  C534     1.0000 0.46595  0.93519  0.19766  Biso   1.000  C
  H416     1.0000 0.42020  0.94000  0.18160  Biso   1.000  H
  C535     1.0000 0.52390  0.89885  0.19185  Biso   1.000  C
  C536     1.0000 0.51492  0.86783  0.15984  Biso   1.000  C
  C537     1.0000 0.53050  0.82013  0.16262  Biso   1.000  C
  H417     1.0000 0.54920  0.80710  0.18440  Biso   1.000  H
  C538     1.0000 0.51760  0.79250  0.13249  Biso   1.000  C
  H418     1.0000 0.52780  0.76060  0.13470  Biso   1.000  H
  C539     1.0000 0.47890  0.85432  0.09747  Biso   1.000  C
  H419     1.0000 0.46210  0.86630  0.07510  Biso   1.000  H
  C540     1.0000 0.48958  0.88490  0.12623  Biso   1.000  C
  H420     1.0000 0.47980  0.91670  0.12300  Biso   1.000  H
  Cd31     1.0000 0.03818  0.50811  0.30221  Biso   1.000  Cd
  O61      1.0000 0.12976  0.56562  0.27038  Biso   1.000  O
  O62      1.0000 0.99078  0.56600  0.25994  Biso   1.000  O
  C541     1.0000 0.06690  0.57948  0.25289  Biso   1.000  C
  C542     1.0000 0.08190  0.61334  0.22186  Biso   1.000  C
  C543     1.0000 0.01660  0.61670  0.19860  Biso   1.000  C
  H421     1.0000 0.02130  0.63610  0.17840  Biso   1.000  H
  H422     1.0000 0.96610  0.59960  0.20240  Biso   1.000  H
  N91      1.0000 0.17482  0.48934  0.32763  Biso   1.000  N
  C544     1.0000 0.17900  0.47562  0.36229  Biso   1.000  C
  H423     1.0000 0.12760  0.46760  0.37400  Biso   1.000  H
  C545     1.0000 0.25530  0.47274  0.38165  Biso   1.000  C
  H424     1.0000 0.25450  0.46330  0.40580  Biso   1.000  H
  C546     1.0000 0.33354  0.48403  0.36489  Biso   1.000  C
  C547     1.0000 0.32920  0.49691  0.32864  Biso   1.000  C
  H425     1.0000 0.37980  0.50360  0.31590  Biso   1.000  H
  C548     1.0000 0.24980  0.49986  0.31147  Biso   1.000  C
  H426     1.0000 0.24850  0.50970  0.28740  Biso   1.000  H
  N92      1.0000 0.04060  0.45890  0.25108  Biso   1.000  N
  N93      1.0000 0.99144  0.30865  0.10038  Biso   1.000  N
  C549     1.0000 0.08980  0.39301  0.21699  Biso   1.000  C
  H427     1.0000 0.12940  0.36870  0.21460  Biso   1.000  H
  C550     1.0000 0.09550  0.42388  0.24557  Biso   1.000  C
  H428     1.0000 0.14070  0.42000  0.26200  Biso   1.000  H
  C551     1.0000 0.97616  0.46396  0.22705  Biso   1.000  C
  H429     1.0000 0.93660  0.48810  0.23050  Biso   1.000  H
  C552     1.0000 0.96595  0.43519  0.19766  Biso   1.000  C
  H430     1.0000 0.92020  0.44000  0.18160  Biso   1.000  H
  C553     1.0000 0.02390  0.39885  0.19185  Biso   1.000  C
  C554     1.0000 0.01492  0.36783  0.15984  Biso   1.000  C
  C555     1.0000 0.03050  0.32013  0.16262  Biso   1.000  C
  H431     1.0000 0.04920  0.30710  0.18440  Biso   1.000  H
  C556     1.0000 0.01760  0.29250  0.13249  Biso   1.000  C
  H432     1.0000 0.02780  0.26060  0.13470  Biso   1.000  H
  C557     1.0000 0.97890  0.35432  0.09747  Biso   1.000  C
  H433     1.0000 0.96210  0.36630  0.07510  Biso   1.000  H
  C558     1.0000 0.98958  0.38490  0.12623  Biso   1.000  C
  H434     1.0000 0.97980  0.41670  0.12300  Biso   1.000  H
  Cd32     1.0000 0.03818  0.00811  0.80221  Biso   1.000  Cd
  O63      1.0000 0.12976  0.06562  0.77038  Biso   1.000  O
  O64      1.0000 0.99078  0.06600  0.75994  Biso   1.000  O
  C559     1.0000 0.06690  0.07948  0.75289  Biso   1.000  C
  C560     1.0000 0.08190  0.11334  0.72186  Biso   1.000  C
  C561     1.0000 0.01660  0.11670  0.69860  Biso   1.000  C
  H435     1.0000 0.02130  0.13610  0.67840  Biso   1.000  H
  H436     1.0000 0.96610  0.09960  0.70240  Biso   1.000  H
  N94      1.0000 0.17482  0.98934  0.82763  Biso   1.000  N
  C562     1.0000 0.17900  0.97562  0.86229  Biso   1.000  C
  H437     1.0000 0.12760  0.96760  0.87400  Biso   1.000  H
  C563     1.0000 0.25530  0.97274  0.88165  Biso   1.000  C
  H438     1.0000 0.25450  0.96330  0.90580  Biso   1.000  H
  C564     1.0000 0.33354  0.98403  0.86489  Biso   1.000  C
  C565     1.0000 0.32920  0.99691  0.82864  Biso   1.000  C
  H439     1.0000 0.37980  0.00360  0.81590  Biso   1.000  H
  C566     1.0000 0.24980  0.99986  0.81147  Biso   1.000  C
  H440     1.0000 0.24850  0.00970  0.78740  Biso   1.000  H
  N95      1.0000 0.04060  0.95890  0.75108  Biso   1.000  N
  N96      1.0000 0.99144  0.80865  0.60038  Biso   1.000  N
  C567     1.0000 0.08980  0.89301  0.71699  Biso   1.000  C
  H441     1.0000 0.12940  0.86870  0.71460  Biso   1.000  H
  C568     1.0000 0.09550  0.92388  0.74557  Biso   1.000  C
  H442     1.0000 0.14070  0.92000  0.76200  Biso   1.000  H
  C569     1.0000 0.97616  0.96396  0.72705  Biso   1.000  C
  H443     1.0000 0.93660  0.98810  0.73050  Biso   1.000  H
  C570     1.0000 0.96595  0.93519  0.69766  Biso   1.000  C
  H444     1.0000 0.92020  0.94000  0.68160  Biso   1.000  H
  C571     1.0000 0.02390  0.89885  0.69185  Biso   1.000  C
  C572     1.0000 0.01492  0.86783  0.65984  Biso   1.000  C
  C573     1.0000 0.03050  0.82013  0.66262  Biso   1.000  C
  H445     1.0000 0.04920  0.80710  0.68440  Biso   1.000  H
  C574     1.0000 0.01760  0.79250  0.63249  Biso   1.000  C
  H446     1.0000 0.02780  0.76060  0.63470  Biso   1.000  H
  C575     1.0000 0.97890  0.85432  0.59747  Biso   1.000  C
  H447     1.0000 0.96210  0.86630  0.57510  Biso   1.000  H
  C576     1.0000 0.98958  0.88490  0.62623  Biso   1.000  C
  H448     1.0000 0.97980  0.91670  0.62300  Biso   1.000  H
