data_image0
_cell_length_a       26.124
_cell_length_b       26.124
_cell_length_c       26.124
_cell_angle_alpha    90
_cell_angle_beta     90
_cell_angle_gamma    90

_symmetry_space_group_name_H-M    "P 1"
_symmetry_int_tables_number       1

loop_
  _symmetry_equiv_pos_as_xyz
  'x, y, z'

loop_
  _atom_site_label
  _atom_site_occupancy
  _atom_site_fract_x
  _atom_site_fract_y
  _atom_site_fract_z
  _atom_site_thermal_displace_type
  _atom_site_B_iso_or_equiv
  _atom_site_type_symbol
  C1       1.0000 0.00330  0.36750  0.05360  Biso   1.000  C
  H1       1.0000 0.03230  0.38260  0.07120  Biso   1.000  H
  H2       1.0000 0.97250  0.38490  0.06480  Biso   1.000  H
  C2       1.0000 0.00960  0.37330  0.99730  Biso   1.000  C
  O1       1.0000 0.01440  0.41730  0.97690  Biso   1.000  O
  O2       1.0000 0.00890  0.33380  0.96990  Biso   1.000  O
  C3       1.0000 0.00330  0.86750  0.55360  Biso   1.000  C
  H3       1.0000 0.03230  0.88260  0.57120  Biso   1.000  H
  H4       1.0000 0.97250  0.88490  0.56480  Biso   1.000  H
  C4       1.0000 0.00960  0.87330  0.49730  Biso   1.000  C
  O3       1.0000 0.01440  0.91730  0.47690  Biso   1.000  O
  O4       1.0000 0.00890  0.83380  0.46990  Biso   1.000  O
  C5       1.0000 0.50330  0.36750  0.55360  Biso   1.000  C
  H5       1.0000 0.53230  0.38260  0.57120  Biso   1.000  H
  H6       1.0000 0.47250  0.38490  0.56480  Biso   1.000  H
  C6       1.0000 0.50960  0.37330  0.49730  Biso   1.000  C
  O5       1.0000 0.51440  0.41730  0.47690  Biso   1.000  O
  O6       1.0000 0.50890  0.33380  0.46990  Biso   1.000  O
  C7       1.0000 0.50330  0.86750  0.05360  Biso   1.000  C
  H7       1.0000 0.53230  0.88260  0.07120  Biso   1.000  H
  H8       1.0000 0.47250  0.88490  0.06480  Biso   1.000  H
  C8       1.0000 0.50960  0.87330  0.99730  Biso   1.000  C
  O7       1.0000 0.51440  0.91730  0.97690  Biso   1.000  O
  O8       1.0000 0.50890  0.83380  0.96990  Biso   1.000  O
  C9       1.0000 0.24670  0.38250  0.55360  Biso   1.000  C
  H9       1.0000 0.21770  0.36740  0.57120  Biso   1.000  H
  H10      1.0000 0.27750  0.36510  0.56480  Biso   1.000  H
  C10      1.0000 0.24040  0.37670  0.49730  Biso   1.000  C
  O9       1.0000 0.23560  0.33270  0.47690  Biso   1.000  O
  O10      1.0000 0.24110  0.41620  0.46990  Biso   1.000  O
  C11      1.0000 0.24670  0.88250  0.05360  Biso   1.000  C
  H11      1.0000 0.21770  0.86740  0.07120  Biso   1.000  H
  H12      1.0000 0.27750  0.86510  0.06480  Biso   1.000  H
  C12      1.0000 0.24040  0.87670  0.99730  Biso   1.000  C
  O11      1.0000 0.23560  0.83270  0.97690  Biso   1.000  O
  O12      1.0000 0.24110  0.91620  0.96990  Biso   1.000  O
  C13      1.0000 0.74670  0.38250  0.05360  Biso   1.000  C
  H13      1.0000 0.71770  0.36740  0.07120  Biso   1.000  H
  H14      1.0000 0.77750  0.36510  0.06480  Biso   1.000  H
  C14      1.0000 0.74040  0.37670  0.99730  Biso   1.000  C
  O13      1.0000 0.73560  0.33270  0.97690  Biso   1.000  O
  O14      1.0000 0.74110  0.41620  0.96990  Biso   1.000  O
  C15      1.0000 0.74670  0.88250  0.55360  Biso   1.000  C
  H15      1.0000 0.71770  0.86740  0.57120  Biso   1.000  H
  H16      1.0000 0.77750  0.86510  0.56480  Biso   1.000  H
  C16      1.0000 0.74040  0.87670  0.49730  Biso   1.000  C
  O15      1.0000 0.73560  0.83270  0.47690  Biso   1.000  O
  O16      1.0000 0.74110  0.91620  0.46990  Biso   1.000  O
  C17      1.0000 0.74670  0.86750  0.19640  Biso   1.000  C
  H17      1.0000 0.71770  0.88260  0.17880  Biso   1.000  H
  H18      1.0000 0.77750  0.88490  0.18520  Biso   1.000  H
  C18      1.0000 0.74040  0.87330  0.25270  Biso   1.000  C
  O17      1.0000 0.73560  0.91730  0.27310  Biso   1.000  O
  O18      1.0000 0.74110  0.83380  0.28010  Biso   1.000  O
  C19      1.0000 0.74670  0.36750  0.69640  Biso   1.000  C
  H19      1.0000 0.71770  0.38260  0.67880  Biso   1.000  H
  H20      1.0000 0.77750  0.38490  0.68520  Biso   1.000  H
  C20      1.0000 0.74040  0.37330  0.75270  Biso   1.000  C
  O19      1.0000 0.73560  0.41730  0.77310  Biso   1.000  O
  O20      1.0000 0.74110  0.33380  0.78010  Biso   1.000  O
  C21      1.0000 0.24670  0.86750  0.69640  Biso   1.000  C
  H21      1.0000 0.21770  0.88260  0.67880  Biso   1.000  H
  H22      1.0000 0.27750  0.88490  0.68520  Biso   1.000  H
  C22      1.0000 0.24040  0.87330  0.75270  Biso   1.000  C
  O21      1.0000 0.23560  0.91730  0.77310  Biso   1.000  O
  O22      1.0000 0.24110  0.83380  0.78010  Biso   1.000  O
  C23      1.0000 0.24670  0.36750  0.19640  Biso   1.000  C
  H23      1.0000 0.21770  0.38260  0.17880  Biso   1.000  H
  H24      1.0000 0.27750  0.38490  0.18520  Biso   1.000  H
  C24      1.0000 0.24040  0.37330  0.25270  Biso   1.000  C
  O23      1.0000 0.23560  0.41730  0.27310  Biso   1.000  O
  O24      1.0000 0.24110  0.33380  0.28010  Biso   1.000  O
  C25      1.0000 0.50330  0.88250  0.69640  Biso   1.000  C
  H25      1.0000 0.53230  0.86740  0.67880  Biso   1.000  H
  H26      1.0000 0.47250  0.86510  0.68520  Biso   1.000  H
  C26      1.0000 0.50960  0.87670  0.75270  Biso   1.000  C
  O25      1.0000 0.51440  0.83270  0.77310  Biso   1.000  O
  O26      1.0000 0.50890  0.91620  0.78010  Biso   1.000  O
  C27      1.0000 0.50330  0.38250  0.19640  Biso   1.000  C
  H27      1.0000 0.53230  0.36740  0.17880  Biso   1.000  H
  H28      1.0000 0.47250  0.36510  0.18520  Biso   1.000  H
  C28      1.0000 0.50960  0.37670  0.25270  Biso   1.000  C
  O27      1.0000 0.51440  0.33270  0.27310  Biso   1.000  O
  O28      1.0000 0.50890  0.41620  0.28010  Biso   1.000  O
  C29      1.0000 0.00330  0.88250  0.19640  Biso   1.000  C
  H29      1.0000 0.03230  0.86740  0.17880  Biso   1.000  H
  H30      1.0000 0.97250  0.86510  0.18520  Biso   1.000  H
  C30      1.0000 0.00960  0.87670  0.25270  Biso   1.000  C
  O29      1.0000 0.01440  0.83270  0.27310  Biso   1.000  O
  O30      1.0000 0.00890  0.91620  0.28010  Biso   1.000  O
  C31      1.0000 0.00330  0.38250  0.69640  Biso   1.000  C
  H31      1.0000 0.03230  0.36740  0.67880  Biso   1.000  H
  H32      1.0000 0.97250  0.36510  0.68520  Biso   1.000  H
  C32      1.0000 0.00960  0.37670  0.75270  Biso   1.000  C
  O31      1.0000 0.01440  0.33270  0.77310  Biso   1.000  O
  O32      1.0000 0.00890  0.41620  0.78010  Biso   1.000  O
  C33      1.0000 0.05360  0.00330  0.36750  Biso   1.000  C
  H33      1.0000 0.07120  0.03230  0.38260  Biso   1.000  H
  H34      1.0000 0.06480  0.97250  0.38490  Biso   1.000  H
  C34      1.0000 0.99730  0.00960  0.37330  Biso   1.000  C
  O33      1.0000 0.97690  0.01440  0.41730  Biso   1.000  O
  O34      1.0000 0.96990  0.00890  0.33380  Biso   1.000  O
  C35      1.0000 0.05360  0.50330  0.86750  Biso   1.000  C
  H35      1.0000 0.07120  0.53230  0.88260  Biso   1.000  H
  H36      1.0000 0.06480  0.47250  0.88490  Biso   1.000  H
  C36      1.0000 0.99730  0.50960  0.87330  Biso   1.000  C
  O35      1.0000 0.97690  0.51440  0.91730  Biso   1.000  O
  O36      1.0000 0.96990  0.50890  0.83380  Biso   1.000  O
  C37      1.0000 0.55360  0.00330  0.86750  Biso   1.000  C
  H37      1.0000 0.57120  0.03230  0.88260  Biso   1.000  H
  H38      1.0000 0.56480  0.97250  0.88490  Biso   1.000  H
  C38      1.0000 0.49730  0.00960  0.87330  Biso   1.000  C
  O37      1.0000 0.47690  0.01440  0.91730  Biso   1.000  O
  O38      1.0000 0.46990  0.00890  0.83380  Biso   1.000  O
  C39      1.0000 0.55360  0.50330  0.36750  Biso   1.000  C
  H39      1.0000 0.57120  0.53230  0.38260  Biso   1.000  H
  H40      1.0000 0.56480  0.47250  0.38490  Biso   1.000  H
  C40      1.0000 0.49730  0.50960  0.37330  Biso   1.000  C
  O39      1.0000 0.47690  0.51440  0.41730  Biso   1.000  O
  O40      1.0000 0.46990  0.50890  0.33380  Biso   1.000  O
  C41      1.0000 0.55360  0.24670  0.38250  Biso   1.000  C
  H41      1.0000 0.57120  0.21770  0.36740  Biso   1.000  H
  H42      1.0000 0.56480  0.27750  0.36510  Biso   1.000  H
  C42      1.0000 0.49730  0.24040  0.37670  Biso   1.000  C
  O41      1.0000 0.47690  0.23560  0.33270  Biso   1.000  O
  O42      1.0000 0.46990  0.24110  0.41620  Biso   1.000  O
  C43      1.0000 0.55360  0.74670  0.88250  Biso   1.000  C
  H43      1.0000 0.57120  0.71770  0.86740  Biso   1.000  H
  H44      1.0000 0.56480  0.77750  0.86510  Biso   1.000  H
  C44      1.0000 0.49730  0.74040  0.87670  Biso   1.000  C
  O43      1.0000 0.47690  0.73560  0.83270  Biso   1.000  O
  O44      1.0000 0.46990  0.74110  0.91620  Biso   1.000  O
  C45      1.0000 0.05360  0.24670  0.88250  Biso   1.000  C
  H45      1.0000 0.07120  0.21770  0.86740  Biso   1.000  H
  H46      1.0000 0.06480  0.27750  0.86510  Biso   1.000  H
  C46      1.0000 0.99730  0.24040  0.87670  Biso   1.000  C
  O45      1.0000 0.97690  0.23560  0.83270  Biso   1.000  O
  O46      1.0000 0.96990  0.24110  0.91620  Biso   1.000  O
  C47      1.0000 0.05360  0.74670  0.38250  Biso   1.000  C
  H47      1.0000 0.07120  0.71770  0.36740  Biso   1.000  H
  H48      1.0000 0.06480  0.77750  0.36510  Biso   1.000  H
  C48      1.0000 0.99730  0.74040  0.37670  Biso   1.000  C
  O47      1.0000 0.97690  0.73560  0.33270  Biso   1.000  O
  O48      1.0000 0.96990  0.74110  0.41620  Biso   1.000  O
  C49      1.0000 0.19640  0.74670  0.86750  Biso   1.000  C
  H49      1.0000 0.17880  0.71770  0.88260  Biso   1.000  H
  H50      1.0000 0.18520  0.77750  0.88490  Biso   1.000  H
  C50      1.0000 0.25270  0.74040  0.87330  Biso   1.000  C
  O49      1.0000 0.27310  0.73560  0.91730  Biso   1.000  O
  O50      1.0000 0.28010  0.74110  0.83380  Biso   1.000  O
  C51      1.0000 0.19640  0.24670  0.36750  Biso   1.000  C
  H51      1.0000 0.17880  0.21770  0.38260  Biso   1.000  H
  H52      1.0000 0.18520  0.27750  0.38490  Biso   1.000  H
  C52      1.0000 0.25270  0.24040  0.37330  Biso   1.000  C
  O51      1.0000 0.27310  0.23560  0.41730  Biso   1.000  O
  O52      1.0000 0.28010  0.24110  0.33380  Biso   1.000  O
  C53      1.0000 0.69640  0.74670  0.36750  Biso   1.000  C
  H53      1.0000 0.67880  0.71770  0.38260  Biso   1.000  H
  H54      1.0000 0.68520  0.77750  0.38490  Biso   1.000  H
  C54      1.0000 0.75270  0.74040  0.37330  Biso   1.000  C
  O53      1.0000 0.77310  0.73560  0.41730  Biso   1.000  O
  O54      1.0000 0.78010  0.74110  0.33380  Biso   1.000  O
  C55      1.0000 0.69640  0.24670  0.86750  Biso   1.000  C
  H55      1.0000 0.67880  0.21770  0.88260  Biso   1.000  H
  H56      1.0000 0.68520  0.27750  0.88490  Biso   1.000  H
  C56      1.0000 0.75270  0.24040  0.87330  Biso   1.000  C
  O55      1.0000 0.77310  0.23560  0.91730  Biso   1.000  O
  O56      1.0000 0.78010  0.24110  0.83380  Biso   1.000  O
  C57      1.0000 0.69640  0.50330  0.88250  Biso   1.000  C
  H57      1.0000 0.67880  0.53230  0.86740  Biso   1.000  H
  H58      1.0000 0.68520  0.47250  0.86510  Biso   1.000  H
  C58      1.0000 0.75270  0.50960  0.87670  Biso   1.000  C
  O57      1.0000 0.77310  0.51440  0.83270  Biso   1.000  O
  O58      1.0000 0.78010  0.50890  0.91620  Biso   1.000  O
  C59      1.0000 0.69640  0.00330  0.38250  Biso   1.000  C
  H59      1.0000 0.67880  0.03230  0.36740  Biso   1.000  H
  H60      1.0000 0.68520  0.97250  0.36510  Biso   1.000  H
  C60      1.0000 0.75270  0.00960  0.37670  Biso   1.000  C
  O59      1.0000 0.77310  0.01440  0.33270  Biso   1.000  O
  O60      1.0000 0.78010  0.00890  0.41620  Biso   1.000  O
  C61      1.0000 0.19640  0.50330  0.38250  Biso   1.000  C
  H61      1.0000 0.17880  0.53230  0.36740  Biso   1.000  H
  H62      1.0000 0.18520  0.47250  0.36510  Biso   1.000  H
  C62      1.0000 0.25270  0.50960  0.37670  Biso   1.000  C
  O61      1.0000 0.27310  0.51440  0.33270  Biso   1.000  O
  O62      1.0000 0.28010  0.50890  0.41620  Biso   1.000  O
  C63      1.0000 0.19640  0.00330  0.88250  Biso   1.000  C
  H63      1.0000 0.17880  0.03230  0.86740  Biso   1.000  H
  H64      1.0000 0.18520  0.97250  0.86510  Biso   1.000  H
  C64      1.0000 0.25270  0.00960  0.87670  Biso   1.000  C
  O63      1.0000 0.27310  0.01440  0.83270  Biso   1.000  O
  O64      1.0000 0.28010  0.00890  0.91620  Biso   1.000  O
  C65      1.0000 0.36750  0.05360  0.00330  Biso   1.000  C
  H65      1.0000 0.38260  0.07120  0.03230  Biso   1.000  H
  H66      1.0000 0.38490  0.06480  0.97250  Biso   1.000  H
  C66      1.0000 0.37330  0.99730  0.00960  Biso   1.000  C
  O65      1.0000 0.41730  0.97690  0.01440  Biso   1.000  O
  O66      1.0000 0.33380  0.96990  0.00890  Biso   1.000  O
  C67      1.0000 0.36750  0.55360  0.50330  Biso   1.000  C
  H67      1.0000 0.38260  0.57120  0.53230  Biso   1.000  H
  H68      1.0000 0.38490  0.56480  0.47250  Biso   1.000  H
  C68      1.0000 0.37330  0.49730  0.50960  Biso   1.000  C
  O67      1.0000 0.41730  0.47690  0.51440  Biso   1.000  O
  O68      1.0000 0.33380  0.46990  0.50890  Biso   1.000  O
  C69      1.0000 0.86750  0.05360  0.50330  Biso   1.000  C
  H69      1.0000 0.88260  0.07120  0.53230  Biso   1.000  H
  H70      1.0000 0.88490  0.06480  0.47250  Biso   1.000  H
  C70      1.0000 0.87330  0.99730  0.50960  Biso   1.000  C
  O69      1.0000 0.91730  0.97690  0.51440  Biso   1.000  O
  O70      1.0000 0.83380  0.96990  0.50890  Biso   1.000  O
  C71      1.0000 0.86750  0.55360  0.00330  Biso   1.000  C
  H71      1.0000 0.88260  0.57120  0.03230  Biso   1.000  H
  H72      1.0000 0.88490  0.56480  0.97250  Biso   1.000  H
  C72      1.0000 0.87330  0.49730  0.00960  Biso   1.000  C
  O71      1.0000 0.91730  0.47690  0.01440  Biso   1.000  O
  O72      1.0000 0.83380  0.46990  0.00890  Biso   1.000  O
  C73      1.0000 0.38250  0.55360  0.24670  Biso   1.000  C
  H73      1.0000 0.36740  0.57120  0.21770  Biso   1.000  H
  H74      1.0000 0.36510  0.56480  0.27750  Biso   1.000  H
  C74      1.0000 0.37670  0.49730  0.24040  Biso   1.000  C
  O73      1.0000 0.33270  0.47690  0.23560  Biso   1.000  O
  O74      1.0000 0.41620  0.46990  0.24110  Biso   1.000  O
  C75      1.0000 0.38250  0.05360  0.74670  Biso   1.000  C
  H75      1.0000 0.36740  0.07120  0.71770  Biso   1.000  H
  H76      1.0000 0.36510  0.06480  0.77750  Biso   1.000  H
  C76      1.0000 0.37670  0.99730  0.74040  Biso   1.000  C
  O75      1.0000 0.33270  0.97690  0.73560  Biso   1.000  O
  O76      1.0000 0.41620  0.96990  0.74110  Biso   1.000  O
  C77      1.0000 0.88250  0.55360  0.74670  Biso   1.000  C
  H77      1.0000 0.86740  0.57120  0.71770  Biso   1.000  H
  H78      1.0000 0.86510  0.56480  0.77750  Biso   1.000  H
  C78      1.0000 0.87670  0.49730  0.74040  Biso   1.000  C
  O77      1.0000 0.83270  0.47690  0.73560  Biso   1.000  O
  O78      1.0000 0.91620  0.46990  0.74110  Biso   1.000  O
  C79      1.0000 0.88250  0.05360  0.24670  Biso   1.000  C
  H79      1.0000 0.86740  0.07120  0.21770  Biso   1.000  H
  H80      1.0000 0.86510  0.06480  0.27750  Biso   1.000  H
  C80      1.0000 0.87670  0.99730  0.24040  Biso   1.000  C
  O79      1.0000 0.83270  0.97690  0.23560  Biso   1.000  O
  O80      1.0000 0.91620  0.96990  0.24110  Biso   1.000  O
  C81      1.0000 0.86750  0.19640  0.74670  Biso   1.000  C
  H81      1.0000 0.88260  0.17880  0.71770  Biso   1.000  H
  H82      1.0000 0.88490  0.18520  0.77750  Biso   1.000  H
  C82      1.0000 0.87330  0.25270  0.74040  Biso   1.000  C
  O81      1.0000 0.91730  0.27310  0.73560  Biso   1.000  O
  O82      1.0000 0.83380  0.28010  0.74110  Biso   1.000  O
  C83      1.0000 0.86750  0.69640  0.24670  Biso   1.000  C
  H83      1.0000 0.88260  0.67880  0.21770  Biso   1.000  H
  H84      1.0000 0.88490  0.68520  0.27750  Biso   1.000  H
  C84      1.0000 0.87330  0.75270  0.24040  Biso   1.000  C
  O83      1.0000 0.91730  0.77310  0.23560  Biso   1.000  O
  O84      1.0000 0.83380  0.78010  0.24110  Biso   1.000  O
  C85      1.0000 0.36750  0.19640  0.24670  Biso   1.000  C
  H85      1.0000 0.38260  0.17880  0.21770  Biso   1.000  H
  H86      1.0000 0.38490  0.18520  0.27750  Biso   1.000  H
  C86      1.0000 0.37330  0.25270  0.24040  Biso   1.000  C
  O85      1.0000 0.41730  0.27310  0.23560  Biso   1.000  O
  O86      1.0000 0.33380  0.28010  0.24110  Biso   1.000  O
  C87      1.0000 0.36750  0.69640  0.74670  Biso   1.000  C
  H87      1.0000 0.38260  0.67880  0.71770  Biso   1.000  H
  H88      1.0000 0.38490  0.68520  0.77750  Biso   1.000  H
  C88      1.0000 0.37330  0.75270  0.74040  Biso   1.000  C
  O87      1.0000 0.41730  0.77310  0.73560  Biso   1.000  O
  O88      1.0000 0.33380  0.78010  0.74110  Biso   1.000  O
  C89      1.0000 0.88250  0.69640  0.50330  Biso   1.000  C
  H89      1.0000 0.86740  0.67880  0.53230  Biso   1.000  H
  H90      1.0000 0.86510  0.68520  0.47250  Biso   1.000  H
  C90      1.0000 0.87670  0.75270  0.50960  Biso   1.000  C
  O89      1.0000 0.83270  0.77310  0.51440  Biso   1.000  O
  O90      1.0000 0.91620  0.78010  0.50890  Biso   1.000  O
  C91      1.0000 0.88250  0.19640  0.00330  Biso   1.000  C
  H91      1.0000 0.86740  0.17880  0.03230  Biso   1.000  H
  H92      1.0000 0.86510  0.18520  0.97250  Biso   1.000  H
  C92      1.0000 0.87670  0.25270  0.00960  Biso   1.000  C
  O91      1.0000 0.83270  0.27310  0.01440  Biso   1.000  O
  O92      1.0000 0.91620  0.28010  0.00890  Biso   1.000  O
  C93      1.0000 0.38250  0.69640  0.00330  Biso   1.000  C
  H93      1.0000 0.36740  0.67880  0.03230  Biso   1.000  H
  H94      1.0000 0.36510  0.68520  0.97250  Biso   1.000  H
  C94      1.0000 0.37670  0.75270  0.00960  Biso   1.000  C
  O93      1.0000 0.33270  0.77310  0.01440  Biso   1.000  O
  O94      1.0000 0.41620  0.78010  0.00890  Biso   1.000  O
  C95      1.0000 0.38250  0.19640  0.50330  Biso   1.000  C
  H95      1.0000 0.36740  0.17880  0.53230  Biso   1.000  H
  H96      1.0000 0.36510  0.18520  0.47250  Biso   1.000  H
  C96      1.0000 0.37670  0.25270  0.50960  Biso   1.000  C
  O95      1.0000 0.33270  0.27310  0.51440  Biso   1.000  O
  O96      1.0000 0.41620  0.28010  0.50890  Biso   1.000  O
  C97      1.0000 0.11750  0.25330  0.94640  Biso   1.000  C
  H97      1.0000 0.13260  0.28230  0.92880  Biso   1.000  H
  H98      1.0000 0.13490  0.22250  0.93520  Biso   1.000  H
  C98      1.0000 0.12330  0.25960  0.00270  Biso   1.000  C
  O97      1.0000 0.16730  0.26440  0.02310  Biso   1.000  O
  O98      1.0000 0.08380  0.25890  0.03010  Biso   1.000  O
  C99      1.0000 0.11750  0.75330  0.44640  Biso   1.000  C
  H99      1.0000 0.13260  0.78230  0.42880  Biso   1.000  H
  H100     1.0000 0.13490  0.72250  0.43520  Biso   1.000  H
  C100     1.0000 0.12330  0.75960  0.50270  Biso   1.000  C
  O99      1.0000 0.16730  0.76440  0.52310  Biso   1.000  O
  O100     1.0000 0.08380  0.75890  0.53010  Biso   1.000  O
  C101     1.0000 0.61750  0.25330  0.44640  Biso   1.000  C
  H101     1.0000 0.63260  0.28230  0.42880  Biso   1.000  H
  H102     1.0000 0.63490  0.22250  0.43520  Biso   1.000  H
  C102     1.0000 0.62330  0.25960  0.50270  Biso   1.000  C
  O101     1.0000 0.66730  0.26440  0.52310  Biso   1.000  O
  O102     1.0000 0.58380  0.25890  0.53010  Biso   1.000  O
  C103     1.0000 0.61750  0.75330  0.94640  Biso   1.000  C
  H103     1.0000 0.63260  0.78230  0.92880  Biso   1.000  H
  H104     1.0000 0.63490  0.72250  0.93520  Biso   1.000  H
  C104     1.0000 0.62330  0.75960  0.00270  Biso   1.000  C
  O103     1.0000 0.66730  0.76440  0.02310  Biso   1.000  O
  O104     1.0000 0.58380  0.75890  0.03010  Biso   1.000  O
  C105     1.0000 0.13250  0.49670  0.44640  Biso   1.000  C
  H105     1.0000 0.11740  0.46770  0.42880  Biso   1.000  H
  H106     1.0000 0.11510  0.52750  0.43520  Biso   1.000  H
  C106     1.0000 0.12670  0.49040  0.50270  Biso   1.000  C
  O105     1.0000 0.08270  0.48560  0.52310  Biso   1.000  O
  O106     1.0000 0.16620  0.49110  0.53010  Biso   1.000  O
  C107     1.0000 0.13250  0.99670  0.94640  Biso   1.000  C
  H107     1.0000 0.11740  0.96770  0.92880  Biso   1.000  H
  H108     1.0000 0.11510  0.02750  0.93520  Biso   1.000  H
  C108     1.0000 0.12670  0.99040  0.00270  Biso   1.000  C
  O107     1.0000 0.08270  0.98560  0.02310  Biso   1.000  O
  O108     1.0000 0.16620  0.99110  0.03010  Biso   1.000  O
  C109     1.0000 0.63250  0.49670  0.94640  Biso   1.000  C
  H109     1.0000 0.61740  0.46770  0.92880  Biso   1.000  H
  H110     1.0000 0.61510  0.52750  0.93520  Biso   1.000  H
  C110     1.0000 0.62670  0.49040  0.00270  Biso   1.000  C
  O109     1.0000 0.58270  0.48560  0.02310  Biso   1.000  O
  O110     1.0000 0.66620  0.49110  0.03010  Biso   1.000  O
  C111     1.0000 0.63250  0.99670  0.44640  Biso   1.000  C
  H111     1.0000 0.61740  0.96770  0.42880  Biso   1.000  H
  H112     1.0000 0.61510  0.02750  0.43520  Biso   1.000  H
  C112     1.0000 0.62670  0.99040  0.50270  Biso   1.000  C
  O111     1.0000 0.58270  0.98560  0.52310  Biso   1.000  O
  O112     1.0000 0.66620  0.99110  0.53010  Biso   1.000  O
  C113     1.0000 0.61750  0.99670  0.80360  Biso   1.000  C
  H113     1.0000 0.63260  0.96770  0.82120  Biso   1.000  H
  H114     1.0000 0.63490  0.02750  0.81480  Biso   1.000  H
  C114     1.0000 0.62330  0.99040  0.74730  Biso   1.000  C
  O113     1.0000 0.66730  0.98560  0.72690  Biso   1.000  O
  O114     1.0000 0.58380  0.99110  0.71990  Biso   1.000  O
  C115     1.0000 0.61750  0.49670  0.30360  Biso   1.000  C
  H115     1.0000 0.63260  0.46770  0.32120  Biso   1.000  H
  H116     1.0000 0.63490  0.52750  0.31480  Biso   1.000  H
  C116     1.0000 0.62330  0.49040  0.24730  Biso   1.000  C
  O115     1.0000 0.66730  0.48560  0.22690  Biso   1.000  O
  O116     1.0000 0.58380  0.49110  0.21990  Biso   1.000  O
  C117     1.0000 0.11750  0.99670  0.30360  Biso   1.000  C
  H117     1.0000 0.13260  0.96770  0.32120  Biso   1.000  H
  H118     1.0000 0.13490  0.02750  0.31480  Biso   1.000  H
  C118     1.0000 0.12330  0.99040  0.24730  Biso   1.000  C
  O117     1.0000 0.16730  0.98560  0.22690  Biso   1.000  O
  O118     1.0000 0.08380  0.99110  0.21990  Biso   1.000  O
  C119     1.0000 0.11750  0.49670  0.80360  Biso   1.000  C
  H119     1.0000 0.13260  0.46770  0.82120  Biso   1.000  H
  H120     1.0000 0.13490  0.52750  0.81480  Biso   1.000  H
  C120     1.0000 0.12330  0.49040  0.74730  Biso   1.000  C
  O119     1.0000 0.16730  0.48560  0.72690  Biso   1.000  O
  O120     1.0000 0.08380  0.49110  0.71990  Biso   1.000  O
  C121     1.0000 0.63250  0.75330  0.30360  Biso   1.000  C
  H121     1.0000 0.61740  0.78230  0.32120  Biso   1.000  H
  H122     1.0000 0.61510  0.72250  0.31480  Biso   1.000  H
  C122     1.0000 0.62670  0.75960  0.24730  Biso   1.000  C
  O121     1.0000 0.58270  0.76440  0.22690  Biso   1.000  O
  O122     1.0000 0.66620  0.75890  0.21990  Biso   1.000  O
  C123     1.0000 0.63250  0.25330  0.80360  Biso   1.000  C
  H123     1.0000 0.61740  0.28230  0.82120  Biso   1.000  H
  H124     1.0000 0.61510  0.22250  0.81480  Biso   1.000  H
  C124     1.0000 0.62670  0.25960  0.74730  Biso   1.000  C
  O123     1.0000 0.58270  0.26440  0.72690  Biso   1.000  O
  O124     1.0000 0.66620  0.25890  0.71990  Biso   1.000  O
  C125     1.0000 0.13250  0.75330  0.80360  Biso   1.000  C
  H125     1.0000 0.11740  0.78230  0.82120  Biso   1.000  H
  H126     1.0000 0.11510  0.72250  0.81480  Biso   1.000  H
  C126     1.0000 0.12670  0.75960  0.74730  Biso   1.000  C
  O125     1.0000 0.08270  0.76440  0.72690  Biso   1.000  O
  O126     1.0000 0.16620  0.75890  0.71990  Biso   1.000  O
  C127     1.0000 0.13250  0.25330  0.30360  Biso   1.000  C
  H127     1.0000 0.11740  0.28230  0.32120  Biso   1.000  H
  H128     1.0000 0.11510  0.22250  0.31480  Biso   1.000  H
  C128     1.0000 0.12670  0.25960  0.24730  Biso   1.000  C
  O127     1.0000 0.08270  0.26440  0.22690  Biso   1.000  O
  O128     1.0000 0.16620  0.25890  0.21990  Biso   1.000  O
  C129     1.0000 0.75330  0.30360  0.63250  Biso   1.000  C
  H129     1.0000 0.78230  0.32120  0.61740  Biso   1.000  H
  H130     1.0000 0.72250  0.31480  0.61510  Biso   1.000  H
  C130     1.0000 0.75960  0.24730  0.62670  Biso   1.000  C
  O129     1.0000 0.76440  0.22690  0.58270  Biso   1.000  O
  O130     1.0000 0.75890  0.21990  0.66620  Biso   1.000  O
  C131     1.0000 0.75330  0.80360  0.13250  Biso   1.000  C
  H131     1.0000 0.78230  0.82120  0.11740  Biso   1.000  H
  H132     1.0000 0.72250  0.81480  0.11510  Biso   1.000  H
  C132     1.0000 0.75960  0.74730  0.12670  Biso   1.000  C
  O131     1.0000 0.76440  0.72690  0.08270  Biso   1.000  O
  O132     1.0000 0.75890  0.71990  0.16620  Biso   1.000  O
  C133     1.0000 0.25330  0.30360  0.13250  Biso   1.000  C
  H133     1.0000 0.28230  0.32120  0.11740  Biso   1.000  H
  H134     1.0000 0.22250  0.31480  0.11510  Biso   1.000  H
  C134     1.0000 0.25960  0.24730  0.12670  Biso   1.000  C
  O133     1.0000 0.26440  0.22690  0.08270  Biso   1.000  O
  O134     1.0000 0.25890  0.21990  0.16620  Biso   1.000  O
  C135     1.0000 0.25330  0.80360  0.63250  Biso   1.000  C
  H135     1.0000 0.28230  0.82120  0.61740  Biso   1.000  H
  H136     1.0000 0.22250  0.81480  0.61510  Biso   1.000  H
  C136     1.0000 0.25960  0.74730  0.62670  Biso   1.000  C
  O135     1.0000 0.26440  0.72690  0.58270  Biso   1.000  O
  O136     1.0000 0.25890  0.71990  0.66620  Biso   1.000  O
  C137     1.0000 0.99670  0.80360  0.61750  Biso   1.000  C
  H137     1.0000 0.96770  0.82120  0.63260  Biso   1.000  H
  H138     1.0000 0.02750  0.81480  0.63490  Biso   1.000  H
  C138     1.0000 0.99040  0.74730  0.62330  Biso   1.000  C
  O137     1.0000 0.98560  0.72690  0.66730  Biso   1.000  O
  O138     1.0000 0.99110  0.71990  0.58380  Biso   1.000  O
  C139     1.0000 0.99670  0.30360  0.11750  Biso   1.000  C
  H139     1.0000 0.96770  0.32120  0.13260  Biso   1.000  H
  H140     1.0000 0.02750  0.31480  0.13490  Biso   1.000  H
  C140     1.0000 0.99040  0.24730  0.12330  Biso   1.000  C
  O139     1.0000 0.98560  0.22690  0.16730  Biso   1.000  O
  O140     1.0000 0.99110  0.21990  0.08380  Biso   1.000  O
  C141     1.0000 0.49670  0.80360  0.11750  Biso   1.000  C
  H141     1.0000 0.46770  0.82120  0.13260  Biso   1.000  H
  H142     1.0000 0.52750  0.81480  0.13490  Biso   1.000  H
  C142     1.0000 0.49040  0.74730  0.12330  Biso   1.000  C
  O141     1.0000 0.48560  0.72690  0.16730  Biso   1.000  O
  O142     1.0000 0.49110  0.71990  0.08380  Biso   1.000  O
  C143     1.0000 0.49670  0.30360  0.61750  Biso   1.000  C
  H143     1.0000 0.46770  0.32120  0.63260  Biso   1.000  H
  H144     1.0000 0.52750  0.31480  0.63490  Biso   1.000  H
  C144     1.0000 0.49040  0.24730  0.62330  Biso   1.000  C
  O143     1.0000 0.48560  0.22690  0.66730  Biso   1.000  O
  O144     1.0000 0.49110  0.21990  0.58380  Biso   1.000  O
  C145     1.0000 0.49670  0.44640  0.13250  Biso   1.000  C
  H145     1.0000 0.46770  0.42880  0.11740  Biso   1.000  H
  H146     1.0000 0.52750  0.43520  0.11510  Biso   1.000  H
  C146     1.0000 0.49040  0.50270  0.12670  Biso   1.000  C
  O145     1.0000 0.48560  0.52310  0.08270  Biso   1.000  O
  O146     1.0000 0.49110  0.53010  0.16620  Biso   1.000  O
  C147     1.0000 0.49670  0.94640  0.63250  Biso   1.000  C
  H147     1.0000 0.46770  0.92880  0.61740  Biso   1.000  H
  H148     1.0000 0.52750  0.93520  0.61510  Biso   1.000  H
  C148     1.0000 0.49040  0.00270  0.62670  Biso   1.000  C
  O147     1.0000 0.48560  0.02310  0.58270  Biso   1.000  O
  O148     1.0000 0.49110  0.03010  0.66620  Biso   1.000  O
  C149     1.0000 0.99670  0.44640  0.63250  Biso   1.000  C
  H149     1.0000 0.96770  0.42880  0.61740  Biso   1.000  H
  H150     1.0000 0.02750  0.43520  0.61510  Biso   1.000  H
  C150     1.0000 0.99040  0.50270  0.62670  Biso   1.000  C
  O149     1.0000 0.98560  0.52310  0.58270  Biso   1.000  O
  O150     1.0000 0.99110  0.53010  0.66620  Biso   1.000  O
  C151     1.0000 0.99670  0.94640  0.13250  Biso   1.000  C
  H151     1.0000 0.96770  0.92880  0.11740  Biso   1.000  H
  H152     1.0000 0.02750  0.93520  0.11510  Biso   1.000  H
  C152     1.0000 0.99040  0.00270  0.12670  Biso   1.000  C
  O151     1.0000 0.98560  0.02310  0.08270  Biso   1.000  O
  O152     1.0000 0.99110  0.03010  0.16620  Biso   1.000  O
  C153     1.0000 0.25330  0.94640  0.11750  Biso   1.000  C
  H153     1.0000 0.28230  0.92880  0.13260  Biso   1.000  H
  H154     1.0000 0.22250  0.93520  0.13490  Biso   1.000  H
  C154     1.0000 0.25960  0.00270  0.12330  Biso   1.000  C
  O153     1.0000 0.26440  0.02310  0.16730  Biso   1.000  O
  O154     1.0000 0.25890  0.03010  0.08380  Biso   1.000  O
  C155     1.0000 0.25330  0.44640  0.61750  Biso   1.000  C
  H155     1.0000 0.28230  0.42880  0.63260  Biso   1.000  H
  H156     1.0000 0.22250  0.43520  0.63490  Biso   1.000  H
  C156     1.0000 0.25960  0.50270  0.62330  Biso   1.000  C
  O155     1.0000 0.26440  0.52310  0.66730  Biso   1.000  O
  O156     1.0000 0.25890  0.53010  0.58380  Biso   1.000  O
  C157     1.0000 0.75330  0.94640  0.61750  Biso   1.000  C
  H157     1.0000 0.78230  0.92880  0.63260  Biso   1.000  H
  H158     1.0000 0.72250  0.93520  0.63490  Biso   1.000  H
  C158     1.0000 0.75960  0.00270  0.62330  Biso   1.000  C
  O157     1.0000 0.76440  0.02310  0.66730  Biso   1.000  O
  O158     1.0000 0.75890  0.03010  0.58380  Biso   1.000  O
  C159     1.0000 0.75330  0.44640  0.11750  Biso   1.000  C
  H159     1.0000 0.78230  0.42880  0.13260  Biso   1.000  H
  H160     1.0000 0.72250  0.43520  0.13490  Biso   1.000  H
  C160     1.0000 0.75960  0.50270  0.12330  Biso   1.000  C
  O159     1.0000 0.76440  0.52310  0.16730  Biso   1.000  O
  O160     1.0000 0.75890  0.53010  0.08380  Biso   1.000  O
  C161     1.0000 0.80360  0.61750  0.99670  Biso   1.000  C
  H161     1.0000 0.82120  0.63260  0.96770  Biso   1.000  H
  H162     1.0000 0.81480  0.63490  0.02750  Biso   1.000  H
  C162     1.0000 0.74730  0.62330  0.99040  Biso   1.000  C
  O161     1.0000 0.72690  0.66730  0.98560  Biso   1.000  O
  O162     1.0000 0.71990  0.58380  0.99110  Biso   1.000  O
  C163     1.0000 0.80360  0.11750  0.49670  Biso   1.000  C
  H163     1.0000 0.82120  0.13260  0.46770  Biso   1.000  H
  H164     1.0000 0.81480  0.13490  0.52750  Biso   1.000  H
  C164     1.0000 0.74730  0.12330  0.49040  Biso   1.000  C
  O163     1.0000 0.72690  0.16730  0.48560  Biso   1.000  O
  O164     1.0000 0.71990  0.08380  0.49110  Biso   1.000  O
  C165     1.0000 0.30360  0.61750  0.49670  Biso   1.000  C
  H165     1.0000 0.32120  0.63260  0.46770  Biso   1.000  H
  H166     1.0000 0.31480  0.63490  0.52750  Biso   1.000  H
  C166     1.0000 0.24730  0.62330  0.49040  Biso   1.000  C
  O165     1.0000 0.22690  0.66730  0.48560  Biso   1.000  O
  O166     1.0000 0.21990  0.58380  0.49110  Biso   1.000  O
  C167     1.0000 0.30360  0.11750  0.99670  Biso   1.000  C
  H167     1.0000 0.32120  0.13260  0.96770  Biso   1.000  H
  H168     1.0000 0.31480  0.13490  0.02750  Biso   1.000  H
  C168     1.0000 0.24730  0.12330  0.99040  Biso   1.000  C
  O167     1.0000 0.22690  0.16730  0.98560  Biso   1.000  O
  O168     1.0000 0.21990  0.08380  0.99110  Biso   1.000  O
  C169     1.0000 0.30360  0.63250  0.75330  Biso   1.000  C
  H169     1.0000 0.32120  0.61740  0.78230  Biso   1.000  H
  H170     1.0000 0.31480  0.61510  0.72250  Biso   1.000  H
  C170     1.0000 0.24730  0.62670  0.75960  Biso   1.000  C
  O169     1.0000 0.22690  0.58270  0.76440  Biso   1.000  O
  O170     1.0000 0.21990  0.66620  0.75890  Biso   1.000  O
  C171     1.0000 0.30360  0.13250  0.25330  Biso   1.000  C
  H171     1.0000 0.32120  0.11740  0.28230  Biso   1.000  H
  H172     1.0000 0.31480  0.11510  0.22250  Biso   1.000  H
  C172     1.0000 0.24730  0.12670  0.25960  Biso   1.000  C
  O171     1.0000 0.22690  0.08270  0.26440  Biso   1.000  O
  O172     1.0000 0.21990  0.16620  0.25890  Biso   1.000  O
  C173     1.0000 0.80360  0.63250  0.25330  Biso   1.000  C
  H173     1.0000 0.82120  0.61740  0.28230  Biso   1.000  H
  H174     1.0000 0.81480  0.61510  0.22250  Biso   1.000  H
  C174     1.0000 0.74730  0.62670  0.25960  Biso   1.000  C
  O173     1.0000 0.72690  0.58270  0.26440  Biso   1.000  O
  O174     1.0000 0.71990  0.66620  0.25890  Biso   1.000  O
  C175     1.0000 0.80360  0.13250  0.75330  Biso   1.000  C
  H175     1.0000 0.82120  0.11740  0.78230  Biso   1.000  H
  H176     1.0000 0.81480  0.11510  0.72250  Biso   1.000  H
  C176     1.0000 0.74730  0.12670  0.75960  Biso   1.000  C
  O175     1.0000 0.72690  0.08270  0.76440  Biso   1.000  O
  O176     1.0000 0.71990  0.16620  0.75890  Biso   1.000  O
  C177     1.0000 0.94640  0.11750  0.25330  Biso   1.000  C
  H177     1.0000 0.92880  0.13260  0.28230  Biso   1.000  H
  H178     1.0000 0.93520  0.13490  0.22250  Biso   1.000  H
  C178     1.0000 0.00270  0.12330  0.25960  Biso   1.000  C
  O177     1.0000 0.02310  0.16730  0.26440  Biso   1.000  O
  O178     1.0000 0.03010  0.08380  0.25890  Biso   1.000  O
  C179     1.0000 0.94640  0.61750  0.75330  Biso   1.000  C
  H179     1.0000 0.92880  0.63260  0.78230  Biso   1.000  H
  H180     1.0000 0.93520  0.63490  0.72250  Biso   1.000  H
  C180     1.0000 0.00270  0.62330  0.75960  Biso   1.000  C
  O179     1.0000 0.02310  0.66730  0.76440  Biso   1.000  O
  O180     1.0000 0.03010  0.58380  0.75890  Biso   1.000  O
  C181     1.0000 0.44640  0.11750  0.75330  Biso   1.000  C
  H181     1.0000 0.42880  0.13260  0.78230  Biso   1.000  H
  H182     1.0000 0.43520  0.13490  0.72250  Biso   1.000  H
  C182     1.0000 0.50270  0.12330  0.75960  Biso   1.000  C
  O181     1.0000 0.52310  0.16730  0.76440  Biso   1.000  O
  O182     1.0000 0.53010  0.08380  0.75890  Biso   1.000  O
  C183     1.0000 0.44640  0.61750  0.25330  Biso   1.000  C
  H183     1.0000 0.42880  0.63260  0.28230  Biso   1.000  H
  H184     1.0000 0.43520  0.63490  0.22250  Biso   1.000  H
  C184     1.0000 0.50270  0.62330  0.25960  Biso   1.000  C
  O183     1.0000 0.52310  0.66730  0.26440  Biso   1.000  O
  O184     1.0000 0.53010  0.58380  0.25890  Biso   1.000  O
  C185     1.0000 0.44640  0.13250  0.49670  Biso   1.000  C
  H185     1.0000 0.42880  0.11740  0.46770  Biso   1.000  H
  H186     1.0000 0.43520  0.11510  0.52750  Biso   1.000  H
  C186     1.0000 0.50270  0.12670  0.49040  Biso   1.000  C
  O185     1.0000 0.52310  0.08270  0.48560  Biso   1.000  O
  O186     1.0000 0.53010  0.16620  0.49110  Biso   1.000  O
  C187     1.0000 0.44640  0.63250  0.99670  Biso   1.000  C
  H187     1.0000 0.42880  0.61740  0.96770  Biso   1.000  H
  H188     1.0000 0.43520  0.61510  0.02750  Biso   1.000  H
  C188     1.0000 0.50270  0.62670  0.99040  Biso   1.000  C
  O187     1.0000 0.52310  0.58270  0.98560  Biso   1.000  O
  O188     1.0000 0.53010  0.66620  0.99110  Biso   1.000  O
  C189     1.0000 0.94640  0.13250  0.99670  Biso   1.000  C
  H189     1.0000 0.92880  0.11740  0.96770  Biso   1.000  H
  H190     1.0000 0.93520  0.11510  0.02750  Biso   1.000  H
  C190     1.0000 0.00270  0.12670  0.99040  Biso   1.000  C
  O189     1.0000 0.02310  0.08270  0.98560  Biso   1.000  O
  O190     1.0000 0.03010  0.16620  0.99110  Biso   1.000  O
  C191     1.0000 0.94640  0.63250  0.49670  Biso   1.000  C
  H191     1.0000 0.92880  0.61740  0.46770  Biso   1.000  H
  H192     1.0000 0.93520  0.61510  0.52750  Biso   1.000  H
  C192     1.0000 0.00270  0.62670  0.49040  Biso   1.000  C
  O191     1.0000 0.02310  0.58270  0.48560  Biso   1.000  O
  O192     1.0000 0.03010  0.66620  0.49110  Biso   1.000  O
  C193     1.0000 0.99670  0.63250  0.94640  Biso   1.000  C
  H193     1.0000 0.96770  0.61740  0.92880  Biso   1.000  H
  H194     1.0000 0.02750  0.61510  0.93520  Biso   1.000  H
  C194     1.0000 0.99040  0.62670  0.00270  Biso   1.000  C
  O193     1.0000 0.98560  0.58270  0.02310  Biso   1.000  O
  O194     1.0000 0.99110  0.66620  0.03010  Biso   1.000  O
  C195     1.0000 0.99670  0.13250  0.44640  Biso   1.000  C
  H195     1.0000 0.96770  0.11740  0.42880  Biso   1.000  H
  H196     1.0000 0.02750  0.11510  0.43520  Biso   1.000  H
  C196     1.0000 0.99040  0.12670  0.50270  Biso   1.000  C
  O195     1.0000 0.98560  0.08270  0.52310  Biso   1.000  O
  O196     1.0000 0.99110  0.16620  0.53010  Biso   1.000  O
  C197     1.0000 0.49670  0.63250  0.44640  Biso   1.000  C
  H197     1.0000 0.46770  0.61740  0.42880  Biso   1.000  H
  H198     1.0000 0.52750  0.61510  0.43520  Biso   1.000  H
  C198     1.0000 0.49040  0.62670  0.50270  Biso   1.000  C
  O197     1.0000 0.48560  0.58270  0.52310  Biso   1.000  O
  O198     1.0000 0.49110  0.66620  0.53010  Biso   1.000  O
  C199     1.0000 0.49670  0.13250  0.94640  Biso   1.000  C
  H199     1.0000 0.46770  0.11740  0.92880  Biso   1.000  H
  H200     1.0000 0.52750  0.11510  0.93520  Biso   1.000  H
  C200     1.0000 0.49040  0.12670  0.00270  Biso   1.000  C
  O199     1.0000 0.48560  0.08270  0.02310  Biso   1.000  O
  O200     1.0000 0.49110  0.16620  0.03010  Biso   1.000  O
  C201     1.0000 0.75330  0.61750  0.44640  Biso   1.000  C
  H201     1.0000 0.78230  0.63260  0.42880  Biso   1.000  H
  H202     1.0000 0.72250  0.63490  0.43520  Biso   1.000  H
  C202     1.0000 0.75960  0.62330  0.50270  Biso   1.000  C
  O201     1.0000 0.76440  0.66730  0.52310  Biso   1.000  O
  O202     1.0000 0.75890  0.58380  0.53010  Biso   1.000  O
  C203     1.0000 0.75330  0.11750  0.94640  Biso   1.000  C
  H203     1.0000 0.78230  0.13260  0.92880  Biso   1.000  H
  H204     1.0000 0.72250  0.13490  0.93520  Biso   1.000  H
  C204     1.0000 0.75960  0.12330  0.00270  Biso   1.000  C
  O203     1.0000 0.76440  0.16730  0.02310  Biso   1.000  O
  O204     1.0000 0.75890  0.08380  0.03010  Biso   1.000  O
  C205     1.0000 0.25330  0.61750  0.94640  Biso   1.000  C
  H205     1.0000 0.28230  0.63260  0.92880  Biso   1.000  H
  H206     1.0000 0.22250  0.63490  0.93520  Biso   1.000  H
  C206     1.0000 0.25960  0.62330  0.00270  Biso   1.000  C
  O205     1.0000 0.26440  0.66730  0.02310  Biso   1.000  O
  O206     1.0000 0.25890  0.58380  0.03010  Biso   1.000  O
  C207     1.0000 0.25330  0.11750  0.44640  Biso   1.000  C
  H207     1.0000 0.28230  0.13260  0.42880  Biso   1.000  H
  H208     1.0000 0.22250  0.13490  0.43520  Biso   1.000  H
  C208     1.0000 0.25960  0.12330  0.50270  Biso   1.000  C
  O207     1.0000 0.26440  0.16730  0.52310  Biso   1.000  O
  O208     1.0000 0.25890  0.08380  0.53010  Biso   1.000  O
  C209     1.0000 0.25330  0.13250  0.80360  Biso   1.000  C
  H209     1.0000 0.28230  0.11740  0.82120  Biso   1.000  H
  H210     1.0000 0.22250  0.11510  0.81480  Biso   1.000  H
  C210     1.0000 0.25960  0.12670  0.74730  Biso   1.000  C
  O209     1.0000 0.26440  0.08270  0.72690  Biso   1.000  O
  O210     1.0000 0.25890  0.16620  0.71990  Biso   1.000  O
  C211     1.0000 0.25330  0.63250  0.30360  Biso   1.000  C
  H211     1.0000 0.28230  0.61740  0.32120  Biso   1.000  H
  H212     1.0000 0.22250  0.61510  0.31480  Biso   1.000  H
  C212     1.0000 0.25960  0.62670  0.24730  Biso   1.000  C
  O211     1.0000 0.26440  0.58270  0.22690  Biso   1.000  O
  O212     1.0000 0.25890  0.66620  0.21990  Biso   1.000  O
  C213     1.0000 0.75330  0.13250  0.30360  Biso   1.000  C
  H213     1.0000 0.78230  0.11740  0.32120  Biso   1.000  H
  H214     1.0000 0.72250  0.11510  0.31480  Biso   1.000  H
  C214     1.0000 0.75960  0.12670  0.24730  Biso   1.000  C
  O213     1.0000 0.76440  0.08270  0.22690  Biso   1.000  O
  O214     1.0000 0.75890  0.16620  0.21990  Biso   1.000  O
  C215     1.0000 0.75330  0.63250  0.80360  Biso   1.000  C
  H215     1.0000 0.78230  0.61740  0.82120  Biso   1.000  H
  H216     1.0000 0.72250  0.61510  0.81480  Biso   1.000  H
  C216     1.0000 0.75960  0.62670  0.74730  Biso   1.000  C
  O215     1.0000 0.76440  0.58270  0.72690  Biso   1.000  O
  O216     1.0000 0.75890  0.66620  0.71990  Biso   1.000  O
  C217     1.0000 0.49670  0.11750  0.30360  Biso   1.000  C
  H217     1.0000 0.46770  0.13260  0.32120  Biso   1.000  H
  H218     1.0000 0.52750  0.13490  0.31480  Biso   1.000  H
  C218     1.0000 0.49040  0.12330  0.24730  Biso   1.000  C
  O217     1.0000 0.48560  0.16730  0.22690  Biso   1.000  O
  O218     1.0000 0.49110  0.08380  0.21990  Biso   1.000  O
  C219     1.0000 0.49670  0.61750  0.80360  Biso   1.000  C
  H219     1.0000 0.46770  0.63260  0.82120  Biso   1.000  H
  H220     1.0000 0.52750  0.63490  0.81480  Biso   1.000  H
  C220     1.0000 0.49040  0.62330  0.74730  Biso   1.000  C
  O219     1.0000 0.48560  0.66730  0.72690  Biso   1.000  O
  O220     1.0000 0.49110  0.58380  0.71990  Biso   1.000  O
  C221     1.0000 0.99670  0.11750  0.80360  Biso   1.000  C
  H221     1.0000 0.96770  0.13260  0.82120  Biso   1.000  H
  H222     1.0000 0.02750  0.13490  0.81480  Biso   1.000  H
  C222     1.0000 0.99040  0.12330  0.74730  Biso   1.000  C
  O221     1.0000 0.98560  0.16730  0.72690  Biso   1.000  O
  O222     1.0000 0.99110  0.08380  0.71990  Biso   1.000  O
  C223     1.0000 0.99670  0.61750  0.30360  Biso   1.000  C
  H223     1.0000 0.96770  0.63260  0.32120  Biso   1.000  H
  H224     1.0000 0.02750  0.63490  0.31480  Biso   1.000  H
  C224     1.0000 0.99040  0.62330  0.24730  Biso   1.000  C
  O223     1.0000 0.98560  0.66730  0.22690  Biso   1.000  O
  O224     1.0000 0.99110  0.58380  0.21990  Biso   1.000  O
  C225     1.0000 0.94640  0.99670  0.63250  Biso   1.000  C
  H225     1.0000 0.92880  0.96770  0.61740  Biso   1.000  H
  H226     1.0000 0.93520  0.02750  0.61510  Biso   1.000  H
  C226     1.0000 0.00270  0.99040  0.62670  Biso   1.000  C
  O225     1.0000 0.02310  0.98560  0.58270  Biso   1.000  O
  O226     1.0000 0.03010  0.99110  0.66620  Biso   1.000  O
  C227     1.0000 0.94640  0.49670  0.13250  Biso   1.000  C
  H227     1.0000 0.92880  0.46770  0.11740  Biso   1.000  H
  H228     1.0000 0.93520  0.52750  0.11510  Biso   1.000  H
  C228     1.0000 0.00270  0.49040  0.12670  Biso   1.000  C
  O227     1.0000 0.02310  0.48560  0.08270  Biso   1.000  O
  O228     1.0000 0.03010  0.49110  0.16620  Biso   1.000  O
  C229     1.0000 0.44640  0.99670  0.13250  Biso   1.000  C
  H229     1.0000 0.42880  0.96770  0.11740  Biso   1.000  H
  H230     1.0000 0.43520  0.02750  0.11510  Biso   1.000  H
  C230     1.0000 0.50270  0.99040  0.12670  Biso   1.000  C
  O229     1.0000 0.52310  0.98560  0.08270  Biso   1.000  O
  O230     1.0000 0.53010  0.99110  0.16620  Biso   1.000  O
  C231     1.0000 0.44640  0.49670  0.63250  Biso   1.000  C
  H231     1.0000 0.42880  0.46770  0.61740  Biso   1.000  H
  H232     1.0000 0.43520  0.52750  0.61510  Biso   1.000  H
  C232     1.0000 0.50270  0.49040  0.62670  Biso   1.000  C
  O231     1.0000 0.52310  0.48560  0.58270  Biso   1.000  O
  O232     1.0000 0.53010  0.49110  0.66620  Biso   1.000  O
  C233     1.0000 0.44640  0.75330  0.61750  Biso   1.000  C
  H233     1.0000 0.42880  0.78230  0.63260  Biso   1.000  H
  H234     1.0000 0.43520  0.72250  0.63490  Biso   1.000  H
  C234     1.0000 0.50270  0.75960  0.62330  Biso   1.000  C
  O233     1.0000 0.52310  0.76440  0.66730  Biso   1.000  O
  O234     1.0000 0.53010  0.75890  0.58380  Biso   1.000  O
  C235     1.0000 0.44640  0.25330  0.11750  Biso   1.000  C
  H235     1.0000 0.42880  0.28230  0.13260  Biso   1.000  H
  H236     1.0000 0.43520  0.22250  0.13490  Biso   1.000  H
  C236     1.0000 0.50270  0.25960  0.12330  Biso   1.000  C
  O235     1.0000 0.52310  0.26440  0.16730  Biso   1.000  O
  O236     1.0000 0.53010  0.25890  0.08380  Biso   1.000  O
  C237     1.0000 0.94640  0.75330  0.11750  Biso   1.000  C
  H237     1.0000 0.92880  0.78230  0.13260  Biso   1.000  H
  H238     1.0000 0.93520  0.72250  0.13490  Biso   1.000  H
  C238     1.0000 0.00270  0.75960  0.12330  Biso   1.000  C
  O237     1.0000 0.02310  0.76440  0.16730  Biso   1.000  O
  O238     1.0000 0.03010  0.75890  0.08380  Biso   1.000  O
  C239     1.0000 0.94640  0.25330  0.61750  Biso   1.000  C
  H239     1.0000 0.92880  0.28230  0.63260  Biso   1.000  H
  H240     1.0000 0.93520  0.22250  0.63490  Biso   1.000  H
  C240     1.0000 0.00270  0.25960  0.62330  Biso   1.000  C
  O239     1.0000 0.02310  0.26440  0.66730  Biso   1.000  O
  O240     1.0000 0.03010  0.25890  0.58380  Biso   1.000  O
  C241     1.0000 0.80360  0.25330  0.13250  Biso   1.000  C
  H241     1.0000 0.82120  0.28230  0.11740  Biso   1.000  H
  H242     1.0000 0.81480  0.22250  0.11510  Biso   1.000  H
  C242     1.0000 0.74730  0.25960  0.12670  Biso   1.000  C
  O241     1.0000 0.72690  0.26440  0.08270  Biso   1.000  O
  O242     1.0000 0.71990  0.25890  0.16620  Biso   1.000  O
  C243     1.0000 0.80360  0.75330  0.63250  Biso   1.000  C
  H243     1.0000 0.82120  0.78230  0.61740  Biso   1.000  H
  H244     1.0000 0.81480  0.72250  0.61510  Biso   1.000  H
  C244     1.0000 0.74730  0.75960  0.62670  Biso   1.000  C
  O243     1.0000 0.72690  0.76440  0.58270  Biso   1.000  O
  O244     1.0000 0.71990  0.75890  0.66620  Biso   1.000  O
  C245     1.0000 0.30360  0.25330  0.63250  Biso   1.000  C
  H245     1.0000 0.32120  0.28230  0.61740  Biso   1.000  H
  H246     1.0000 0.31480  0.22250  0.61510  Biso   1.000  H
  C246     1.0000 0.24730  0.25960  0.62670  Biso   1.000  C
  O245     1.0000 0.22690  0.26440  0.58270  Biso   1.000  O
  O246     1.0000 0.21990  0.25890  0.66620  Biso   1.000  O
  C247     1.0000 0.30360  0.75330  0.13250  Biso   1.000  C
  H247     1.0000 0.32120  0.78230  0.11740  Biso   1.000  H
  H248     1.0000 0.31480  0.72250  0.11510  Biso   1.000  H
  C248     1.0000 0.24730  0.75960  0.12670  Biso   1.000  C
  O247     1.0000 0.22690  0.76440  0.08270  Biso   1.000  O
  O248     1.0000 0.21990  0.75890  0.16620  Biso   1.000  O
  C249     1.0000 0.30360  0.49670  0.11750  Biso   1.000  C
  H249     1.0000 0.32120  0.46770  0.13260  Biso   1.000  H
  H250     1.0000 0.31480  0.52750  0.13490  Biso   1.000  H
  C250     1.0000 0.24730  0.49040  0.12330  Biso   1.000  C
  O249     1.0000 0.22690  0.48560  0.16730  Biso   1.000  O
  O250     1.0000 0.21990  0.49110  0.08380  Biso   1.000  O
  C251     1.0000 0.30360  0.99670  0.61750  Biso   1.000  C
  H251     1.0000 0.32120  0.96770  0.63260  Biso   1.000  H
  H252     1.0000 0.31480  0.02750  0.63490  Biso   1.000  H
  C252     1.0000 0.24730  0.99040  0.62330  Biso   1.000  C
  O251     1.0000 0.22690  0.98560  0.66730  Biso   1.000  O
  O252     1.0000 0.21990  0.99110  0.58380  Biso   1.000  O
  C253     1.0000 0.80360  0.49670  0.61750  Biso   1.000  C
  H253     1.0000 0.82120  0.46770  0.63260  Biso   1.000  H
  H254     1.0000 0.81480  0.52750  0.63490  Biso   1.000  H
  C254     1.0000 0.74730  0.49040  0.62330  Biso   1.000  C
  O253     1.0000 0.72690  0.48560  0.66730  Biso   1.000  O
  O254     1.0000 0.71990  0.49110  0.58380  Biso   1.000  O
  C255     1.0000 0.80360  0.99670  0.11750  Biso   1.000  C
  H255     1.0000 0.82120  0.96770  0.13260  Biso   1.000  H
  H256     1.0000 0.81480  0.02750  0.13490  Biso   1.000  H
  C256     1.0000 0.74730  0.99040  0.12330  Biso   1.000  C
  O255     1.0000 0.72690  0.98560  0.16730  Biso   1.000  O
  O256     1.0000 0.71990  0.99110  0.08380  Biso   1.000  O
  C257     1.0000 0.63250  0.94640  0.99670  Biso   1.000  C
  H257     1.0000 0.61740  0.92880  0.96770  Biso   1.000  H
  H258     1.0000 0.61510  0.93520  0.02750  Biso   1.000  H
  C258     1.0000 0.62670  0.00270  0.99040  Biso   1.000  C
  O257     1.0000 0.58270  0.02310  0.98560  Biso   1.000  O
  O258     1.0000 0.66620  0.03010  0.99110  Biso   1.000  O
  C259     1.0000 0.63250  0.44640  0.49670  Biso   1.000  C
  H259     1.0000 0.61740  0.42880  0.46770  Biso   1.000  H
  H260     1.0000 0.61510  0.43520  0.52750  Biso   1.000  H
  C260     1.0000 0.62670  0.50270  0.49040  Biso   1.000  C
  O259     1.0000 0.58270  0.52310  0.48560  Biso   1.000  O
  O260     1.0000 0.66620  0.53010  0.49110  Biso   1.000  O
  C261     1.0000 0.13250  0.94640  0.49670  Biso   1.000  C
  H261     1.0000 0.11740  0.92880  0.46770  Biso   1.000  H
  H262     1.0000 0.11510  0.93520  0.52750  Biso   1.000  H
  C262     1.0000 0.12670  0.00270  0.49040  Biso   1.000  C
  O261     1.0000 0.08270  0.02310  0.48560  Biso   1.000  O
  O262     1.0000 0.16620  0.03010  0.49110  Biso   1.000  O
  C263     1.0000 0.13250  0.44640  0.99670  Biso   1.000  C
  H263     1.0000 0.11740  0.42880  0.96770  Biso   1.000  H
  H264     1.0000 0.11510  0.43520  0.02750  Biso   1.000  H
  C264     1.0000 0.12670  0.50270  0.99040  Biso   1.000  C
  O263     1.0000 0.08270  0.52310  0.98560  Biso   1.000  O
  O264     1.0000 0.16620  0.53010  0.99110  Biso   1.000  O
  C265     1.0000 0.61750  0.44640  0.75330  Biso   1.000  C
  H265     1.0000 0.63260  0.42880  0.78230  Biso   1.000  H
  H266     1.0000 0.63490  0.43520  0.72250  Biso   1.000  H
  C266     1.0000 0.62330  0.50270  0.75960  Biso   1.000  C
  O265     1.0000 0.66730  0.52310  0.76440  Biso   1.000  O
  O266     1.0000 0.58380  0.53010  0.75890  Biso   1.000  O
  C267     1.0000 0.61750  0.94640  0.25330  Biso   1.000  C
  H267     1.0000 0.63260  0.92880  0.28230  Biso   1.000  H
  H268     1.0000 0.63490  0.93520  0.22250  Biso   1.000  H
  C268     1.0000 0.62330  0.00270  0.25960  Biso   1.000  C
  O267     1.0000 0.66730  0.02310  0.26440  Biso   1.000  O
  O268     1.0000 0.58380  0.03010  0.25890  Biso   1.000  O
  C269     1.0000 0.11750  0.44640  0.25330  Biso   1.000  C
  H269     1.0000 0.13260  0.42880  0.28230  Biso   1.000  H
  H270     1.0000 0.13490  0.43520  0.22250  Biso   1.000  H
  C270     1.0000 0.12330  0.50270  0.25960  Biso   1.000  C
  O269     1.0000 0.16730  0.52310  0.26440  Biso   1.000  O
  O270     1.0000 0.08380  0.53010  0.25890  Biso   1.000  O
  C271     1.0000 0.11750  0.94640  0.75330  Biso   1.000  C
  H271     1.0000 0.13260  0.92880  0.78230  Biso   1.000  H
  H272     1.0000 0.13490  0.93520  0.72250  Biso   1.000  H
  C272     1.0000 0.12330  0.00270  0.75960  Biso   1.000  C
  O271     1.0000 0.16730  0.02310  0.76440  Biso   1.000  O
  O272     1.0000 0.08380  0.03010  0.75890  Biso   1.000  O
  C273     1.0000 0.13250  0.80360  0.25330  Biso   1.000  C
  H273     1.0000 0.11740  0.82120  0.28230  Biso   1.000  H
  H274     1.0000 0.11510  0.81480  0.22250  Biso   1.000  H
  C274     1.0000 0.12670  0.74730  0.25960  Biso   1.000  C
  O273     1.0000 0.08270  0.72690  0.26440  Biso   1.000  O
  O274     1.0000 0.16620  0.71990  0.25890  Biso   1.000  O
  C275     1.0000 0.13250  0.30360  0.75330  Biso   1.000  C
  H275     1.0000 0.11740  0.32120  0.78230  Biso   1.000  H
  H276     1.0000 0.11510  0.31480  0.72250  Biso   1.000  H
  C276     1.0000 0.12670  0.24730  0.75960  Biso   1.000  C
  O275     1.0000 0.08270  0.22690  0.76440  Biso   1.000  O
  O276     1.0000 0.16620  0.21990  0.75890  Biso   1.000  O
  C277     1.0000 0.63250  0.80360  0.75330  Biso   1.000  C
  H277     1.0000 0.61740  0.82120  0.78230  Biso   1.000  H
  H278     1.0000 0.61510  0.81480  0.72250  Biso   1.000  H
  C278     1.0000 0.62670  0.74730  0.75960  Biso   1.000  C
  O277     1.0000 0.58270  0.72690  0.76440  Biso   1.000  O
  O278     1.0000 0.66620  0.71990  0.75890  Biso   1.000  O
  C279     1.0000 0.63250  0.30360  0.25330  Biso   1.000  C
  H279     1.0000 0.61740  0.32120  0.28230  Biso   1.000  H
  H280     1.0000 0.61510  0.31480  0.22250  Biso   1.000  H
  C280     1.0000 0.62670  0.24730  0.25960  Biso   1.000  C
  O279     1.0000 0.58270  0.22690  0.26440  Biso   1.000  O
  O280     1.0000 0.66620  0.21990  0.25890  Biso   1.000  O
  C281     1.0000 0.11750  0.30360  0.49670  Biso   1.000  C
  H281     1.0000 0.13260  0.32120  0.46770  Biso   1.000  H
  H282     1.0000 0.13490  0.31480  0.52750  Biso   1.000  H
  C282     1.0000 0.12330  0.24730  0.49040  Biso   1.000  C
  O281     1.0000 0.16730  0.22690  0.48560  Biso   1.000  O
  O282     1.0000 0.08380  0.21990  0.49110  Biso   1.000  O
  C283     1.0000 0.11750  0.80360  0.99670  Biso   1.000  C
  H283     1.0000 0.13260  0.82120  0.96770  Biso   1.000  H
  H284     1.0000 0.13490  0.81480  0.02750  Biso   1.000  H
  C284     1.0000 0.12330  0.74730  0.99040  Biso   1.000  C
  O283     1.0000 0.16730  0.72690  0.98560  Biso   1.000  O
  O284     1.0000 0.08380  0.71990  0.99110  Biso   1.000  O
  C285     1.0000 0.61750  0.30360  0.99670  Biso   1.000  C
  H285     1.0000 0.63260  0.32120  0.96770  Biso   1.000  H
  H286     1.0000 0.63490  0.31480  0.02750  Biso   1.000  H
  C286     1.0000 0.62330  0.24730  0.99040  Biso   1.000  C
  O285     1.0000 0.66730  0.22690  0.98560  Biso   1.000  O
  O286     1.0000 0.58380  0.21990  0.99110  Biso   1.000  O
  C287     1.0000 0.61750  0.80360  0.49670  Biso   1.000  C
  H287     1.0000 0.63260  0.82120  0.46770  Biso   1.000  H
  H288     1.0000 0.63490  0.81480  0.52750  Biso   1.000  H
  C288     1.0000 0.62330  0.74730  0.49040  Biso   1.000  C
  O287     1.0000 0.66730  0.72690  0.48560  Biso   1.000  O
  O288     1.0000 0.58380  0.71990  0.49110  Biso   1.000  O
  C289     1.0000 0.88250  0.74670  0.05360  Biso   1.000  C
  H289     1.0000 0.86740  0.71770  0.07120  Biso   1.000  H
  H290     1.0000 0.86510  0.77750  0.06480  Biso   1.000  H
  C290     1.0000 0.87670  0.74040  0.99730  Biso   1.000  C
  O289     1.0000 0.83270  0.73560  0.97690  Biso   1.000  O
  O290     1.0000 0.91620  0.74110  0.96990  Biso   1.000  O
  C291     1.0000 0.88250  0.24670  0.55360  Biso   1.000  C
  H291     1.0000 0.86740  0.21770  0.57120  Biso   1.000  H
  H292     1.0000 0.86510  0.27750  0.56480  Biso   1.000  H
  C292     1.0000 0.87670  0.24040  0.49730  Biso   1.000  C
  O291     1.0000 0.83270  0.23560  0.47690  Biso   1.000  O
  O292     1.0000 0.91620  0.24110  0.46990  Biso   1.000  O
  C293     1.0000 0.38250  0.74670  0.55360  Biso   1.000  C
  H293     1.0000 0.36740  0.71770  0.57120  Biso   1.000  H
  H294     1.0000 0.36510  0.77750  0.56480  Biso   1.000  H
  C294     1.0000 0.37670  0.74040  0.49730  Biso   1.000  C
  O293     1.0000 0.33270  0.73560  0.47690  Biso   1.000  O
  O294     1.0000 0.41620  0.74110  0.46990  Biso   1.000  O
  C295     1.0000 0.38250  0.24670  0.05360  Biso   1.000  C
  H295     1.0000 0.36740  0.21770  0.07120  Biso   1.000  H
  H296     1.0000 0.36510  0.27750  0.06480  Biso   1.000  H
  C296     1.0000 0.37670  0.24040  0.99730  Biso   1.000  C
  O295     1.0000 0.33270  0.23560  0.97690  Biso   1.000  O
  O296     1.0000 0.41620  0.24110  0.96990  Biso   1.000  O
  C297     1.0000 0.86750  0.50330  0.55360  Biso   1.000  C
  H297     1.0000 0.88260  0.53230  0.57120  Biso   1.000  H
  H298     1.0000 0.88490  0.47250  0.56480  Biso   1.000  H
  C298     1.0000 0.87330  0.50960  0.49730  Biso   1.000  C
  O297     1.0000 0.91730  0.51440  0.47690  Biso   1.000  O
  O298     1.0000 0.83380  0.50890  0.46990  Biso   1.000  O
  C299     1.0000 0.86750  0.00330  0.05360  Biso   1.000  C
  H299     1.0000 0.88260  0.03230  0.07120  Biso   1.000  H
  H300     1.0000 0.88490  0.97250  0.06480  Biso   1.000  H
  C300     1.0000 0.87330  0.00960  0.99730  Biso   1.000  C
  O299     1.0000 0.91730  0.01440  0.97690  Biso   1.000  O
  O300     1.0000 0.83380  0.00890  0.96990  Biso   1.000  O
  C301     1.0000 0.36750  0.50330  0.05360  Biso   1.000  C
  H301     1.0000 0.38260  0.53230  0.07120  Biso   1.000  H
  H302     1.0000 0.38490  0.47250  0.06480  Biso   1.000  H
  C302     1.0000 0.37330  0.50960  0.99730  Biso   1.000  C
  O301     1.0000 0.41730  0.51440  0.97690  Biso   1.000  O
  O302     1.0000 0.33380  0.50890  0.96990  Biso   1.000  O
  C303     1.0000 0.36750  0.00330  0.55360  Biso   1.000  C
  H303     1.0000 0.38260  0.03230  0.57120  Biso   1.000  H
  H304     1.0000 0.38490  0.97250  0.56480  Biso   1.000  H
  C304     1.0000 0.37330  0.00960  0.49730  Biso   1.000  C
  O303     1.0000 0.41730  0.01440  0.47690  Biso   1.000  O
  O304     1.0000 0.33380  0.00890  0.46990  Biso   1.000  O
  C305     1.0000 0.38250  0.00330  0.19640  Biso   1.000  C
  H305     1.0000 0.36740  0.03230  0.17880  Biso   1.000  H
  H306     1.0000 0.36510  0.97250  0.18520  Biso   1.000  H
  C306     1.0000 0.37670  0.00960  0.25270  Biso   1.000  C
  O305     1.0000 0.33270  0.01440  0.27310  Biso   1.000  O
  O306     1.0000 0.41620  0.00890  0.28010  Biso   1.000  O
  C307     1.0000 0.38250  0.50330  0.69640  Biso   1.000  C
  H307     1.0000 0.36740  0.53230  0.67880  Biso   1.000  H
  H308     1.0000 0.36510  0.47250  0.68520  Biso   1.000  H
  C308     1.0000 0.37670  0.50960  0.75270  Biso   1.000  C
  O307     1.0000 0.33270  0.51440  0.77310  Biso   1.000  O
  O308     1.0000 0.41620  0.50890  0.78010  Biso   1.000  O
  C309     1.0000 0.88250  0.00330  0.69640  Biso   1.000  C
  H309     1.0000 0.86740  0.03230  0.67880  Biso   1.000  H
  H310     1.0000 0.86510  0.97250  0.68520  Biso   1.000  H
  C310     1.0000 0.87670  0.00960  0.75270  Biso   1.000  C
  O309     1.0000 0.83270  0.01440  0.77310  Biso   1.000  O
  O310     1.0000 0.91620  0.00890  0.78010  Biso   1.000  O
  C311     1.0000 0.88250  0.50330  0.19640  Biso   1.000  C
  H311     1.0000 0.86740  0.53230  0.17880  Biso   1.000  H
  H312     1.0000 0.86510  0.47250  0.18520  Biso   1.000  H
  C312     1.0000 0.87670  0.50960  0.25270  Biso   1.000  C
  O311     1.0000 0.83270  0.51440  0.27310  Biso   1.000  O
  O312     1.0000 0.91620  0.50890  0.28010  Biso   1.000  O
  C313     1.0000 0.36750  0.24670  0.69640  Biso   1.000  C
  H313     1.0000 0.38260  0.21770  0.67880  Biso   1.000  H
  H314     1.0000 0.38490  0.27750  0.68520  Biso   1.000  H
  C314     1.0000 0.37330  0.24040  0.75270  Biso   1.000  C
  O313     1.0000 0.41730  0.23560  0.77310  Biso   1.000  O
  O314     1.0000 0.33380  0.24110  0.78010  Biso   1.000  O
  C315     1.0000 0.36750  0.74670  0.19640  Biso   1.000  C
  H315     1.0000 0.38260  0.71770  0.17880  Biso   1.000  H
  H316     1.0000 0.38490  0.77750  0.18520  Biso   1.000  H
  C316     1.0000 0.37330  0.74040  0.25270  Biso   1.000  C
  O315     1.0000 0.41730  0.73560  0.27310  Biso   1.000  O
  O316     1.0000 0.33380  0.74110  0.28010  Biso   1.000  O
  C317     1.0000 0.86750  0.24670  0.19640  Biso   1.000  C
  H317     1.0000 0.88260  0.21770  0.17880  Biso   1.000  H
  H318     1.0000 0.88490  0.27750  0.18520  Biso   1.000  H
  C318     1.0000 0.87330  0.24040  0.25270  Biso   1.000  C
  O317     1.0000 0.91730  0.23560  0.27310  Biso   1.000  O
  O318     1.0000 0.83380  0.24110  0.28010  Biso   1.000  O
  C319     1.0000 0.86750  0.74670  0.69640  Biso   1.000  C
  H319     1.0000 0.88260  0.71770  0.67880  Biso   1.000  H
  H320     1.0000 0.88490  0.77750  0.68520  Biso   1.000  H
  C320     1.0000 0.87330  0.74040  0.75270  Biso   1.000  C
  O319     1.0000 0.91730  0.73560  0.77310  Biso   1.000  O
  O320     1.0000 0.83380  0.74110  0.78010  Biso   1.000  O
  C321     1.0000 0.24670  0.69640  0.36750  Biso   1.000  C
  H321     1.0000 0.21770  0.67880  0.38260  Biso   1.000  H
  H322     1.0000 0.27750  0.68520  0.38490  Biso   1.000  H
  C322     1.0000 0.24040  0.75270  0.37330  Biso   1.000  C
  O321     1.0000 0.23560  0.77310  0.41730  Biso   1.000  O
  O322     1.0000 0.24110  0.78010  0.33380  Biso   1.000  O
  C323     1.0000 0.24670  0.19640  0.86750  Biso   1.000  C
  H323     1.0000 0.21770  0.17880  0.88260  Biso   1.000  H
  H324     1.0000 0.27750  0.18520  0.88490  Biso   1.000  H
  C324     1.0000 0.24040  0.25270  0.87330  Biso   1.000  C
  O323     1.0000 0.23560  0.27310  0.91730  Biso   1.000  O
  O324     1.0000 0.24110  0.28010  0.83380  Biso   1.000  O
  C325     1.0000 0.74670  0.69640  0.86750  Biso   1.000  C
  H325     1.0000 0.71770  0.67880  0.88260  Biso   1.000  H
  H326     1.0000 0.77750  0.68520  0.88490  Biso   1.000  H
  C326     1.0000 0.74040  0.75270  0.87330  Biso   1.000  C
  O325     1.0000 0.73560  0.77310  0.91730  Biso   1.000  O
  O326     1.0000 0.74110  0.78010  0.83380  Biso   1.000  O
  C327     1.0000 0.74670  0.19640  0.36750  Biso   1.000  C
  H327     1.0000 0.71770  0.17880  0.38260  Biso   1.000  H
  H328     1.0000 0.77750  0.18520  0.38490  Biso   1.000  H
  C328     1.0000 0.74040  0.25270  0.37330  Biso   1.000  C
  O327     1.0000 0.73560  0.27310  0.41730  Biso   1.000  O
  O328     1.0000 0.74110  0.28010  0.33380  Biso   1.000  O
  C329     1.0000 0.00330  0.19640  0.38250  Biso   1.000  C
  H329     1.0000 0.03230  0.17880  0.36740  Biso   1.000  H
  H330     1.0000 0.97250  0.18520  0.36510  Biso   1.000  H
  C330     1.0000 0.00960  0.25270  0.37670  Biso   1.000  C
  O329     1.0000 0.01440  0.27310  0.33270  Biso   1.000  O
  O330     1.0000 0.00890  0.28010  0.41620  Biso   1.000  O
  C331     1.0000 0.00330  0.69640  0.88250  Biso   1.000  C
  H331     1.0000 0.03230  0.67880  0.86740  Biso   1.000  H
  H332     1.0000 0.97250  0.68520  0.86510  Biso   1.000  H
  C332     1.0000 0.00960  0.75270  0.87670  Biso   1.000  C
  O331     1.0000 0.01440  0.77310  0.83270  Biso   1.000  O
  O332     1.0000 0.00890  0.78010  0.91620  Biso   1.000  O
  C333     1.0000 0.50330  0.19640  0.88250  Biso   1.000  C
  H333     1.0000 0.53230  0.17880  0.86740  Biso   1.000  H
  H334     1.0000 0.47250  0.18520  0.86510  Biso   1.000  H
  C334     1.0000 0.50960  0.25270  0.87670  Biso   1.000  C
  O333     1.0000 0.51440  0.27310  0.83270  Biso   1.000  O
  O334     1.0000 0.50890  0.28010  0.91620  Biso   1.000  O
  C335     1.0000 0.50330  0.69640  0.38250  Biso   1.000  C
  H335     1.0000 0.53230  0.67880  0.36740  Biso   1.000  H
  H336     1.0000 0.47250  0.68520  0.36510  Biso   1.000  H
  C336     1.0000 0.50960  0.75270  0.37670  Biso   1.000  C
  O335     1.0000 0.51440  0.77310  0.33270  Biso   1.000  O
  O336     1.0000 0.50890  0.78010  0.41620  Biso   1.000  O
  C337     1.0000 0.50330  0.55360  0.86750  Biso   1.000  C
  H337     1.0000 0.53230  0.57120  0.88260  Biso   1.000  H
  H338     1.0000 0.47250  0.56480  0.88490  Biso   1.000  H
  C338     1.0000 0.50960  0.49730  0.87330  Biso   1.000  C
  O337     1.0000 0.51440  0.47690  0.91730  Biso   1.000  O
  O338     1.0000 0.50890  0.46990  0.83380  Biso   1.000  O
  C339     1.0000 0.50330  0.05360  0.36750  Biso   1.000  C
  H339     1.0000 0.53230  0.07120  0.38260  Biso   1.000  H
  H340     1.0000 0.47250  0.06480  0.38490  Biso   1.000  H
  C340     1.0000 0.50960  0.99730  0.37330  Biso   1.000  C
  O339     1.0000 0.51440  0.97690  0.41730  Biso   1.000  O
  O340     1.0000 0.50890  0.96990  0.33380  Biso   1.000  O
  C341     1.0000 0.00330  0.55360  0.36750  Biso   1.000  C
  H341     1.0000 0.03230  0.57120  0.38260  Biso   1.000  H
  H342     1.0000 0.97250  0.56480  0.38490  Biso   1.000  H
  C342     1.0000 0.00960  0.49730  0.37330  Biso   1.000  C
  O341     1.0000 0.01440  0.47690  0.41730  Biso   1.000  O
  O342     1.0000 0.00890  0.46990  0.33380  Biso   1.000  O
  C343     1.0000 0.00330  0.05360  0.86750  Biso   1.000  C
  H343     1.0000 0.03230  0.07120  0.88260  Biso   1.000  H
  H344     1.0000 0.97250  0.06480  0.88490  Biso   1.000  H
  C344     1.0000 0.00960  0.99730  0.87330  Biso   1.000  C
  O343     1.0000 0.01440  0.97690  0.91730  Biso   1.000  O
  O344     1.0000 0.00890  0.96990  0.83380  Biso   1.000  O
  C345     1.0000 0.74670  0.05360  0.88250  Biso   1.000  C
  H345     1.0000 0.71770  0.07120  0.86740  Biso   1.000  H
  H346     1.0000 0.77750  0.06480  0.86510  Biso   1.000  H
  C346     1.0000 0.74040  0.99730  0.87670  Biso   1.000  C
  O345     1.0000 0.73560  0.97690  0.83270  Biso   1.000  O
  O346     1.0000 0.74110  0.96990  0.91620  Biso   1.000  O
  C347     1.0000 0.74670  0.55360  0.38250  Biso   1.000  C
  H347     1.0000 0.71770  0.57120  0.36740  Biso   1.000  H
  H348     1.0000 0.77750  0.56480  0.36510  Biso   1.000  H
  C348     1.0000 0.74040  0.49730  0.37670  Biso   1.000  C
  O347     1.0000 0.73560  0.47690  0.33270  Biso   1.000  O
  O348     1.0000 0.74110  0.46990  0.41620  Biso   1.000  O
  C349     1.0000 0.24670  0.05360  0.38250  Biso   1.000  C
  H349     1.0000 0.21770  0.07120  0.36740  Biso   1.000  H
  H350     1.0000 0.27750  0.06480  0.36510  Biso   1.000  H
  C350     1.0000 0.24040  0.99730  0.37670  Biso   1.000  C
  O349     1.0000 0.23560  0.97690  0.33270  Biso   1.000  O
  O350     1.0000 0.24110  0.96990  0.41620  Biso   1.000  O
  C351     1.0000 0.24670  0.55360  0.88250  Biso   1.000  C
  H351     1.0000 0.21770  0.57120  0.86740  Biso   1.000  H
  H352     1.0000 0.27750  0.56480  0.86510  Biso   1.000  H
  C352     1.0000 0.24040  0.49730  0.87670  Biso   1.000  C
  O351     1.0000 0.23560  0.47690  0.83270  Biso   1.000  O
  O352     1.0000 0.24110  0.46990  0.91620  Biso   1.000  O
  C353     1.0000 0.19640  0.38250  0.00330  Biso   1.000  C
  H353     1.0000 0.17880  0.36740  0.03230  Biso   1.000  H
  H354     1.0000 0.18520  0.36510  0.97250  Biso   1.000  H
  C354     1.0000 0.25270  0.37670  0.00960  Biso   1.000  C
  O353     1.0000 0.27310  0.33270  0.01440  Biso   1.000  O
  O354     1.0000 0.28010  0.41620  0.00890  Biso   1.000  O
  C355     1.0000 0.19640  0.88250  0.50330  Biso   1.000  C
  H355     1.0000 0.17880  0.86740  0.53230  Biso   1.000  H
  H356     1.0000 0.18520  0.86510  0.47250  Biso   1.000  H
  C356     1.0000 0.25270  0.87670  0.50960  Biso   1.000  C
  O355     1.0000 0.27310  0.83270  0.51440  Biso   1.000  O
  O356     1.0000 0.28010  0.91620  0.50890  Biso   1.000  O
  C357     1.0000 0.69640  0.38250  0.50330  Biso   1.000  C
  H357     1.0000 0.67880  0.36740  0.53230  Biso   1.000  H
  H358     1.0000 0.68520  0.36510  0.47250  Biso   1.000  H
  C358     1.0000 0.75270  0.37670  0.50960  Biso   1.000  C
  O357     1.0000 0.77310  0.33270  0.51440  Biso   1.000  O
  O358     1.0000 0.78010  0.41620  0.50890  Biso   1.000  O
  C359     1.0000 0.69640  0.88250  0.00330  Biso   1.000  C
  H359     1.0000 0.67880  0.86740  0.03230  Biso   1.000  H
  H360     1.0000 0.68520  0.86510  0.97250  Biso   1.000  H
  C360     1.0000 0.75270  0.87670  0.00960  Biso   1.000  C
  O359     1.0000 0.77310  0.83270  0.01440  Biso   1.000  O
  O360     1.0000 0.78010  0.91620  0.00890  Biso   1.000  O
  C361     1.0000 0.69640  0.36750  0.24670  Biso   1.000  C
  H361     1.0000 0.67880  0.38260  0.21770  Biso   1.000  H
  H362     1.0000 0.68520  0.38490  0.27750  Biso   1.000  H
  C362     1.0000 0.75270  0.37330  0.24040  Biso   1.000  C
  O361     1.0000 0.77310  0.41730  0.23560  Biso   1.000  O
  O362     1.0000 0.78010  0.33380  0.24110  Biso   1.000  O
  C363     1.0000 0.69640  0.86750  0.74670  Biso   1.000  C
  H363     1.0000 0.67880  0.88260  0.71770  Biso   1.000  H
  H364     1.0000 0.68520  0.88490  0.77750  Biso   1.000  H
  C364     1.0000 0.75270  0.87330  0.74040  Biso   1.000  C
  O363     1.0000 0.77310  0.91730  0.73560  Biso   1.000  O
  O364     1.0000 0.78010  0.83380  0.74110  Biso   1.000  O
  C365     1.0000 0.19640  0.36750  0.74670  Biso   1.000  C
  H365     1.0000 0.17880  0.38260  0.71770  Biso   1.000  H
  H366     1.0000 0.18520  0.38490  0.77750  Biso   1.000  H
  C366     1.0000 0.25270  0.37330  0.74040  Biso   1.000  C
  O365     1.0000 0.27310  0.41730  0.73560  Biso   1.000  O
  O366     1.0000 0.28010  0.33380  0.74110  Biso   1.000  O
  C367     1.0000 0.19640  0.86750  0.24670  Biso   1.000  C
  H367     1.0000 0.17880  0.88260  0.21770  Biso   1.000  H
  H368     1.0000 0.18520  0.88490  0.27750  Biso   1.000  H
  C368     1.0000 0.25270  0.87330  0.24040  Biso   1.000  C
  O367     1.0000 0.27310  0.91730  0.23560  Biso   1.000  O
  O368     1.0000 0.28010  0.83380  0.24110  Biso   1.000  O
  C369     1.0000 0.05360  0.88250  0.74670  Biso   1.000  C
  H369     1.0000 0.07120  0.86740  0.71770  Biso   1.000  H
  H370     1.0000 0.06480  0.86510  0.77750  Biso   1.000  H
  C370     1.0000 0.99730  0.87670  0.74040  Biso   1.000  C
  O369     1.0000 0.97690  0.83270  0.73560  Biso   1.000  O
  O370     1.0000 0.96990  0.91620  0.74110  Biso   1.000  O
  C371     1.0000 0.05360  0.38250  0.24670  Biso   1.000  C
  H371     1.0000 0.07120  0.36740  0.21770  Biso   1.000  H
  H372     1.0000 0.06480  0.36510  0.27750  Biso   1.000  H
  C372     1.0000 0.99730  0.37670  0.24040  Biso   1.000  C
  O371     1.0000 0.97690  0.33270  0.23560  Biso   1.000  O
  O372     1.0000 0.96990  0.41620  0.24110  Biso   1.000  O
  C373     1.0000 0.55360  0.88250  0.24670  Biso   1.000  C
  H373     1.0000 0.57120  0.86740  0.21770  Biso   1.000  H
  H374     1.0000 0.56480  0.86510  0.27750  Biso   1.000  H
  C374     1.0000 0.49730  0.87670  0.24040  Biso   1.000  C
  O373     1.0000 0.47690  0.83270  0.23560  Biso   1.000  O
  O374     1.0000 0.46990  0.91620  0.24110  Biso   1.000  O
  C375     1.0000 0.55360  0.38250  0.74670  Biso   1.000  C
  H375     1.0000 0.57120  0.36740  0.71770  Biso   1.000  H
  H376     1.0000 0.56480  0.36510  0.77750  Biso   1.000  H
  C376     1.0000 0.49730  0.37670  0.74040  Biso   1.000  C
  O375     1.0000 0.47690  0.33270  0.73560  Biso   1.000  O
  O376     1.0000 0.46990  0.41620  0.74110  Biso   1.000  O
  C377     1.0000 0.55360  0.86750  0.50330  Biso   1.000  C
  H377     1.0000 0.57120  0.88260  0.53230  Biso   1.000  H
  H378     1.0000 0.56480  0.88490  0.47250  Biso   1.000  H
  C378     1.0000 0.49730  0.87330  0.50960  Biso   1.000  C
  O377     1.0000 0.47690  0.91730  0.51440  Biso   1.000  O
  O378     1.0000 0.46990  0.83380  0.50890  Biso   1.000  O
  C379     1.0000 0.55360  0.36750  0.00330  Biso   1.000  C
  H379     1.0000 0.57120  0.38260  0.03230  Biso   1.000  H
  H380     1.0000 0.56480  0.38490  0.97250  Biso   1.000  H
  C380     1.0000 0.49730  0.37330  0.00960  Biso   1.000  C
  O379     1.0000 0.47690  0.41730  0.01440  Biso   1.000  O
  O380     1.0000 0.46990  0.33380  0.00890  Biso   1.000  O
  C381     1.0000 0.05360  0.86750  0.00330  Biso   1.000  C
  H381     1.0000 0.07120  0.88260  0.03230  Biso   1.000  H
  H382     1.0000 0.06480  0.88490  0.97250  Biso   1.000  H
  C382     1.0000 0.99730  0.87330  0.00960  Biso   1.000  C
  O381     1.0000 0.97690  0.91730  0.01440  Biso   1.000  O
  O382     1.0000 0.96990  0.83380  0.00890  Biso   1.000  O
  C383     1.0000 0.05360  0.36750  0.50330  Biso   1.000  C
  H383     1.0000 0.07120  0.38260  0.53230  Biso   1.000  H
  H384     1.0000 0.06480  0.38490  0.47250  Biso   1.000  H
  C384     1.0000 0.99730  0.37330  0.50960  Biso   1.000  C
  O383     1.0000 0.97690  0.41730  0.51440  Biso   1.000  O
  O384     1.0000 0.96990  0.33380  0.50890  Biso   1.000  O
  Tm1      1.0000 0.00000  0.25000  0.00000  Biso   1.000  Tm
  Tm2      1.0000 0.25000  0.50000  0.50000  Biso   1.000  Tm
  Tm3      1.0000 0.75000  0.75000  0.25000  Biso   1.000  Tm
  Tm4      1.0000 0.50000  0.00000  0.75000  Biso   1.000  Tm
  Tm5      1.0000 0.00000  0.00000  0.25000  Biso   1.000  Tm
  Tm6      1.0000 0.00000  0.50000  0.75000  Biso   1.000  Tm
  Tm7      1.0000 0.50000  0.25000  0.50000  Biso   1.000  Tm
  Tm8      1.0000 0.50000  0.75000  0.00000  Biso   1.000  Tm
  Tm9      1.0000 0.25000  0.75000  0.75000  Biso   1.000  Tm
  Tm10     1.0000 0.25000  0.25000  0.25000  Biso   1.000  Tm
  Tm11     1.0000 0.75000  0.50000  0.00000  Biso   1.000  Tm
  Tm12     1.0000 0.75000  0.00000  0.50000  Biso   1.000  Tm
  Tm13     1.0000 0.25000  0.00000  0.00000  Biso   1.000  Tm
  Tm14     1.0000 0.50000  0.50000  0.25000  Biso   1.000  Tm
  Tm15     1.0000 0.75000  0.25000  0.75000  Biso   1.000  Tm
  Tm16     1.0000 0.00000  0.75000  0.50000  Biso   1.000  Tm
  Tm17     1.0000 0.00000  0.75000  0.00000  Biso   1.000  Tm
  Tm18     1.0000 0.75000  0.50000  0.50000  Biso   1.000  Tm
  Tm19     1.0000 0.25000  0.25000  0.75000  Biso   1.000  Tm
  Tm20     1.0000 0.50000  0.00000  0.25000  Biso   1.000  Tm
  Tm21     1.0000 0.00000  0.00000  0.75000  Biso   1.000  Tm
  Tm22     1.0000 0.00000  0.50000  0.25000  Biso   1.000  Tm
  Tm23     1.0000 0.50000  0.75000  0.50000  Biso   1.000  Tm
  Tm24     1.0000 0.50000  0.25000  0.00000  Biso   1.000  Tm
  Tm25     1.0000 0.75000  0.25000  0.25000  Biso   1.000  Tm
  Tm26     1.0000 0.75000  0.75000  0.75000  Biso   1.000  Tm
  Tm27     1.0000 0.25000  0.50000  0.00000  Biso   1.000  Tm
  Tm28     1.0000 0.25000  0.00000  0.50000  Biso   1.000  Tm
  Tm29     1.0000 0.75000  0.00000  0.00000  Biso   1.000  Tm
  Tm30     1.0000 0.50000  0.50000  0.75000  Biso   1.000  Tm
  Tm31     1.0000 0.25000  0.75000  0.25000  Biso   1.000  Tm
  Tm32     1.0000 0.00000  0.25000  0.50000  Biso   1.000  Tm
  Cd1      1.0000 0.00000  0.50000  0.00000  Biso   1.000  Cd
  Cd2      1.0000 0.25000  0.25000  0.50000  Biso   1.000  Cd
  Cd3      1.0000 0.75000  0.00000  0.25000  Biso   1.000  Cd
  Cd4      1.0000 0.50000  0.75000  0.75000  Biso   1.000  Cd
  Cd5      1.0000 0.00000  0.00000  0.50000  Biso   1.000  Cd
  Cd6      1.0000 0.50000  0.25000  0.25000  Biso   1.000  Cd
  Cd7      1.0000 0.25000  0.75000  0.00000  Biso   1.000  Cd
  Cd8      1.0000 0.75000  0.50000  0.75000  Biso   1.000  Cd
  Cd9      1.0000 0.50000  0.00000  0.00000  Biso   1.000  Cd
  Cd10     1.0000 0.50000  0.50000  0.50000  Biso   1.000  Cd
  Cd11     1.0000 0.25000  0.50000  0.25000  Biso   1.000  Cd
  Cd12     1.0000 0.00000  0.25000  0.75000  Biso   1.000  Cd
  Cd13     1.0000 0.75000  0.75000  0.50000  Biso   1.000  Cd
  Cd14     1.0000 0.25000  0.25000  0.00000  Biso   1.000  Cd
  Cd15     1.0000 0.00000  0.50000  0.50000  Biso   1.000  Cd
  Cd16     1.0000 0.00000  0.00000  0.00000  Biso   1.000  Cd
  Cd17     1.0000 0.75000  0.00000  0.75000  Biso   1.000  Cd
  Cd18     1.0000 0.50000  0.75000  0.25000  Biso   1.000  Cd
  Cd19     1.0000 0.75000  0.25000  0.50000  Biso   1.000  Cd
  Cd20     1.0000 0.00000  0.75000  0.75000  Biso   1.000  Cd
  Cd21     1.0000 0.50000  0.50000  0.00000  Biso   1.000  Cd
  Cd22     1.0000 0.25000  0.00000  0.25000  Biso   1.000  Cd
  Cd23     1.0000 0.75000  0.75000  0.00000  Biso   1.000  Cd
  Cd24     1.0000 0.25000  0.50000  0.75000  Biso   1.000  Cd
  Cd25     1.0000 0.00000  0.25000  0.25000  Biso   1.000  Cd
  Cd26     1.0000 0.50000  0.00000  0.50000  Biso   1.000  Cd
  Cd27     1.0000 0.25000  0.00000  0.75000  Biso   1.000  Cd
  Cd28     1.0000 0.75000  0.25000  0.00000  Biso   1.000  Cd
  Cd29     1.0000 0.00000  0.75000  0.25000  Biso   1.000  Cd
  Cd30     1.0000 0.50000  0.25000  0.75000  Biso   1.000  Cd
  Cd31     1.0000 0.25000  0.75000  0.50000  Biso   1.000  Cd
  Cd32     1.0000 0.75000  0.50000  0.25000  Biso   1.000  Cd
  O385     1.0000 0.00000  0.31540  0.06540  Biso   1.000  O
  O386     1.0000 0.50000  0.31540  0.56540  Biso   1.000  O
  O387     1.0000 0.25000  0.43460  0.56540  Biso   1.000  O
  O388     1.0000 0.75000  0.43460  0.06540  Biso   1.000  O
  O389     1.0000 0.75000  0.81540  0.18460  Biso   1.000  O
  O390     1.0000 0.75000  0.31540  0.68460  Biso   1.000  O
  O391     1.0000 0.25000  0.81540  0.68460  Biso   1.000  O
  O392     1.0000 0.50000  0.93460  0.68460  Biso   1.000  O
  O393     1.0000 0.00000  0.93460  0.18460  Biso   1.000  O
  O394     1.0000 0.06540  0.00000  0.31540  Biso   1.000  O
  O395     1.0000 0.06540  0.50000  0.81540  Biso   1.000  O
  O396     1.0000 0.56540  0.25000  0.43460  Biso   1.000  O
  O397     1.0000 0.56540  0.75000  0.93460  Biso   1.000  O
  O398     1.0000 0.18460  0.75000  0.81540  Biso   1.000  O
  O399     1.0000 0.18460  0.25000  0.31540  Biso   1.000  O
  O400     1.0000 0.68460  0.75000  0.31540  Biso   1.000  O
  O401     1.0000 0.68460  0.50000  0.93460  Biso   1.000  O
  O402     1.0000 0.68460  0.00000  0.43460  Biso   1.000  O
  O403     1.0000 0.18460  0.00000  0.93460  Biso   1.000  O
  O404     1.0000 0.31540  0.06540  0.00000  Biso   1.000  O
  O405     1.0000 0.31540  0.56540  0.50000  Biso   1.000  O
  O406     1.0000 0.43460  0.56540  0.25000  Biso   1.000  O
  O407     1.0000 0.43460  0.06540  0.75000  Biso   1.000  O
  O408     1.0000 0.81540  0.18460  0.75000  Biso   1.000  O
  O409     1.0000 0.81540  0.68460  0.25000  Biso   1.000  O
  O410     1.0000 0.31540  0.68460  0.75000  Biso   1.000  O
  O411     1.0000 0.93460  0.68460  0.50000  Biso   1.000  O
  O412     1.0000 0.93460  0.18460  0.00000  Biso   1.000  O
  O413     1.0000 0.06540  0.25000  0.93460  Biso   1.000  O
  O414     1.0000 0.06540  0.75000  0.43460  Biso   1.000  O
  O415     1.0000 0.18460  0.50000  0.43460  Biso   1.000  O
  O416     1.0000 0.56540  0.00000  0.81540  Biso   1.000  O
  O417     1.0000 0.56540  0.50000  0.31540  Biso   1.000  O
  O418     1.0000 0.68460  0.25000  0.81540  Biso   1.000  O
  O419     1.0000 0.25000  0.31540  0.18460  Biso   1.000  O
  O420     1.0000 0.00000  0.81540  0.56540  Biso   1.000  O
  O421     1.0000 0.50000  0.81540  0.06540  Biso   1.000  O
  O422     1.0000 0.50000  0.43460  0.18460  Biso   1.000  O
  O423     1.0000 0.00000  0.43460  0.68460  Biso   1.000  O
  O424     1.0000 0.25000  0.93460  0.06540  Biso   1.000  O
  O425     1.0000 0.75000  0.93460  0.56540  Biso   1.000  O
  O426     1.0000 0.81540  0.56540  0.00000  Biso   1.000  O
  O427     1.0000 0.81540  0.06540  0.50000  Biso   1.000  O
  O428     1.0000 0.31540  0.18460  0.25000  Biso   1.000  O
  O429     1.0000 0.93460  0.06540  0.25000  Biso   1.000  O
  O430     1.0000 0.93460  0.56540  0.75000  Biso   1.000  O
  O431     1.0000 0.43460  0.18460  0.50000  Biso   1.000  O
  O432     1.0000 0.43460  0.68460  0.00000  Biso   1.000  O
  O433     1.0000 0.00000  0.68460  0.93460  Biso   1.000  O
  O434     1.0000 0.50000  0.68460  0.43460  Biso   1.000  O
  O435     1.0000 0.75000  0.56540  0.43460  Biso   1.000  O
  O436     1.0000 0.75000  0.06540  0.93460  Biso   1.000  O
  O437     1.0000 0.25000  0.56540  0.93460  Biso   1.000  O
  O438     1.0000 0.25000  0.18460  0.81540  Biso   1.000  O
  O439     1.0000 0.75000  0.18460  0.31540  Biso   1.000  O
  O440     1.0000 0.50000  0.06540  0.31540  Biso   1.000  O
  O441     1.0000 0.00000  0.06540  0.81540  Biso   1.000  O
  O442     1.0000 0.00000  0.56540  0.31540  Biso   1.000  O
  O443     1.0000 0.93460  0.00000  0.68460  Biso   1.000  O
  O444     1.0000 0.93460  0.50000  0.18460  Biso   1.000  O
  O445     1.0000 0.43460  0.75000  0.56540  Biso   1.000  O
  O446     1.0000 0.43460  0.25000  0.06540  Biso   1.000  O
  O447     1.0000 0.93460  0.75000  0.06540  Biso   1.000  O
  O448     1.0000 0.81540  0.25000  0.18460  Biso   1.000  O
  O449     1.0000 0.81540  0.75000  0.68460  Biso   1.000  O
  O450     1.0000 0.31540  0.50000  0.06540  Biso   1.000  O
  O451     1.0000 0.31540  0.00000  0.56540  Biso   1.000  O
  O452     1.0000 0.68460  0.93460  0.00000  Biso   1.000  O
  O453     1.0000 0.68460  0.43460  0.50000  Biso   1.000  O
  O454     1.0000 0.56540  0.43460  0.75000  Biso   1.000  O
  O455     1.0000 0.56540  0.93460  0.25000  Biso   1.000  O
  O456     1.0000 0.06540  0.93460  0.75000  Biso   1.000  O
  O457     1.0000 0.18460  0.81540  0.25000  Biso   1.000  O
  O458     1.0000 0.18460  0.31540  0.75000  Biso   1.000  O
  O459     1.0000 0.06540  0.31540  0.50000  Biso   1.000  O
  O460     1.0000 0.06540  0.81540  0.00000  Biso   1.000  O
  O461     1.0000 0.56540  0.31540  0.00000  Biso   1.000  O
  O462     1.0000 0.93460  0.25000  0.56540  Biso   1.000  O
  O463     1.0000 0.81540  0.50000  0.56540  Biso   1.000  O
  O464     1.0000 0.81540  0.00000  0.06540  Biso   1.000  O
  O465     1.0000 0.43460  0.00000  0.18460  Biso   1.000  O
  O466     1.0000 0.43460  0.50000  0.68460  Biso   1.000  O
  O467     1.0000 0.31540  0.25000  0.68460  Biso   1.000  O
  O468     1.0000 0.31540  0.75000  0.18460  Biso   1.000  O
  O469     1.0000 0.25000  0.68460  0.31540  Biso   1.000  O
  O470     1.0000 0.75000  0.68460  0.81540  Biso   1.000  O
  O471     1.0000 0.00000  0.18460  0.43460  Biso   1.000  O
  O472     1.0000 0.50000  0.18460  0.93460  Biso   1.000  O
  O473     1.0000 0.50000  0.56540  0.81540  Biso   1.000  O
  O474     1.0000 0.25000  0.06540  0.43460  Biso   1.000  O
  O475     1.0000 0.18460  0.43460  0.00000  Biso   1.000  O
  O476     1.0000 0.18460  0.93460  0.50000  Biso   1.000  O
  O477     1.0000 0.68460  0.31540  0.25000  Biso   1.000  O
  O478     1.0000 0.68460  0.81540  0.75000  Biso   1.000  O
  O479     1.0000 0.06540  0.43460  0.25000  Biso   1.000  O
  O480     1.0000 0.56540  0.81540  0.50000  Biso   1.000  O
