data_image0
_cell_length_a       26.16
_cell_length_b       26.16
_cell_length_c       26.16
_cell_angle_alpha    90
_cell_angle_beta     90
_cell_angle_gamma    90

_symmetry_space_group_name_H-M    "P 1"
_symmetry_int_tables_number       1

loop_
  _symmetry_equiv_pos_as_xyz
  'x, y, z'

loop_
  _atom_site_label
  _atom_site_occupancy
  _atom_site_fract_x
  _atom_site_fract_y
  _atom_site_fract_z
  _atom_site_thermal_displace_type
  _atom_site_B_iso_or_equiv
  _atom_site_type_symbol
  O1       1.0000 0.01410  0.41690  0.97730  Biso   1.000  O
  O2       1.0000 0.00890  0.33430  0.96990  Biso   1.000  O
  C1       1.0000 0.00870  0.37330  0.99870  Biso   1.000  C
  C2       1.0000 0.00340  0.36720  0.05420  Biso   1.000  C
  H1       1.0000 0.03280  0.38190  0.07140  Biso   1.000  H
  H2       1.0000 0.97300  0.38480  0.06600  Biso   1.000  H
  O3       1.0000 0.01410  0.91690  0.47730  Biso   1.000  O
  O4       1.0000 0.00890  0.83430  0.46990  Biso   1.000  O
  C3       1.0000 0.00870  0.87330  0.49870  Biso   1.000  C
  C4       1.0000 0.00340  0.86720  0.55420  Biso   1.000  C
  H3       1.0000 0.03280  0.88190  0.57140  Biso   1.000  H
  H4       1.0000 0.97300  0.88480  0.56600  Biso   1.000  H
  O5       1.0000 0.51410  0.41690  0.47730  Biso   1.000  O
  O6       1.0000 0.50890  0.33430  0.46990  Biso   1.000  O
  C5       1.0000 0.50870  0.37330  0.49870  Biso   1.000  C
  C6       1.0000 0.50340  0.36720  0.55420  Biso   1.000  C
  H5       1.0000 0.53280  0.38190  0.57140  Biso   1.000  H
  H6       1.0000 0.47300  0.38480  0.56600  Biso   1.000  H
  O7       1.0000 0.51410  0.91690  0.97730  Biso   1.000  O
  O8       1.0000 0.50890  0.83430  0.96990  Biso   1.000  O
  C7       1.0000 0.50870  0.87330  0.99870  Biso   1.000  C
  C8       1.0000 0.50340  0.86720  0.05420  Biso   1.000  C
  H7       1.0000 0.53280  0.88190  0.07140  Biso   1.000  H
  H8       1.0000 0.47300  0.88480  0.06600  Biso   1.000  H
  O9       1.0000 0.23590  0.33310  0.47730  Biso   1.000  O
  O10      1.0000 0.24110  0.41570  0.46990  Biso   1.000  O
  C9       1.0000 0.24130  0.37670  0.49870  Biso   1.000  C
  C10      1.0000 0.24660  0.38280  0.55420  Biso   1.000  C
  H9       1.0000 0.21720  0.36810  0.57140  Biso   1.000  H
  H10      1.0000 0.27700  0.36520  0.56600  Biso   1.000  H
  O11      1.0000 0.23590  0.83310  0.97730  Biso   1.000  O
  O12      1.0000 0.24110  0.91570  0.96990  Biso   1.000  O
  C11      1.0000 0.24130  0.87670  0.99870  Biso   1.000  C
  C12      1.0000 0.24660  0.88280  0.05420  Biso   1.000  C
  H11      1.0000 0.21720  0.86810  0.07140  Biso   1.000  H
  H12      1.0000 0.27700  0.86520  0.06600  Biso   1.000  H
  O13      1.0000 0.73590  0.33310  0.97730  Biso   1.000  O
  O14      1.0000 0.74110  0.41570  0.96990  Biso   1.000  O
  C13      1.0000 0.74130  0.37670  0.99870  Biso   1.000  C
  C14      1.0000 0.74660  0.38280  0.05420  Biso   1.000  C
  H13      1.0000 0.71720  0.36810  0.07140  Biso   1.000  H
  H14      1.0000 0.77700  0.36520  0.06600  Biso   1.000  H
  O15      1.0000 0.73590  0.83310  0.47730  Biso   1.000  O
  O16      1.0000 0.74110  0.91570  0.46990  Biso   1.000  O
  C15      1.0000 0.74130  0.87670  0.49870  Biso   1.000  C
  C16      1.0000 0.74660  0.88280  0.55420  Biso   1.000  C
  H15      1.0000 0.71720  0.86810  0.57140  Biso   1.000  H
  H16      1.0000 0.77700  0.86520  0.56600  Biso   1.000  H
  O17      1.0000 0.73590  0.91690  0.27270  Biso   1.000  O
  O18      1.0000 0.74110  0.83430  0.28010  Biso   1.000  O
  C17      1.0000 0.74130  0.87330  0.25130  Biso   1.000  C
  C18      1.0000 0.74660  0.86720  0.19580  Biso   1.000  C
  H17      1.0000 0.71720  0.88190  0.17860  Biso   1.000  H
  H18      1.0000 0.77700  0.88480  0.18400  Biso   1.000  H
  O19      1.0000 0.73590  0.41690  0.77270  Biso   1.000  O
  O20      1.0000 0.74110  0.33430  0.78010  Biso   1.000  O
  C19      1.0000 0.74130  0.37330  0.75130  Biso   1.000  C
  C20      1.0000 0.74660  0.36720  0.69580  Biso   1.000  C
  H19      1.0000 0.71720  0.38190  0.67860  Biso   1.000  H
  H20      1.0000 0.77700  0.38480  0.68400  Biso   1.000  H
  O21      1.0000 0.23590  0.91690  0.77270  Biso   1.000  O
  O22      1.0000 0.24110  0.83430  0.78010  Biso   1.000  O
  C21      1.0000 0.24130  0.87330  0.75130  Biso   1.000  C
  C22      1.0000 0.24660  0.86720  0.69580  Biso   1.000  C
  H21      1.0000 0.21720  0.88190  0.67860  Biso   1.000  H
  H22      1.0000 0.27700  0.88480  0.68400  Biso   1.000  H
  O23      1.0000 0.23590  0.41690  0.27270  Biso   1.000  O
  O24      1.0000 0.24110  0.33430  0.28010  Biso   1.000  O
  C23      1.0000 0.24130  0.37330  0.25130  Biso   1.000  C
  C24      1.0000 0.24660  0.36720  0.19580  Biso   1.000  C
  H23      1.0000 0.21720  0.38190  0.17860  Biso   1.000  H
  H24      1.0000 0.27700  0.38480  0.18400  Biso   1.000  H
  O25      1.0000 0.51410  0.83310  0.77270  Biso   1.000  O
  O26      1.0000 0.50890  0.91570  0.78010  Biso   1.000  O
  C25      1.0000 0.50870  0.87670  0.75130  Biso   1.000  C
  C26      1.0000 0.50340  0.88280  0.69580  Biso   1.000  C
  H25      1.0000 0.53280  0.86810  0.67860  Biso   1.000  H
  H26      1.0000 0.47300  0.86520  0.68400  Biso   1.000  H
  O27      1.0000 0.51410  0.33310  0.27270  Biso   1.000  O
  O28      1.0000 0.50890  0.41570  0.28010  Biso   1.000  O
  C27      1.0000 0.50870  0.37670  0.25130  Biso   1.000  C
  C28      1.0000 0.50340  0.38280  0.19580  Biso   1.000  C
  H27      1.0000 0.53280  0.36810  0.17860  Biso   1.000  H
  H28      1.0000 0.47300  0.36520  0.18400  Biso   1.000  H
  O29      1.0000 0.01410  0.83310  0.27270  Biso   1.000  O
  O30      1.0000 0.00890  0.91570  0.28010  Biso   1.000  O
  C29      1.0000 0.00870  0.87670  0.25130  Biso   1.000  C
  C30      1.0000 0.00340  0.88280  0.19580  Biso   1.000  C
  H29      1.0000 0.03280  0.86810  0.17860  Biso   1.000  H
  H30      1.0000 0.97300  0.86520  0.18400  Biso   1.000  H
  O31      1.0000 0.01410  0.33310  0.77270  Biso   1.000  O
  O32      1.0000 0.00890  0.41570  0.78010  Biso   1.000  O
  C31      1.0000 0.00870  0.37670  0.75130  Biso   1.000  C
  C32      1.0000 0.00340  0.38280  0.69580  Biso   1.000  C
  H31      1.0000 0.03280  0.36810  0.67860  Biso   1.000  H
  H32      1.0000 0.97300  0.36520  0.68400  Biso   1.000  H
  O33      1.0000 0.97730  0.01410  0.41690  Biso   1.000  O
  O34      1.0000 0.96990  0.00890  0.33430  Biso   1.000  O
  C33      1.0000 0.99870  0.00870  0.37330  Biso   1.000  C
  C34      1.0000 0.05420  0.00340  0.36720  Biso   1.000  C
  H33      1.0000 0.07140  0.03280  0.38190  Biso   1.000  H
  H34      1.0000 0.06600  0.97300  0.38480  Biso   1.000  H
  O35      1.0000 0.97730  0.51410  0.91690  Biso   1.000  O
  O36      1.0000 0.96990  0.50890  0.83430  Biso   1.000  O
  C35      1.0000 0.99870  0.50870  0.87330  Biso   1.000  C
  C36      1.0000 0.05420  0.50340  0.86720  Biso   1.000  C
  H35      1.0000 0.07140  0.53280  0.88190  Biso   1.000  H
  H36      1.0000 0.06600  0.47300  0.88480  Biso   1.000  H
  O37      1.0000 0.47730  0.01410  0.91690  Biso   1.000  O
  O38      1.0000 0.46990  0.00890  0.83430  Biso   1.000  O
  C37      1.0000 0.49870  0.00870  0.87330  Biso   1.000  C
  C38      1.0000 0.55420  0.00340  0.86720  Biso   1.000  C
  H37      1.0000 0.57140  0.03280  0.88190  Biso   1.000  H
  H38      1.0000 0.56600  0.97300  0.88480  Biso   1.000  H
  O39      1.0000 0.47730  0.51410  0.41690  Biso   1.000  O
  O40      1.0000 0.46990  0.50890  0.33430  Biso   1.000  O
  C39      1.0000 0.49870  0.50870  0.37330  Biso   1.000  C
  C40      1.0000 0.55420  0.50340  0.36720  Biso   1.000  C
  H39      1.0000 0.57140  0.53280  0.38190  Biso   1.000  H
  H40      1.0000 0.56600  0.47300  0.38480  Biso   1.000  H
  O41      1.0000 0.47730  0.23590  0.33310  Biso   1.000  O
  O42      1.0000 0.46990  0.24110  0.41570  Biso   1.000  O
  C41      1.0000 0.49870  0.24130  0.37670  Biso   1.000  C
  C42      1.0000 0.55420  0.24660  0.38280  Biso   1.000  C
  H41      1.0000 0.57140  0.21720  0.36810  Biso   1.000  H
  H42      1.0000 0.56600  0.27700  0.36520  Biso   1.000  H
  O43      1.0000 0.47730  0.73590  0.83310  Biso   1.000  O
  O44      1.0000 0.46990  0.74110  0.91570  Biso   1.000  O
  C43      1.0000 0.49870  0.74130  0.87670  Biso   1.000  C
  C44      1.0000 0.55420  0.74660  0.88280  Biso   1.000  C
  H43      1.0000 0.57140  0.71720  0.86810  Biso   1.000  H
  H44      1.0000 0.56600  0.77700  0.86520  Biso   1.000  H
  O45      1.0000 0.97730  0.23590  0.83310  Biso   1.000  O
  O46      1.0000 0.96990  0.24110  0.91570  Biso   1.000  O
  C45      1.0000 0.99870  0.24130  0.87670  Biso   1.000  C
  C46      1.0000 0.05420  0.24660  0.88280  Biso   1.000  C
  H45      1.0000 0.07140  0.21720  0.86810  Biso   1.000  H
  H46      1.0000 0.06600  0.27700  0.86520  Biso   1.000  H
  O47      1.0000 0.97730  0.73590  0.33310  Biso   1.000  O
  O48      1.0000 0.96990  0.74110  0.41570  Biso   1.000  O
  C47      1.0000 0.99870  0.74130  0.37670  Biso   1.000  C
  C48      1.0000 0.05420  0.74660  0.38280  Biso   1.000  C
  H47      1.0000 0.07140  0.71720  0.36810  Biso   1.000  H
  H48      1.0000 0.06600  0.77700  0.36520  Biso   1.000  H
  O49      1.0000 0.27270  0.73590  0.91690  Biso   1.000  O
  O50      1.0000 0.28010  0.74110  0.83430  Biso   1.000  O
  C49      1.0000 0.25130  0.74130  0.87330  Biso   1.000  C
  C50      1.0000 0.19580  0.74660  0.86720  Biso   1.000  C
  H49      1.0000 0.17860  0.71720  0.88190  Biso   1.000  H
  H50      1.0000 0.18400  0.77700  0.88480  Biso   1.000  H
  O51      1.0000 0.27270  0.23590  0.41690  Biso   1.000  O
  O52      1.0000 0.28010  0.24110  0.33430  Biso   1.000  O
  C51      1.0000 0.25130  0.24130  0.37330  Biso   1.000  C
  C52      1.0000 0.19580  0.24660  0.36720  Biso   1.000  C
  H51      1.0000 0.17860  0.21720  0.38190  Biso   1.000  H
  H52      1.0000 0.18400  0.27700  0.38480  Biso   1.000  H
  O53      1.0000 0.77270  0.73590  0.41690  Biso   1.000  O
  O54      1.0000 0.78010  0.74110  0.33430  Biso   1.000  O
  C53      1.0000 0.75130  0.74130  0.37330  Biso   1.000  C
  C54      1.0000 0.69580  0.74660  0.36720  Biso   1.000  C
  H53      1.0000 0.67860  0.71720  0.38190  Biso   1.000  H
  H54      1.0000 0.68400  0.77700  0.38480  Biso   1.000  H
  O55      1.0000 0.77270  0.23590  0.91690  Biso   1.000  O
  O56      1.0000 0.78010  0.24110  0.83430  Biso   1.000  O
  C55      1.0000 0.75130  0.24130  0.87330  Biso   1.000  C
  C56      1.0000 0.69580  0.24660  0.86720  Biso   1.000  C
  H55      1.0000 0.67860  0.21720  0.88190  Biso   1.000  H
  H56      1.0000 0.68400  0.27700  0.88480  Biso   1.000  H
  O57      1.0000 0.77270  0.51410  0.83310  Biso   1.000  O
  O58      1.0000 0.78010  0.50890  0.91570  Biso   1.000  O
  C57      1.0000 0.75130  0.50870  0.87670  Biso   1.000  C
  C58      1.0000 0.69580  0.50340  0.88280  Biso   1.000  C
  H57      1.0000 0.67860  0.53280  0.86810  Biso   1.000  H
  H58      1.0000 0.68400  0.47300  0.86520  Biso   1.000  H
  O59      1.0000 0.77270  0.01410  0.33310  Biso   1.000  O
  O60      1.0000 0.78010  0.00890  0.41570  Biso   1.000  O
  C59      1.0000 0.75130  0.00870  0.37670  Biso   1.000  C
  C60      1.0000 0.69580  0.00340  0.38280  Biso   1.000  C
  H59      1.0000 0.67860  0.03280  0.36810  Biso   1.000  H
  H60      1.0000 0.68400  0.97300  0.36520  Biso   1.000  H
  O61      1.0000 0.27270  0.51410  0.33310  Biso   1.000  O
  O62      1.0000 0.28010  0.50890  0.41570  Biso   1.000  O
  C61      1.0000 0.25130  0.50870  0.37670  Biso   1.000  C
  C62      1.0000 0.19580  0.50340  0.38280  Biso   1.000  C
  H61      1.0000 0.17860  0.53280  0.36810  Biso   1.000  H
  H62      1.0000 0.18400  0.47300  0.36520  Biso   1.000  H
  O63      1.0000 0.27270  0.01410  0.83310  Biso   1.000  O
  O64      1.0000 0.28010  0.00890  0.91570  Biso   1.000  O
  C63      1.0000 0.25130  0.00870  0.87670  Biso   1.000  C
  C64      1.0000 0.19580  0.00340  0.88280  Biso   1.000  C
  H63      1.0000 0.17860  0.03280  0.86810  Biso   1.000  H
  H64      1.0000 0.18400  0.97300  0.86520  Biso   1.000  H
  O65      1.0000 0.41690  0.97730  0.01410  Biso   1.000  O
  O66      1.0000 0.33430  0.96990  0.00890  Biso   1.000  O
  C65      1.0000 0.37330  0.99870  0.00870  Biso   1.000  C
  C66      1.0000 0.36720  0.05420  0.00340  Biso   1.000  C
  H65      1.0000 0.38190  0.07140  0.03280  Biso   1.000  H
  H66      1.0000 0.38480  0.06600  0.97300  Biso   1.000  H
  O67      1.0000 0.41690  0.47730  0.51410  Biso   1.000  O
  O68      1.0000 0.33430  0.46990  0.50890  Biso   1.000  O
  C67      1.0000 0.37330  0.49870  0.50870  Biso   1.000  C
  C68      1.0000 0.36720  0.55420  0.50340  Biso   1.000  C
  H67      1.0000 0.38190  0.57140  0.53280  Biso   1.000  H
  H68      1.0000 0.38480  0.56600  0.47300  Biso   1.000  H
  O69      1.0000 0.91690  0.97730  0.51410  Biso   1.000  O
  O70      1.0000 0.83430  0.96990  0.50890  Biso   1.000  O
  C69      1.0000 0.87330  0.99870  0.50870  Biso   1.000  C
  C70      1.0000 0.86720  0.05420  0.50340  Biso   1.000  C
  H69      1.0000 0.88190  0.07140  0.53280  Biso   1.000  H
  H70      1.0000 0.88480  0.06600  0.47300  Biso   1.000  H
  O71      1.0000 0.91690  0.47730  0.01410  Biso   1.000  O
  O72      1.0000 0.83430  0.46990  0.00890  Biso   1.000  O
  C71      1.0000 0.87330  0.49870  0.00870  Biso   1.000  C
  C72      1.0000 0.86720  0.55420  0.00340  Biso   1.000  C
  H71      1.0000 0.88190  0.57140  0.03280  Biso   1.000  H
  H72      1.0000 0.88480  0.56600  0.97300  Biso   1.000  H
  O73      1.0000 0.33310  0.47730  0.23590  Biso   1.000  O
  O74      1.0000 0.41570  0.46990  0.24110  Biso   1.000  O
  C73      1.0000 0.37670  0.49870  0.24130  Biso   1.000  C
  C74      1.0000 0.38280  0.55420  0.24660  Biso   1.000  C
  H73      1.0000 0.36810  0.57140  0.21720  Biso   1.000  H
  H74      1.0000 0.36520  0.56600  0.27700  Biso   1.000  H
  O75      1.0000 0.33310  0.97730  0.73590  Biso   1.000  O
  O76      1.0000 0.41570  0.96990  0.74110  Biso   1.000  O
  C75      1.0000 0.37670  0.99870  0.74130  Biso   1.000  C
  C76      1.0000 0.38280  0.05420  0.74660  Biso   1.000  C
  H75      1.0000 0.36810  0.07140  0.71720  Biso   1.000  H
  H76      1.0000 0.36520  0.06600  0.77700  Biso   1.000  H
  O77      1.0000 0.83310  0.47730  0.73590  Biso   1.000  O
  O78      1.0000 0.91570  0.46990  0.74110  Biso   1.000  O
  C77      1.0000 0.87670  0.49870  0.74130  Biso   1.000  C
  C78      1.0000 0.88280  0.55420  0.74660  Biso   1.000  C
  H77      1.0000 0.86810  0.57140  0.71720  Biso   1.000  H
  H78      1.0000 0.86520  0.56600  0.77700  Biso   1.000  H
  O79      1.0000 0.83310  0.97730  0.23590  Biso   1.000  O
  O80      1.0000 0.91570  0.96990  0.24110  Biso   1.000  O
  C79      1.0000 0.87670  0.99870  0.24130  Biso   1.000  C
  C80      1.0000 0.88280  0.05420  0.24660  Biso   1.000  C
  H79      1.0000 0.86810  0.07140  0.21720  Biso   1.000  H
  H80      1.0000 0.86520  0.06600  0.27700  Biso   1.000  H
  O81      1.0000 0.91690  0.27270  0.73590  Biso   1.000  O
  O82      1.0000 0.83430  0.28010  0.74110  Biso   1.000  O
  C81      1.0000 0.87330  0.25130  0.74130  Biso   1.000  C
  C82      1.0000 0.86720  0.19580  0.74660  Biso   1.000  C
  H81      1.0000 0.88190  0.17860  0.71720  Biso   1.000  H
  H82      1.0000 0.88480  0.18400  0.77700  Biso   1.000  H
  O83      1.0000 0.91690  0.77270  0.23590  Biso   1.000  O
  O84      1.0000 0.83430  0.78010  0.24110  Biso   1.000  O
  C83      1.0000 0.87330  0.75130  0.24130  Biso   1.000  C
  C84      1.0000 0.86720  0.69580  0.24660  Biso   1.000  C
  H83      1.0000 0.88190  0.67860  0.21720  Biso   1.000  H
  H84      1.0000 0.88480  0.68400  0.27700  Biso   1.000  H
  O85      1.0000 0.41690  0.27270  0.23590  Biso   1.000  O
  O86      1.0000 0.33430  0.28010  0.24110  Biso   1.000  O
  C85      1.0000 0.37330  0.25130  0.24130  Biso   1.000  C
  C86      1.0000 0.36720  0.19580  0.24660  Biso   1.000  C
  H85      1.0000 0.38190  0.17860  0.21720  Biso   1.000  H
  H86      1.0000 0.38480  0.18400  0.27700  Biso   1.000  H
  O87      1.0000 0.41690  0.77270  0.73590  Biso   1.000  O
  O88      1.0000 0.33430  0.78010  0.74110  Biso   1.000  O
  C87      1.0000 0.37330  0.75130  0.74130  Biso   1.000  C
  C88      1.0000 0.36720  0.69580  0.74660  Biso   1.000  C
  H87      1.0000 0.38190  0.67860  0.71720  Biso   1.000  H
  H88      1.0000 0.38480  0.68400  0.77700  Biso   1.000  H
  O89      1.0000 0.83310  0.77270  0.51410  Biso   1.000  O
  O90      1.0000 0.91570  0.78010  0.50890  Biso   1.000  O
  C89      1.0000 0.87670  0.75130  0.50870  Biso   1.000  C
  C90      1.0000 0.88280  0.69580  0.50340  Biso   1.000  C
  H89      1.0000 0.86810  0.67860  0.53280  Biso   1.000  H
  H90      1.0000 0.86520  0.68400  0.47300  Biso   1.000  H
  O91      1.0000 0.83310  0.27270  0.01410  Biso   1.000  O
  O92      1.0000 0.91570  0.28010  0.00890  Biso   1.000  O
  C91      1.0000 0.87670  0.25130  0.00870  Biso   1.000  C
  C92      1.0000 0.88280  0.19580  0.00340  Biso   1.000  C
  H91      1.0000 0.86810  0.17860  0.03280  Biso   1.000  H
  H92      1.0000 0.86520  0.18400  0.97300  Biso   1.000  H
  O93      1.0000 0.33310  0.77270  0.01410  Biso   1.000  O
  O94      1.0000 0.41570  0.78010  0.00890  Biso   1.000  O
  C93      1.0000 0.37670  0.75130  0.00870  Biso   1.000  C
  C94      1.0000 0.38280  0.69580  0.00340  Biso   1.000  C
  H93      1.0000 0.36810  0.67860  0.03280  Biso   1.000  H
  H94      1.0000 0.36520  0.68400  0.97300  Biso   1.000  H
  O95      1.0000 0.33310  0.27270  0.51410  Biso   1.000  O
  O96      1.0000 0.41570  0.28010  0.50890  Biso   1.000  O
  C95      1.0000 0.37670  0.25130  0.50870  Biso   1.000  C
  C96      1.0000 0.38280  0.19580  0.50340  Biso   1.000  C
  H95      1.0000 0.36810  0.17860  0.53280  Biso   1.000  H
  H96      1.0000 0.36520  0.18400  0.47300  Biso   1.000  H
  O97      1.0000 0.16690  0.26410  0.02270  Biso   1.000  O
  O98      1.0000 0.08430  0.25890  0.03010  Biso   1.000  O
  C97      1.0000 0.12330  0.25870  0.00130  Biso   1.000  C
  C98      1.0000 0.11720  0.25340  0.94580  Biso   1.000  C
  H97      1.0000 0.13190  0.28280  0.92860  Biso   1.000  H
  H98      1.0000 0.13480  0.22300  0.93400  Biso   1.000  H
  O99      1.0000 0.16690  0.76410  0.52270  Biso   1.000  O
  O100     1.0000 0.08430  0.75890  0.53010  Biso   1.000  O
  C99      1.0000 0.12330  0.75870  0.50130  Biso   1.000  C
  C100     1.0000 0.11720  0.75340  0.44580  Biso   1.000  C
  H99      1.0000 0.13190  0.78280  0.42860  Biso   1.000  H
  H100     1.0000 0.13480  0.72300  0.43400  Biso   1.000  H
  O101     1.0000 0.66690  0.26410  0.52270  Biso   1.000  O
  O102     1.0000 0.58430  0.25890  0.53010  Biso   1.000  O
  C101     1.0000 0.62330  0.25870  0.50130  Biso   1.000  C
  C102     1.0000 0.61720  0.25340  0.44580  Biso   1.000  C
  H101     1.0000 0.63190  0.28280  0.42860  Biso   1.000  H
  H102     1.0000 0.63480  0.22300  0.43400  Biso   1.000  H
  O103     1.0000 0.66690  0.76410  0.02270  Biso   1.000  O
  O104     1.0000 0.58430  0.75890  0.03010  Biso   1.000  O
  C103     1.0000 0.62330  0.75870  0.00130  Biso   1.000  C
  C104     1.0000 0.61720  0.75340  0.94580  Biso   1.000  C
  H103     1.0000 0.63190  0.78280  0.92860  Biso   1.000  H
  H104     1.0000 0.63480  0.72300  0.93400  Biso   1.000  H
  O105     1.0000 0.08310  0.48590  0.52270  Biso   1.000  O
  O106     1.0000 0.16570  0.49110  0.53010  Biso   1.000  O
  C105     1.0000 0.12670  0.49130  0.50130  Biso   1.000  C
  C106     1.0000 0.13280  0.49660  0.44580  Biso   1.000  C
  H105     1.0000 0.11810  0.46720  0.42860  Biso   1.000  H
  H106     1.0000 0.11520  0.52700  0.43400  Biso   1.000  H
  O107     1.0000 0.08310  0.98590  0.02270  Biso   1.000  O
  O108     1.0000 0.16570  0.99110  0.03010  Biso   1.000  O
  C107     1.0000 0.12670  0.99130  0.00130  Biso   1.000  C
  C108     1.0000 0.13280  0.99660  0.94580  Biso   1.000  C
  H107     1.0000 0.11810  0.96720  0.92860  Biso   1.000  H
  H108     1.0000 0.11520  0.02700  0.93400  Biso   1.000  H
  O109     1.0000 0.58310  0.48590  0.02270  Biso   1.000  O
  O110     1.0000 0.66570  0.49110  0.03010  Biso   1.000  O
  C109     1.0000 0.62670  0.49130  0.00130  Biso   1.000  C
  C110     1.0000 0.63280  0.49660  0.94580  Biso   1.000  C
  H109     1.0000 0.61810  0.46720  0.92860  Biso   1.000  H
  H110     1.0000 0.61520  0.52700  0.93400  Biso   1.000  H
  O111     1.0000 0.58310  0.98590  0.52270  Biso   1.000  O
  O112     1.0000 0.66570  0.99110  0.53010  Biso   1.000  O
  C111     1.0000 0.62670  0.99130  0.50130  Biso   1.000  C
  C112     1.0000 0.63280  0.99660  0.44580  Biso   1.000  C
  H111     1.0000 0.61810  0.96720  0.42860  Biso   1.000  H
  H112     1.0000 0.61520  0.02700  0.43400  Biso   1.000  H
  O113     1.0000 0.66690  0.98590  0.72730  Biso   1.000  O
  O114     1.0000 0.58430  0.99110  0.71990  Biso   1.000  O
  C113     1.0000 0.62330  0.99130  0.74870  Biso   1.000  C
  C114     1.0000 0.61720  0.99660  0.80420  Biso   1.000  C
  H113     1.0000 0.63190  0.96720  0.82140  Biso   1.000  H
  H114     1.0000 0.63480  0.02700  0.81600  Biso   1.000  H
  O115     1.0000 0.66690  0.48590  0.22730  Biso   1.000  O
  O116     1.0000 0.58430  0.49110  0.21990  Biso   1.000  O
  C115     1.0000 0.62330  0.49130  0.24870  Biso   1.000  C
  C116     1.0000 0.61720  0.49660  0.30420  Biso   1.000  C
  H115     1.0000 0.63190  0.46720  0.32140  Biso   1.000  H
  H116     1.0000 0.63480  0.52700  0.31600  Biso   1.000  H
  O117     1.0000 0.16690  0.98590  0.22730  Biso   1.000  O
  O118     1.0000 0.08430  0.99110  0.21990  Biso   1.000  O
  C117     1.0000 0.12330  0.99130  0.24870  Biso   1.000  C
  C118     1.0000 0.11720  0.99660  0.30420  Biso   1.000  C
  H117     1.0000 0.13190  0.96720  0.32140  Biso   1.000  H
  H118     1.0000 0.13480  0.02700  0.31600  Biso   1.000  H
  O119     1.0000 0.16690  0.48590  0.72730  Biso   1.000  O
  O120     1.0000 0.08430  0.49110  0.71990  Biso   1.000  O
  C119     1.0000 0.12330  0.49130  0.74870  Biso   1.000  C
  C120     1.0000 0.11720  0.49660  0.80420  Biso   1.000  C
  H119     1.0000 0.13190  0.46720  0.82140  Biso   1.000  H
  H120     1.0000 0.13480  0.52700  0.81600  Biso   1.000  H
  O121     1.0000 0.58310  0.76410  0.22730  Biso   1.000  O
  O122     1.0000 0.66570  0.75890  0.21990  Biso   1.000  O
  C121     1.0000 0.62670  0.75870  0.24870  Biso   1.000  C
  C122     1.0000 0.63280  0.75340  0.30420  Biso   1.000  C
  H121     1.0000 0.61810  0.78280  0.32140  Biso   1.000  H
  H122     1.0000 0.61520  0.72300  0.31600  Biso   1.000  H
  O123     1.0000 0.58310  0.26410  0.72730  Biso   1.000  O
  O124     1.0000 0.66570  0.25890  0.71990  Biso   1.000  O
  C123     1.0000 0.62670  0.25870  0.74870  Biso   1.000  C
  C124     1.0000 0.63280  0.25340  0.80420  Biso   1.000  C
  H123     1.0000 0.61810  0.28280  0.82140  Biso   1.000  H
  H124     1.0000 0.61520  0.22300  0.81600  Biso   1.000  H
  O125     1.0000 0.08310  0.76410  0.72730  Biso   1.000  O
  O126     1.0000 0.16570  0.75890  0.71990  Biso   1.000  O
  C125     1.0000 0.12670  0.75870  0.74870  Biso   1.000  C
  C126     1.0000 0.13280  0.75340  0.80420  Biso   1.000  C
  H125     1.0000 0.11810  0.78280  0.82140  Biso   1.000  H
  H126     1.0000 0.11520  0.72300  0.81600  Biso   1.000  H
  O127     1.0000 0.08310  0.26410  0.22730  Biso   1.000  O
  O128     1.0000 0.16570  0.25890  0.21990  Biso   1.000  O
  C127     1.0000 0.12670  0.25870  0.24870  Biso   1.000  C
  C128     1.0000 0.13280  0.25340  0.30420  Biso   1.000  C
  H127     1.0000 0.11810  0.28280  0.32140  Biso   1.000  H
  H128     1.0000 0.11520  0.22300  0.31600  Biso   1.000  H
  O129     1.0000 0.76410  0.22730  0.58310  Biso   1.000  O
  O130     1.0000 0.75890  0.21990  0.66570  Biso   1.000  O
  C129     1.0000 0.75870  0.24870  0.62670  Biso   1.000  C
  C130     1.0000 0.75340  0.30420  0.63280  Biso   1.000  C
  H129     1.0000 0.78280  0.32140  0.61810  Biso   1.000  H
  H130     1.0000 0.72300  0.31600  0.61520  Biso   1.000  H
  O131     1.0000 0.76410  0.72730  0.08310  Biso   1.000  O
  O132     1.0000 0.75890  0.71990  0.16570  Biso   1.000  O
  C131     1.0000 0.75870  0.74870  0.12670  Biso   1.000  C
  C132     1.0000 0.75340  0.80420  0.13280  Biso   1.000  C
  H131     1.0000 0.78280  0.82140  0.11810  Biso   1.000  H
  H132     1.0000 0.72300  0.81600  0.11520  Biso   1.000  H
  O133     1.0000 0.26410  0.22730  0.08310  Biso   1.000  O
  O134     1.0000 0.25890  0.21990  0.16570  Biso   1.000  O
  C133     1.0000 0.25870  0.24870  0.12670  Biso   1.000  C
  C134     1.0000 0.25340  0.30420  0.13280  Biso   1.000  C
  H133     1.0000 0.28280  0.32140  0.11810  Biso   1.000  H
  H134     1.0000 0.22300  0.31600  0.11520  Biso   1.000  H
  O135     1.0000 0.26410  0.72730  0.58310  Biso   1.000  O
  O136     1.0000 0.25890  0.71990  0.66570  Biso   1.000  O
  C135     1.0000 0.25870  0.74870  0.62670  Biso   1.000  C
  C136     1.0000 0.25340  0.80420  0.63280  Biso   1.000  C
  H135     1.0000 0.28280  0.82140  0.61810  Biso   1.000  H
  H136     1.0000 0.22300  0.81600  0.61520  Biso   1.000  H
  O137     1.0000 0.98590  0.72730  0.66690  Biso   1.000  O
  O138     1.0000 0.99110  0.71990  0.58430  Biso   1.000  O
  C137     1.0000 0.99130  0.74870  0.62330  Biso   1.000  C
  C138     1.0000 0.99660  0.80420  0.61720  Biso   1.000  C
  H137     1.0000 0.96720  0.82140  0.63190  Biso   1.000  H
  H138     1.0000 0.02700  0.81600  0.63480  Biso   1.000  H
  O139     1.0000 0.98590  0.22730  0.16690  Biso   1.000  O
  O140     1.0000 0.99110  0.21990  0.08430  Biso   1.000  O
  C139     1.0000 0.99130  0.24870  0.12330  Biso   1.000  C
  C140     1.0000 0.99660  0.30420  0.11720  Biso   1.000  C
  H139     1.0000 0.96720  0.32140  0.13190  Biso   1.000  H
  H140     1.0000 0.02700  0.31600  0.13480  Biso   1.000  H
  O141     1.0000 0.48590  0.72730  0.16690  Biso   1.000  O
  O142     1.0000 0.49110  0.71990  0.08430  Biso   1.000  O
  C141     1.0000 0.49130  0.74870  0.12330  Biso   1.000  C
  C142     1.0000 0.49660  0.80420  0.11720  Biso   1.000  C
  H141     1.0000 0.46720  0.82140  0.13190  Biso   1.000  H
  H142     1.0000 0.52700  0.81600  0.13480  Biso   1.000  H
  O143     1.0000 0.48590  0.22730  0.66690  Biso   1.000  O
  O144     1.0000 0.49110  0.21990  0.58430  Biso   1.000  O
  C143     1.0000 0.49130  0.24870  0.62330  Biso   1.000  C
  C144     1.0000 0.49660  0.30420  0.61720  Biso   1.000  C
  H143     1.0000 0.46720  0.32140  0.63190  Biso   1.000  H
  H144     1.0000 0.52700  0.31600  0.63480  Biso   1.000  H
  O145     1.0000 0.48590  0.52270  0.08310  Biso   1.000  O
  O146     1.0000 0.49110  0.53010  0.16570  Biso   1.000  O
  C145     1.0000 0.49130  0.50130  0.12670  Biso   1.000  C
  C146     1.0000 0.49660  0.44580  0.13280  Biso   1.000  C
  H145     1.0000 0.46720  0.42860  0.11810  Biso   1.000  H
  H146     1.0000 0.52700  0.43400  0.11520  Biso   1.000  H
  O147     1.0000 0.48590  0.02270  0.58310  Biso   1.000  O
  O148     1.0000 0.49110  0.03010  0.66570  Biso   1.000  O
  C147     1.0000 0.49130  0.00130  0.62670  Biso   1.000  C
  C148     1.0000 0.49660  0.94580  0.63280  Biso   1.000  C
  H147     1.0000 0.46720  0.92860  0.61810  Biso   1.000  H
  H148     1.0000 0.52700  0.93400  0.61520  Biso   1.000  H
  O149     1.0000 0.98590  0.52270  0.58310  Biso   1.000  O
  O150     1.0000 0.99110  0.53010  0.66570  Biso   1.000  O
  C149     1.0000 0.99130  0.50130  0.62670  Biso   1.000  C
  C150     1.0000 0.99660  0.44580  0.63280  Biso   1.000  C
  H149     1.0000 0.96720  0.42860  0.61810  Biso   1.000  H
  H150     1.0000 0.02700  0.43400  0.61520  Biso   1.000  H
  O151     1.0000 0.98590  0.02270  0.08310  Biso   1.000  O
  O152     1.0000 0.99110  0.03010  0.16570  Biso   1.000  O
  C151     1.0000 0.99130  0.00130  0.12670  Biso   1.000  C
  C152     1.0000 0.99660  0.94580  0.13280  Biso   1.000  C
  H151     1.0000 0.96720  0.92860  0.11810  Biso   1.000  H
  H152     1.0000 0.02700  0.93400  0.11520  Biso   1.000  H
  O153     1.0000 0.26410  0.02270  0.16690  Biso   1.000  O
  O154     1.0000 0.25890  0.03010  0.08430  Biso   1.000  O
  C153     1.0000 0.25870  0.00130  0.12330  Biso   1.000  C
  C154     1.0000 0.25340  0.94580  0.11720  Biso   1.000  C
  H153     1.0000 0.28280  0.92860  0.13190  Biso   1.000  H
  H154     1.0000 0.22300  0.93400  0.13480  Biso   1.000  H
  O155     1.0000 0.26410  0.52270  0.66690  Biso   1.000  O
  O156     1.0000 0.25890  0.53010  0.58430  Biso   1.000  O
  C155     1.0000 0.25870  0.50130  0.62330  Biso   1.000  C
  C156     1.0000 0.25340  0.44580  0.61720  Biso   1.000  C
  H155     1.0000 0.28280  0.42860  0.63190  Biso   1.000  H
  H156     1.0000 0.22300  0.43400  0.63480  Biso   1.000  H
  O157     1.0000 0.76410  0.02270  0.66690  Biso   1.000  O
  O158     1.0000 0.75890  0.03010  0.58430  Biso   1.000  O
  C157     1.0000 0.75870  0.00130  0.62330  Biso   1.000  C
  C158     1.0000 0.75340  0.94580  0.61720  Biso   1.000  C
  H157     1.0000 0.78280  0.92860  0.63190  Biso   1.000  H
  H158     1.0000 0.72300  0.93400  0.63480  Biso   1.000  H
  O159     1.0000 0.76410  0.52270  0.16690  Biso   1.000  O
  O160     1.0000 0.75890  0.53010  0.08430  Biso   1.000  O
  C159     1.0000 0.75870  0.50130  0.12330  Biso   1.000  C
  C160     1.0000 0.75340  0.44580  0.11720  Biso   1.000  C
  H159     1.0000 0.78280  0.42860  0.13190  Biso   1.000  H
  H160     1.0000 0.72300  0.43400  0.13480  Biso   1.000  H
  O161     1.0000 0.72730  0.66690  0.98590  Biso   1.000  O
  O162     1.0000 0.71990  0.58430  0.99110  Biso   1.000  O
  C161     1.0000 0.74870  0.62330  0.99130  Biso   1.000  C
  C162     1.0000 0.80420  0.61720  0.99660  Biso   1.000  C
  H161     1.0000 0.82140  0.63190  0.96720  Biso   1.000  H
  H162     1.0000 0.81600  0.63480  0.02700  Biso   1.000  H
  O163     1.0000 0.72730  0.16690  0.48590  Biso   1.000  O
  O164     1.0000 0.71990  0.08430  0.49110  Biso   1.000  O
  C163     1.0000 0.74870  0.12330  0.49130  Biso   1.000  C
  C164     1.0000 0.80420  0.11720  0.49660  Biso   1.000  C
  H163     1.0000 0.82140  0.13190  0.46720  Biso   1.000  H
  H164     1.0000 0.81600  0.13480  0.52700  Biso   1.000  H
  O165     1.0000 0.22730  0.66690  0.48590  Biso   1.000  O
  O166     1.0000 0.21990  0.58430  0.49110  Biso   1.000  O
  C165     1.0000 0.24870  0.62330  0.49130  Biso   1.000  C
  C166     1.0000 0.30420  0.61720  0.49660  Biso   1.000  C
  H165     1.0000 0.32140  0.63190  0.46720  Biso   1.000  H
  H166     1.0000 0.31600  0.63480  0.52700  Biso   1.000  H
  O167     1.0000 0.22730  0.16690  0.98590  Biso   1.000  O
  O168     1.0000 0.21990  0.08430  0.99110  Biso   1.000  O
  C167     1.0000 0.24870  0.12330  0.99130  Biso   1.000  C
  C168     1.0000 0.30420  0.11720  0.99660  Biso   1.000  C
  H167     1.0000 0.32140  0.13190  0.96720  Biso   1.000  H
  H168     1.0000 0.31600  0.13480  0.02700  Biso   1.000  H
  O169     1.0000 0.22730  0.58310  0.76410  Biso   1.000  O
  O170     1.0000 0.21990  0.66570  0.75890  Biso   1.000  O
  C169     1.0000 0.24870  0.62670  0.75870  Biso   1.000  C
  C170     1.0000 0.30420  0.63280  0.75340  Biso   1.000  C
  H169     1.0000 0.32140  0.61810  0.78280  Biso   1.000  H
  H170     1.0000 0.31600  0.61520  0.72300  Biso   1.000  H
  O171     1.0000 0.22730  0.08310  0.26410  Biso   1.000  O
  O172     1.0000 0.21990  0.16570  0.25890  Biso   1.000  O
  C171     1.0000 0.24870  0.12670  0.25870  Biso   1.000  C
  C172     1.0000 0.30420  0.13280  0.25340  Biso   1.000  C
  H171     1.0000 0.32140  0.11810  0.28280  Biso   1.000  H
  H172     1.0000 0.31600  0.11520  0.22300  Biso   1.000  H
  O173     1.0000 0.72730  0.58310  0.26410  Biso   1.000  O
  O174     1.0000 0.71990  0.66570  0.25890  Biso   1.000  O
  C173     1.0000 0.74870  0.62670  0.25870  Biso   1.000  C
  C174     1.0000 0.80420  0.63280  0.25340  Biso   1.000  C
  H173     1.0000 0.82140  0.61810  0.28280  Biso   1.000  H
  H174     1.0000 0.81600  0.61520  0.22300  Biso   1.000  H
  O175     1.0000 0.72730  0.08310  0.76410  Biso   1.000  O
  O176     1.0000 0.71990  0.16570  0.75890  Biso   1.000  O
  C175     1.0000 0.74870  0.12670  0.75870  Biso   1.000  C
  C176     1.0000 0.80420  0.13280  0.75340  Biso   1.000  C
  H175     1.0000 0.82140  0.11810  0.78280  Biso   1.000  H
  H176     1.0000 0.81600  0.11520  0.72300  Biso   1.000  H
  O177     1.0000 0.02270  0.16690  0.26410  Biso   1.000  O
  O178     1.0000 0.03010  0.08430  0.25890  Biso   1.000  O
  C177     1.0000 0.00130  0.12330  0.25870  Biso   1.000  C
  C178     1.0000 0.94580  0.11720  0.25340  Biso   1.000  C
  H177     1.0000 0.92860  0.13190  0.28280  Biso   1.000  H
  H178     1.0000 0.93400  0.13480  0.22300  Biso   1.000  H
  O179     1.0000 0.02270  0.66690  0.76410  Biso   1.000  O
  O180     1.0000 0.03010  0.58430  0.75890  Biso   1.000  O
  C179     1.0000 0.00130  0.62330  0.75870  Biso   1.000  C
  C180     1.0000 0.94580  0.61720  0.75340  Biso   1.000  C
  H179     1.0000 0.92860  0.63190  0.78280  Biso   1.000  H
  H180     1.0000 0.93400  0.63480  0.72300  Biso   1.000  H
  O181     1.0000 0.52270  0.16690  0.76410  Biso   1.000  O
  O182     1.0000 0.53010  0.08430  0.75890  Biso   1.000  O
  C181     1.0000 0.50130  0.12330  0.75870  Biso   1.000  C
  C182     1.0000 0.44580  0.11720  0.75340  Biso   1.000  C
  H181     1.0000 0.42860  0.13190  0.78280  Biso   1.000  H
  H182     1.0000 0.43400  0.13480  0.72300  Biso   1.000  H
  O183     1.0000 0.52270  0.66690  0.26410  Biso   1.000  O
  O184     1.0000 0.53010  0.58430  0.25890  Biso   1.000  O
  C183     1.0000 0.50130  0.62330  0.25870  Biso   1.000  C
  C184     1.0000 0.44580  0.61720  0.25340  Biso   1.000  C
  H183     1.0000 0.42860  0.63190  0.28280  Biso   1.000  H
  H184     1.0000 0.43400  0.63480  0.22300  Biso   1.000  H
  O185     1.0000 0.52270  0.08310  0.48590  Biso   1.000  O
  O186     1.0000 0.53010  0.16570  0.49110  Biso   1.000  O
  C185     1.0000 0.50130  0.12670  0.49130  Biso   1.000  C
  C186     1.0000 0.44580  0.13280  0.49660  Biso   1.000  C
  H185     1.0000 0.42860  0.11810  0.46720  Biso   1.000  H
  H186     1.0000 0.43400  0.11520  0.52700  Biso   1.000  H
  O187     1.0000 0.52270  0.58310  0.98590  Biso   1.000  O
  O188     1.0000 0.53010  0.66570  0.99110  Biso   1.000  O
  C187     1.0000 0.50130  0.62670  0.99130  Biso   1.000  C
  C188     1.0000 0.44580  0.63280  0.99660  Biso   1.000  C
  H187     1.0000 0.42860  0.61810  0.96720  Biso   1.000  H
  H188     1.0000 0.43400  0.61520  0.02700  Biso   1.000  H
  O189     1.0000 0.02270  0.08310  0.98590  Biso   1.000  O
  O190     1.0000 0.03010  0.16570  0.99110  Biso   1.000  O
  C189     1.0000 0.00130  0.12670  0.99130  Biso   1.000  C
  C190     1.0000 0.94580  0.13280  0.99660  Biso   1.000  C
  H189     1.0000 0.92860  0.11810  0.96720  Biso   1.000  H
  H190     1.0000 0.93400  0.11520  0.02700  Biso   1.000  H
  O191     1.0000 0.02270  0.58310  0.48590  Biso   1.000  O
  O192     1.0000 0.03010  0.66570  0.49110  Biso   1.000  O
  C191     1.0000 0.00130  0.62670  0.49130  Biso   1.000  C
  C192     1.0000 0.94580  0.63280  0.49660  Biso   1.000  C
  H191     1.0000 0.92860  0.61810  0.46720  Biso   1.000  H
  H192     1.0000 0.93400  0.61520  0.52700  Biso   1.000  H
  O193     1.0000 0.98590  0.58310  0.02270  Biso   1.000  O
  O194     1.0000 0.99110  0.66570  0.03010  Biso   1.000  O
  C193     1.0000 0.99130  0.62670  0.00130  Biso   1.000  C
  C194     1.0000 0.99660  0.63280  0.94580  Biso   1.000  C
  H193     1.0000 0.96720  0.61810  0.92860  Biso   1.000  H
  H194     1.0000 0.02700  0.61520  0.93400  Biso   1.000  H
  O195     1.0000 0.98590  0.08310  0.52270  Biso   1.000  O
  O196     1.0000 0.99110  0.16570  0.53010  Biso   1.000  O
  C195     1.0000 0.99130  0.12670  0.50130  Biso   1.000  C
  C196     1.0000 0.99660  0.13280  0.44580  Biso   1.000  C
  H195     1.0000 0.96720  0.11810  0.42860  Biso   1.000  H
  H196     1.0000 0.02700  0.11520  0.43400  Biso   1.000  H
  O197     1.0000 0.48590  0.58310  0.52270  Biso   1.000  O
  O198     1.0000 0.49110  0.66570  0.53010  Biso   1.000  O
  C197     1.0000 0.49130  0.62670  0.50130  Biso   1.000  C
  C198     1.0000 0.49660  0.63280  0.44580  Biso   1.000  C
  H197     1.0000 0.46720  0.61810  0.42860  Biso   1.000  H
  H198     1.0000 0.52700  0.61520  0.43400  Biso   1.000  H
  O199     1.0000 0.48590  0.08310  0.02270  Biso   1.000  O
  O200     1.0000 0.49110  0.16570  0.03010  Biso   1.000  O
  C199     1.0000 0.49130  0.12670  0.00130  Biso   1.000  C
  C200     1.0000 0.49660  0.13280  0.94580  Biso   1.000  C
  H199     1.0000 0.46720  0.11810  0.92860  Biso   1.000  H
  H200     1.0000 0.52700  0.11520  0.93400  Biso   1.000  H
  O201     1.0000 0.76410  0.66690  0.52270  Biso   1.000  O
  O202     1.0000 0.75890  0.58430  0.53010  Biso   1.000  O
  C201     1.0000 0.75870  0.62330  0.50130  Biso   1.000  C
  C202     1.0000 0.75340  0.61720  0.44580  Biso   1.000  C
  H201     1.0000 0.78280  0.63190  0.42860  Biso   1.000  H
  H202     1.0000 0.72300  0.63480  0.43400  Biso   1.000  H
  O203     1.0000 0.76410  0.16690  0.02270  Biso   1.000  O
  O204     1.0000 0.75890  0.08430  0.03010  Biso   1.000  O
  C203     1.0000 0.75870  0.12330  0.00130  Biso   1.000  C
  C204     1.0000 0.75340  0.11720  0.94580  Biso   1.000  C
  H203     1.0000 0.78280  0.13190  0.92860  Biso   1.000  H
  H204     1.0000 0.72300  0.13480  0.93400  Biso   1.000  H
  O205     1.0000 0.26410  0.66690  0.02270  Biso   1.000  O
  O206     1.0000 0.25890  0.58430  0.03010  Biso   1.000  O
  C205     1.0000 0.25870  0.62330  0.00130  Biso   1.000  C
  C206     1.0000 0.25340  0.61720  0.94580  Biso   1.000  C
  H205     1.0000 0.28280  0.63190  0.92860  Biso   1.000  H
  H206     1.0000 0.22300  0.63480  0.93400  Biso   1.000  H
  O207     1.0000 0.26410  0.16690  0.52270  Biso   1.000  O
  O208     1.0000 0.25890  0.08430  0.53010  Biso   1.000  O
  C207     1.0000 0.25870  0.12330  0.50130  Biso   1.000  C
  C208     1.0000 0.25340  0.11720  0.44580  Biso   1.000  C
  H207     1.0000 0.28280  0.13190  0.42860  Biso   1.000  H
  H208     1.0000 0.22300  0.13480  0.43400  Biso   1.000  H
  O209     1.0000 0.26410  0.08310  0.72730  Biso   1.000  O
  O210     1.0000 0.25890  0.16570  0.71990  Biso   1.000  O
  C209     1.0000 0.25870  0.12670  0.74870  Biso   1.000  C
  C210     1.0000 0.25340  0.13280  0.80420  Biso   1.000  C
  H209     1.0000 0.28280  0.11810  0.82140  Biso   1.000  H
  H210     1.0000 0.22300  0.11520  0.81600  Biso   1.000  H
  O211     1.0000 0.26410  0.58310  0.22730  Biso   1.000  O
  O212     1.0000 0.25890  0.66570  0.21990  Biso   1.000  O
  C211     1.0000 0.25870  0.62670  0.24870  Biso   1.000  C
  C212     1.0000 0.25340  0.63280  0.30420  Biso   1.000  C
  H211     1.0000 0.28280  0.61810  0.32140  Biso   1.000  H
  H212     1.0000 0.22300  0.61520  0.31600  Biso   1.000  H
  O213     1.0000 0.76410  0.08310  0.22730  Biso   1.000  O
  O214     1.0000 0.75890  0.16570  0.21990  Biso   1.000  O
  C213     1.0000 0.75870  0.12670  0.24870  Biso   1.000  C
  C214     1.0000 0.75340  0.13280  0.30420  Biso   1.000  C
  H213     1.0000 0.78280  0.11810  0.32140  Biso   1.000  H
  H214     1.0000 0.72300  0.11520  0.31600  Biso   1.000  H
  O215     1.0000 0.76410  0.58310  0.72730  Biso   1.000  O
  O216     1.0000 0.75890  0.66570  0.71990  Biso   1.000  O
  C215     1.0000 0.75870  0.62670  0.74870  Biso   1.000  C
  C216     1.0000 0.75340  0.63280  0.80420  Biso   1.000  C
  H215     1.0000 0.78280  0.61810  0.82140  Biso   1.000  H
  H216     1.0000 0.72300  0.61520  0.81600  Biso   1.000  H
  O217     1.0000 0.48590  0.16690  0.22730  Biso   1.000  O
  O218     1.0000 0.49110  0.08430  0.21990  Biso   1.000  O
  C217     1.0000 0.49130  0.12330  0.24870  Biso   1.000  C
  C218     1.0000 0.49660  0.11720  0.30420  Biso   1.000  C
  H217     1.0000 0.46720  0.13190  0.32140  Biso   1.000  H
  H218     1.0000 0.52700  0.13480  0.31600  Biso   1.000  H
  O219     1.0000 0.48590  0.66690  0.72730  Biso   1.000  O
  O220     1.0000 0.49110  0.58430  0.71990  Biso   1.000  O
  C219     1.0000 0.49130  0.62330  0.74870  Biso   1.000  C
  C220     1.0000 0.49660  0.61720  0.80420  Biso   1.000  C
  H219     1.0000 0.46720  0.63190  0.82140  Biso   1.000  H
  H220     1.0000 0.52700  0.63480  0.81600  Biso   1.000  H
  O221     1.0000 0.98590  0.16690  0.72730  Biso   1.000  O
  O222     1.0000 0.99110  0.08430  0.71990  Biso   1.000  O
  C221     1.0000 0.99130  0.12330  0.74870  Biso   1.000  C
  C222     1.0000 0.99660  0.11720  0.80420  Biso   1.000  C
  H221     1.0000 0.96720  0.13190  0.82140  Biso   1.000  H
  H222     1.0000 0.02700  0.13480  0.81600  Biso   1.000  H
  O223     1.0000 0.98590  0.66690  0.22730  Biso   1.000  O
  O224     1.0000 0.99110  0.58430  0.21990  Biso   1.000  O
  C223     1.0000 0.99130  0.62330  0.24870  Biso   1.000  C
  C224     1.0000 0.99660  0.61720  0.30420  Biso   1.000  C
  H223     1.0000 0.96720  0.63190  0.32140  Biso   1.000  H
  H224     1.0000 0.02700  0.63480  0.31600  Biso   1.000  H
  O225     1.0000 0.02270  0.98590  0.58310  Biso   1.000  O
  O226     1.0000 0.03010  0.99110  0.66570  Biso   1.000  O
  C225     1.0000 0.00130  0.99130  0.62670  Biso   1.000  C
  C226     1.0000 0.94580  0.99660  0.63280  Biso   1.000  C
  H225     1.0000 0.92860  0.96720  0.61810  Biso   1.000  H
  H226     1.0000 0.93400  0.02700  0.61520  Biso   1.000  H
  O227     1.0000 0.02270  0.48590  0.08310  Biso   1.000  O
  O228     1.0000 0.03010  0.49110  0.16570  Biso   1.000  O
  C227     1.0000 0.00130  0.49130  0.12670  Biso   1.000  C
  C228     1.0000 0.94580  0.49660  0.13280  Biso   1.000  C
  H227     1.0000 0.92860  0.46720  0.11810  Biso   1.000  H
  H228     1.0000 0.93400  0.52700  0.11520  Biso   1.000  H
  O229     1.0000 0.52270  0.98590  0.08310  Biso   1.000  O
  O230     1.0000 0.53010  0.99110  0.16570  Biso   1.000  O
  C229     1.0000 0.50130  0.99130  0.12670  Biso   1.000  C
  C230     1.0000 0.44580  0.99660  0.13280  Biso   1.000  C
  H229     1.0000 0.42860  0.96720  0.11810  Biso   1.000  H
  H230     1.0000 0.43400  0.02700  0.11520  Biso   1.000  H
  O231     1.0000 0.52270  0.48590  0.58310  Biso   1.000  O
  O232     1.0000 0.53010  0.49110  0.66570  Biso   1.000  O
  C231     1.0000 0.50130  0.49130  0.62670  Biso   1.000  C
  C232     1.0000 0.44580  0.49660  0.63280  Biso   1.000  C
  H231     1.0000 0.42860  0.46720  0.61810  Biso   1.000  H
  H232     1.0000 0.43400  0.52700  0.61520  Biso   1.000  H
  O233     1.0000 0.52270  0.76410  0.66690  Biso   1.000  O
  O234     1.0000 0.53010  0.75890  0.58430  Biso   1.000  O
  C233     1.0000 0.50130  0.75870  0.62330  Biso   1.000  C
  C234     1.0000 0.44580  0.75340  0.61720  Biso   1.000  C
  H233     1.0000 0.42860  0.78280  0.63190  Biso   1.000  H
  H234     1.0000 0.43400  0.72300  0.63480  Biso   1.000  H
  O235     1.0000 0.52270  0.26410  0.16690  Biso   1.000  O
  O236     1.0000 0.53010  0.25890  0.08430  Biso   1.000  O
  C235     1.0000 0.50130  0.25870  0.12330  Biso   1.000  C
  C236     1.0000 0.44580  0.25340  0.11720  Biso   1.000  C
  H235     1.0000 0.42860  0.28280  0.13190  Biso   1.000  H
  H236     1.0000 0.43400  0.22300  0.13480  Biso   1.000  H
  O237     1.0000 0.02270  0.76410  0.16690  Biso   1.000  O
  O238     1.0000 0.03010  0.75890  0.08430  Biso   1.000  O
  C237     1.0000 0.00130  0.75870  0.12330  Biso   1.000  C
  C238     1.0000 0.94580  0.75340  0.11720  Biso   1.000  C
  H237     1.0000 0.92860  0.78280  0.13190  Biso   1.000  H
  H238     1.0000 0.93400  0.72300  0.13480  Biso   1.000  H
  O239     1.0000 0.02270  0.26410  0.66690  Biso   1.000  O
  O240     1.0000 0.03010  0.25890  0.58430  Biso   1.000  O
  C239     1.0000 0.00130  0.25870  0.62330  Biso   1.000  C
  C240     1.0000 0.94580  0.25340  0.61720  Biso   1.000  C
  H239     1.0000 0.92860  0.28280  0.63190  Biso   1.000  H
  H240     1.0000 0.93400  0.22300  0.63480  Biso   1.000  H
  O241     1.0000 0.72730  0.26410  0.08310  Biso   1.000  O
  O242     1.0000 0.71990  0.25890  0.16570  Biso   1.000  O
  C241     1.0000 0.74870  0.25870  0.12670  Biso   1.000  C
  C242     1.0000 0.80420  0.25340  0.13280  Biso   1.000  C
  H241     1.0000 0.82140  0.28280  0.11810  Biso   1.000  H
  H242     1.0000 0.81600  0.22300  0.11520  Biso   1.000  H
  O243     1.0000 0.72730  0.76410  0.58310  Biso   1.000  O
  O244     1.0000 0.71990  0.75890  0.66570  Biso   1.000  O
  C243     1.0000 0.74870  0.75870  0.62670  Biso   1.000  C
  C244     1.0000 0.80420  0.75340  0.63280  Biso   1.000  C
  H243     1.0000 0.82140  0.78280  0.61810  Biso   1.000  H
  H244     1.0000 0.81600  0.72300  0.61520  Biso   1.000  H
  O245     1.0000 0.22730  0.26410  0.58310  Biso   1.000  O
  O246     1.0000 0.21990  0.25890  0.66570  Biso   1.000  O
  C245     1.0000 0.24870  0.25870  0.62670  Biso   1.000  C
  C246     1.0000 0.30420  0.25340  0.63280  Biso   1.000  C
  H245     1.0000 0.32140  0.28280  0.61810  Biso   1.000  H
  H246     1.0000 0.31600  0.22300  0.61520  Biso   1.000  H
  O247     1.0000 0.22730  0.76410  0.08310  Biso   1.000  O
  O248     1.0000 0.21990  0.75890  0.16570  Biso   1.000  O
  C247     1.0000 0.24870  0.75870  0.12670  Biso   1.000  C
  C248     1.0000 0.30420  0.75340  0.13280  Biso   1.000  C
  H247     1.0000 0.32140  0.78280  0.11810  Biso   1.000  H
  H248     1.0000 0.31600  0.72300  0.11520  Biso   1.000  H
  O249     1.0000 0.22730  0.48590  0.16690  Biso   1.000  O
  O250     1.0000 0.21990  0.49110  0.08430  Biso   1.000  O
  C249     1.0000 0.24870  0.49130  0.12330  Biso   1.000  C
  C250     1.0000 0.30420  0.49660  0.11720  Biso   1.000  C
  H249     1.0000 0.32140  0.46720  0.13190  Biso   1.000  H
  H250     1.0000 0.31600  0.52700  0.13480  Biso   1.000  H
  O251     1.0000 0.22730  0.98590  0.66690  Biso   1.000  O
  O252     1.0000 0.21990  0.99110  0.58430  Biso   1.000  O
  C251     1.0000 0.24870  0.99130  0.62330  Biso   1.000  C
  C252     1.0000 0.30420  0.99660  0.61720  Biso   1.000  C
  H251     1.0000 0.32140  0.96720  0.63190  Biso   1.000  H
  H252     1.0000 0.31600  0.02700  0.63480  Biso   1.000  H
  O253     1.0000 0.72730  0.48590  0.66690  Biso   1.000  O
  O254     1.0000 0.71990  0.49110  0.58430  Biso   1.000  O
  C253     1.0000 0.74870  0.49130  0.62330  Biso   1.000  C
  C254     1.0000 0.80420  0.49660  0.61720  Biso   1.000  C
  H253     1.0000 0.82140  0.46720  0.63190  Biso   1.000  H
  H254     1.0000 0.81600  0.52700  0.63480  Biso   1.000  H
  O255     1.0000 0.72730  0.98590  0.16690  Biso   1.000  O
  O256     1.0000 0.71990  0.99110  0.08430  Biso   1.000  O
  C255     1.0000 0.74870  0.99130  0.12330  Biso   1.000  C
  C256     1.0000 0.80420  0.99660  0.11720  Biso   1.000  C
  H255     1.0000 0.82140  0.96720  0.13190  Biso   1.000  H
  H256     1.0000 0.81600  0.02700  0.13480  Biso   1.000  H
  O257     1.0000 0.58310  0.02270  0.98590  Biso   1.000  O
  O258     1.0000 0.66570  0.03010  0.99110  Biso   1.000  O
  C257     1.0000 0.62670  0.00130  0.99130  Biso   1.000  C
  C258     1.0000 0.63280  0.94580  0.99660  Biso   1.000  C
  H257     1.0000 0.61810  0.92860  0.96720  Biso   1.000  H
  H258     1.0000 0.61520  0.93400  0.02700  Biso   1.000  H
  O259     1.0000 0.58310  0.52270  0.48590  Biso   1.000  O
  O260     1.0000 0.66570  0.53010  0.49110  Biso   1.000  O
  C259     1.0000 0.62670  0.50130  0.49130  Biso   1.000  C
  C260     1.0000 0.63280  0.44580  0.49660  Biso   1.000  C
  H259     1.0000 0.61810  0.42860  0.46720  Biso   1.000  H
  H260     1.0000 0.61520  0.43400  0.52700  Biso   1.000  H
  O261     1.0000 0.08310  0.02270  0.48590  Biso   1.000  O
  O262     1.0000 0.16570  0.03010  0.49110  Biso   1.000  O
  C261     1.0000 0.12670  0.00130  0.49130  Biso   1.000  C
  C262     1.0000 0.13280  0.94580  0.49660  Biso   1.000  C
  H261     1.0000 0.11810  0.92860  0.46720  Biso   1.000  H
  H262     1.0000 0.11520  0.93400  0.52700  Biso   1.000  H
  O263     1.0000 0.08310  0.52270  0.98590  Biso   1.000  O
  O264     1.0000 0.16570  0.53010  0.99110  Biso   1.000  O
  C263     1.0000 0.12670  0.50130  0.99130  Biso   1.000  C
  C264     1.0000 0.13280  0.44580  0.99660  Biso   1.000  C
  H263     1.0000 0.11810  0.42860  0.96720  Biso   1.000  H
  H264     1.0000 0.11520  0.43400  0.02700  Biso   1.000  H
  O265     1.0000 0.66690  0.52270  0.76410  Biso   1.000  O
  O266     1.0000 0.58430  0.53010  0.75890  Biso   1.000  O
  C265     1.0000 0.62330  0.50130  0.75870  Biso   1.000  C
  C266     1.0000 0.61720  0.44580  0.75340  Biso   1.000  C
  H265     1.0000 0.63190  0.42860  0.78280  Biso   1.000  H
  H266     1.0000 0.63480  0.43400  0.72300  Biso   1.000  H
  O267     1.0000 0.66690  0.02270  0.26410  Biso   1.000  O
  O268     1.0000 0.58430  0.03010  0.25890  Biso   1.000  O
  C267     1.0000 0.62330  0.00130  0.25870  Biso   1.000  C
  C268     1.0000 0.61720  0.94580  0.25340  Biso   1.000  C
  H267     1.0000 0.63190  0.92860  0.28280  Biso   1.000  H
  H268     1.0000 0.63480  0.93400  0.22300  Biso   1.000  H
  O269     1.0000 0.16690  0.52270  0.26410  Biso   1.000  O
  O270     1.0000 0.08430  0.53010  0.25890  Biso   1.000  O
  C269     1.0000 0.12330  0.50130  0.25870  Biso   1.000  C
  C270     1.0000 0.11720  0.44580  0.25340  Biso   1.000  C
  H269     1.0000 0.13190  0.42860  0.28280  Biso   1.000  H
  H270     1.0000 0.13480  0.43400  0.22300  Biso   1.000  H
  O271     1.0000 0.16690  0.02270  0.76410  Biso   1.000  O
  O272     1.0000 0.08430  0.03010  0.75890  Biso   1.000  O
  C271     1.0000 0.12330  0.00130  0.75870  Biso   1.000  C
  C272     1.0000 0.11720  0.94580  0.75340  Biso   1.000  C
  H271     1.0000 0.13190  0.92860  0.78280  Biso   1.000  H
  H272     1.0000 0.13480  0.93400  0.72300  Biso   1.000  H
  O273     1.0000 0.08310  0.72730  0.26410  Biso   1.000  O
  O274     1.0000 0.16570  0.71990  0.25890  Biso   1.000  O
  C273     1.0000 0.12670  0.74870  0.25870  Biso   1.000  C
  C274     1.0000 0.13280  0.80420  0.25340  Biso   1.000  C
  H273     1.0000 0.11810  0.82140  0.28280  Biso   1.000  H
  H274     1.0000 0.11520  0.81600  0.22300  Biso   1.000  H
  O275     1.0000 0.08310  0.22730  0.76410  Biso   1.000  O
  O276     1.0000 0.16570  0.21990  0.75890  Biso   1.000  O
  C275     1.0000 0.12670  0.24870  0.75870  Biso   1.000  C
  C276     1.0000 0.13280  0.30420  0.75340  Biso   1.000  C
  H275     1.0000 0.11810  0.32140  0.78280  Biso   1.000  H
  H276     1.0000 0.11520  0.31600  0.72300  Biso   1.000  H
  O277     1.0000 0.58310  0.72730  0.76410  Biso   1.000  O
  O278     1.0000 0.66570  0.71990  0.75890  Biso   1.000  O
  C277     1.0000 0.62670  0.74870  0.75870  Biso   1.000  C
  C278     1.0000 0.63280  0.80420  0.75340  Biso   1.000  C
  H277     1.0000 0.61810  0.82140  0.78280  Biso   1.000  H
  H278     1.0000 0.61520  0.81600  0.72300  Biso   1.000  H
  O279     1.0000 0.58310  0.22730  0.26410  Biso   1.000  O
  O280     1.0000 0.66570  0.21990  0.25890  Biso   1.000  O
  C279     1.0000 0.62670  0.24870  0.25870  Biso   1.000  C
  C280     1.0000 0.63280  0.30420  0.25340  Biso   1.000  C
  H279     1.0000 0.61810  0.32140  0.28280  Biso   1.000  H
  H280     1.0000 0.61520  0.31600  0.22300  Biso   1.000  H
  O281     1.0000 0.16690  0.22730  0.48590  Biso   1.000  O
  O282     1.0000 0.08430  0.21990  0.49110  Biso   1.000  O
  C281     1.0000 0.12330  0.24870  0.49130  Biso   1.000  C
  C282     1.0000 0.11720  0.30420  0.49660  Biso   1.000  C
  H281     1.0000 0.13190  0.32140  0.46720  Biso   1.000  H
  H282     1.0000 0.13480  0.31600  0.52700  Biso   1.000  H
  O283     1.0000 0.16690  0.72730  0.98590  Biso   1.000  O
  O284     1.0000 0.08430  0.71990  0.99110  Biso   1.000  O
  C283     1.0000 0.12330  0.74870  0.99130  Biso   1.000  C
  C284     1.0000 0.11720  0.80420  0.99660  Biso   1.000  C
  H283     1.0000 0.13190  0.82140  0.96720  Biso   1.000  H
  H284     1.0000 0.13480  0.81600  0.02700  Biso   1.000  H
  O285     1.0000 0.66690  0.22730  0.98590  Biso   1.000  O
  O286     1.0000 0.58430  0.21990  0.99110  Biso   1.000  O
  C285     1.0000 0.62330  0.24870  0.99130  Biso   1.000  C
  C286     1.0000 0.61720  0.30420  0.99660  Biso   1.000  C
  H285     1.0000 0.63190  0.32140  0.96720  Biso   1.000  H
  H286     1.0000 0.63480  0.31600  0.02700  Biso   1.000  H
  O287     1.0000 0.66690  0.72730  0.48590  Biso   1.000  O
  O288     1.0000 0.58430  0.71990  0.49110  Biso   1.000  O
  C287     1.0000 0.62330  0.74870  0.49130  Biso   1.000  C
  C288     1.0000 0.61720  0.80420  0.49660  Biso   1.000  C
  H287     1.0000 0.63190  0.82140  0.46720  Biso   1.000  H
  H288     1.0000 0.63480  0.81600  0.52700  Biso   1.000  H
  O289     1.0000 0.83310  0.73590  0.97730  Biso   1.000  O
  O290     1.0000 0.91570  0.74110  0.96990  Biso   1.000  O
  C289     1.0000 0.87670  0.74130  0.99870  Biso   1.000  C
  C290     1.0000 0.88280  0.74660  0.05420  Biso   1.000  C
  H289     1.0000 0.86810  0.71720  0.07140  Biso   1.000  H
  H290     1.0000 0.86520  0.77700  0.06600  Biso   1.000  H
  O291     1.0000 0.83310  0.23590  0.47730  Biso   1.000  O
  O292     1.0000 0.91570  0.24110  0.46990  Biso   1.000  O
  C291     1.0000 0.87670  0.24130  0.49870  Biso   1.000  C
  C292     1.0000 0.88280  0.24660  0.55420  Biso   1.000  C
  H291     1.0000 0.86810  0.21720  0.57140  Biso   1.000  H
  H292     1.0000 0.86520  0.27700  0.56600  Biso   1.000  H
  O293     1.0000 0.33310  0.73590  0.47730  Biso   1.000  O
  O294     1.0000 0.41570  0.74110  0.46990  Biso   1.000  O
  C293     1.0000 0.37670  0.74130  0.49870  Biso   1.000  C
  C294     1.0000 0.38280  0.74660  0.55420  Biso   1.000  C
  H293     1.0000 0.36810  0.71720  0.57140  Biso   1.000  H
  H294     1.0000 0.36520  0.77700  0.56600  Biso   1.000  H
  O295     1.0000 0.33310  0.23590  0.97730  Biso   1.000  O
  O296     1.0000 0.41570  0.24110  0.96990  Biso   1.000  O
  C295     1.0000 0.37670  0.24130  0.99870  Biso   1.000  C
  C296     1.0000 0.38280  0.24660  0.05420  Biso   1.000  C
  H295     1.0000 0.36810  0.21720  0.07140  Biso   1.000  H
  H296     1.0000 0.36520  0.27700  0.06600  Biso   1.000  H
  O297     1.0000 0.91690  0.51410  0.47730  Biso   1.000  O
  O298     1.0000 0.83430  0.50890  0.46990  Biso   1.000  O
  C297     1.0000 0.87330  0.50870  0.49870  Biso   1.000  C
  C298     1.0000 0.86720  0.50340  0.55420  Biso   1.000  C
  H297     1.0000 0.88190  0.53280  0.57140  Biso   1.000  H
  H298     1.0000 0.88480  0.47300  0.56600  Biso   1.000  H
  O299     1.0000 0.91690  0.01410  0.97730  Biso   1.000  O
  O300     1.0000 0.83430  0.00890  0.96990  Biso   1.000  O
  C299     1.0000 0.87330  0.00870  0.99870  Biso   1.000  C
  C300     1.0000 0.86720  0.00340  0.05420  Biso   1.000  C
  H299     1.0000 0.88190  0.03280  0.07140  Biso   1.000  H
  H300     1.0000 0.88480  0.97300  0.06600  Biso   1.000  H
  O301     1.0000 0.41690  0.51410  0.97730  Biso   1.000  O
  O302     1.0000 0.33430  0.50890  0.96990  Biso   1.000  O
  C301     1.0000 0.37330  0.50870  0.99870  Biso   1.000  C
  C302     1.0000 0.36720  0.50340  0.05420  Biso   1.000  C
  H301     1.0000 0.38190  0.53280  0.07140  Biso   1.000  H
  H302     1.0000 0.38480  0.47300  0.06600  Biso   1.000  H
  O303     1.0000 0.41690  0.01410  0.47730  Biso   1.000  O
  O304     1.0000 0.33430  0.00890  0.46990  Biso   1.000  O
  C303     1.0000 0.37330  0.00870  0.49870  Biso   1.000  C
  C304     1.0000 0.36720  0.00340  0.55420  Biso   1.000  C
  H303     1.0000 0.38190  0.03280  0.57140  Biso   1.000  H
  H304     1.0000 0.38480  0.97300  0.56600  Biso   1.000  H
  O305     1.0000 0.33310  0.01410  0.27270  Biso   1.000  O
  O306     1.0000 0.41570  0.00890  0.28010  Biso   1.000  O
  C305     1.0000 0.37670  0.00870  0.25130  Biso   1.000  C
  C306     1.0000 0.38280  0.00340  0.19580  Biso   1.000  C
  H305     1.0000 0.36810  0.03280  0.17860  Biso   1.000  H
  H306     1.0000 0.36520  0.97300  0.18400  Biso   1.000  H
  O307     1.0000 0.33310  0.51410  0.77270  Biso   1.000  O
  O308     1.0000 0.41570  0.50890  0.78010  Biso   1.000  O
  C307     1.0000 0.37670  0.50870  0.75130  Biso   1.000  C
  C308     1.0000 0.38280  0.50340  0.69580  Biso   1.000  C
  H307     1.0000 0.36810  0.53280  0.67860  Biso   1.000  H
  H308     1.0000 0.36520  0.47300  0.68400  Biso   1.000  H
  O309     1.0000 0.83310  0.01410  0.77270  Biso   1.000  O
  O310     1.0000 0.91570  0.00890  0.78010  Biso   1.000  O
  C309     1.0000 0.87670  0.00870  0.75130  Biso   1.000  C
  C310     1.0000 0.88280  0.00340  0.69580  Biso   1.000  C
  H309     1.0000 0.86810  0.03280  0.67860  Biso   1.000  H
  H310     1.0000 0.86520  0.97300  0.68400  Biso   1.000  H
  O311     1.0000 0.83310  0.51410  0.27270  Biso   1.000  O
  O312     1.0000 0.91570  0.50890  0.28010  Biso   1.000  O
  C311     1.0000 0.87670  0.50870  0.25130  Biso   1.000  C
  C312     1.0000 0.88280  0.50340  0.19580  Biso   1.000  C
  H311     1.0000 0.86810  0.53280  0.17860  Biso   1.000  H
  H312     1.0000 0.86520  0.47300  0.18400  Biso   1.000  H
  O313     1.0000 0.41690  0.23590  0.77270  Biso   1.000  O
  O314     1.0000 0.33430  0.24110  0.78010  Biso   1.000  O
  C313     1.0000 0.37330  0.24130  0.75130  Biso   1.000  C
  C314     1.0000 0.36720  0.24660  0.69580  Biso   1.000  C
  H313     1.0000 0.38190  0.21720  0.67860  Biso   1.000  H
  H314     1.0000 0.38480  0.27700  0.68400  Biso   1.000  H
  O315     1.0000 0.41690  0.73590  0.27270  Biso   1.000  O
  O316     1.0000 0.33430  0.74110  0.28010  Biso   1.000  O
  C315     1.0000 0.37330  0.74130  0.25130  Biso   1.000  C
  C316     1.0000 0.36720  0.74660  0.19580  Biso   1.000  C
  H315     1.0000 0.38190  0.71720  0.17860  Biso   1.000  H
  H316     1.0000 0.38480  0.77700  0.18400  Biso   1.000  H
  O317     1.0000 0.91690  0.23590  0.27270  Biso   1.000  O
  O318     1.0000 0.83430  0.24110  0.28010  Biso   1.000  O
  C317     1.0000 0.87330  0.24130  0.25130  Biso   1.000  C
  C318     1.0000 0.86720  0.24660  0.19580  Biso   1.000  C
  H317     1.0000 0.88190  0.21720  0.17860  Biso   1.000  H
  H318     1.0000 0.88480  0.27700  0.18400  Biso   1.000  H
  O319     1.0000 0.91690  0.73590  0.77270  Biso   1.000  O
  O320     1.0000 0.83430  0.74110  0.78010  Biso   1.000  O
  C319     1.0000 0.87330  0.74130  0.75130  Biso   1.000  C
  C320     1.0000 0.86720  0.74660  0.69580  Biso   1.000  C
  H319     1.0000 0.88190  0.71720  0.67860  Biso   1.000  H
  H320     1.0000 0.88480  0.77700  0.68400  Biso   1.000  H
  O321     1.0000 0.23590  0.77270  0.41690  Biso   1.000  O
  O322     1.0000 0.24110  0.78010  0.33430  Biso   1.000  O
  C321     1.0000 0.24130  0.75130  0.37330  Biso   1.000  C
  C322     1.0000 0.24660  0.69580  0.36720  Biso   1.000  C
  H321     1.0000 0.21720  0.67860  0.38190  Biso   1.000  H
  H322     1.0000 0.27700  0.68400  0.38480  Biso   1.000  H
  O323     1.0000 0.23590  0.27270  0.91690  Biso   1.000  O
  O324     1.0000 0.24110  0.28010  0.83430  Biso   1.000  O
  C323     1.0000 0.24130  0.25130  0.87330  Biso   1.000  C
  C324     1.0000 0.24660  0.19580  0.86720  Biso   1.000  C
  H323     1.0000 0.21720  0.17860  0.88190  Biso   1.000  H
  H324     1.0000 0.27700  0.18400  0.88480  Biso   1.000  H
  O325     1.0000 0.73590  0.77270  0.91690  Biso   1.000  O
  O326     1.0000 0.74110  0.78010  0.83430  Biso   1.000  O
  C325     1.0000 0.74130  0.75130  0.87330  Biso   1.000  C
  C326     1.0000 0.74660  0.69580  0.86720  Biso   1.000  C
  H325     1.0000 0.71720  0.67860  0.88190  Biso   1.000  H
  H326     1.0000 0.77700  0.68400  0.88480  Biso   1.000  H
  O327     1.0000 0.73590  0.27270  0.41690  Biso   1.000  O
  O328     1.0000 0.74110  0.28010  0.33430  Biso   1.000  O
  C327     1.0000 0.74130  0.25130  0.37330  Biso   1.000  C
  C328     1.0000 0.74660  0.19580  0.36720  Biso   1.000  C
  H327     1.0000 0.71720  0.17860  0.38190  Biso   1.000  H
  H328     1.0000 0.77700  0.18400  0.38480  Biso   1.000  H
  O329     1.0000 0.01410  0.27270  0.33310  Biso   1.000  O
  O330     1.0000 0.00890  0.28010  0.41570  Biso   1.000  O
  C329     1.0000 0.00870  0.25130  0.37670  Biso   1.000  C
  C330     1.0000 0.00340  0.19580  0.38280  Biso   1.000  C
  H329     1.0000 0.03280  0.17860  0.36810  Biso   1.000  H
  H330     1.0000 0.97300  0.18400  0.36520  Biso   1.000  H
  O331     1.0000 0.01410  0.77270  0.83310  Biso   1.000  O
  O332     1.0000 0.00890  0.78010  0.91570  Biso   1.000  O
  C331     1.0000 0.00870  0.75130  0.87670  Biso   1.000  C
  C332     1.0000 0.00340  0.69580  0.88280  Biso   1.000  C
  H331     1.0000 0.03280  0.67860  0.86810  Biso   1.000  H
  H332     1.0000 0.97300  0.68400  0.86520  Biso   1.000  H
  O333     1.0000 0.51410  0.27270  0.83310  Biso   1.000  O
  O334     1.0000 0.50890  0.28010  0.91570  Biso   1.000  O
  C333     1.0000 0.50870  0.25130  0.87670  Biso   1.000  C
  C334     1.0000 0.50340  0.19580  0.88280  Biso   1.000  C
  H333     1.0000 0.53280  0.17860  0.86810  Biso   1.000  H
  H334     1.0000 0.47300  0.18400  0.86520  Biso   1.000  H
  O335     1.0000 0.51410  0.77270  0.33310  Biso   1.000  O
  O336     1.0000 0.50890  0.78010  0.41570  Biso   1.000  O
  C335     1.0000 0.50870  0.75130  0.37670  Biso   1.000  C
  C336     1.0000 0.50340  0.69580  0.38280  Biso   1.000  C
  H335     1.0000 0.53280  0.67860  0.36810  Biso   1.000  H
  H336     1.0000 0.47300  0.68400  0.36520  Biso   1.000  H
  O337     1.0000 0.51410  0.47730  0.91690  Biso   1.000  O
  O338     1.0000 0.50890  0.46990  0.83430  Biso   1.000  O
  C337     1.0000 0.50870  0.49870  0.87330  Biso   1.000  C
  C338     1.0000 0.50340  0.55420  0.86720  Biso   1.000  C
  H337     1.0000 0.53280  0.57140  0.88190  Biso   1.000  H
  H338     1.0000 0.47300  0.56600  0.88480  Biso   1.000  H
  O339     1.0000 0.51410  0.97730  0.41690  Biso   1.000  O
  O340     1.0000 0.50890  0.96990  0.33430  Biso   1.000  O
  C339     1.0000 0.50870  0.99870  0.37330  Biso   1.000  C
  C340     1.0000 0.50340  0.05420  0.36720  Biso   1.000  C
  H339     1.0000 0.53280  0.07140  0.38190  Biso   1.000  H
  H340     1.0000 0.47300  0.06600  0.38480  Biso   1.000  H
  O341     1.0000 0.01410  0.47730  0.41690  Biso   1.000  O
  O342     1.0000 0.00890  0.46990  0.33430  Biso   1.000  O
  C341     1.0000 0.00870  0.49870  0.37330  Biso   1.000  C
  C342     1.0000 0.00340  0.55420  0.36720  Biso   1.000  C
  H341     1.0000 0.03280  0.57140  0.38190  Biso   1.000  H
  H342     1.0000 0.97300  0.56600  0.38480  Biso   1.000  H
  O343     1.0000 0.01410  0.97730  0.91690  Biso   1.000  O
  O344     1.0000 0.00890  0.96990  0.83430  Biso   1.000  O
  C343     1.0000 0.00870  0.99870  0.87330  Biso   1.000  C
  C344     1.0000 0.00340  0.05420  0.86720  Biso   1.000  C
  H343     1.0000 0.03280  0.07140  0.88190  Biso   1.000  H
  H344     1.0000 0.97300  0.06600  0.88480  Biso   1.000  H
  O345     1.0000 0.73590  0.97730  0.83310  Biso   1.000  O
  O346     1.0000 0.74110  0.96990  0.91570  Biso   1.000  O
  C345     1.0000 0.74130  0.99870  0.87670  Biso   1.000  C
  C346     1.0000 0.74660  0.05420  0.88280  Biso   1.000  C
  H345     1.0000 0.71720  0.07140  0.86810  Biso   1.000  H
  H346     1.0000 0.77700  0.06600  0.86520  Biso   1.000  H
  O347     1.0000 0.73590  0.47730  0.33310  Biso   1.000  O
  O348     1.0000 0.74110  0.46990  0.41570  Biso   1.000  O
  C347     1.0000 0.74130  0.49870  0.37670  Biso   1.000  C
  C348     1.0000 0.74660  0.55420  0.38280  Biso   1.000  C
  H347     1.0000 0.71720  0.57140  0.36810  Biso   1.000  H
  H348     1.0000 0.77700  0.56600  0.36520  Biso   1.000  H
  O349     1.0000 0.23590  0.97730  0.33310  Biso   1.000  O
  O350     1.0000 0.24110  0.96990  0.41570  Biso   1.000  O
  C349     1.0000 0.24130  0.99870  0.37670  Biso   1.000  C
  C350     1.0000 0.24660  0.05420  0.38280  Biso   1.000  C
  H349     1.0000 0.21720  0.07140  0.36810  Biso   1.000  H
  H350     1.0000 0.27700  0.06600  0.36520  Biso   1.000  H
  O351     1.0000 0.23590  0.47730  0.83310  Biso   1.000  O
  O352     1.0000 0.24110  0.46990  0.91570  Biso   1.000  O
  C351     1.0000 0.24130  0.49870  0.87670  Biso   1.000  C
  C352     1.0000 0.24660  0.55420  0.88280  Biso   1.000  C
  H351     1.0000 0.21720  0.57140  0.86810  Biso   1.000  H
  H352     1.0000 0.27700  0.56600  0.86520  Biso   1.000  H
  O353     1.0000 0.27270  0.33310  0.01410  Biso   1.000  O
  O354     1.0000 0.28010  0.41570  0.00890  Biso   1.000  O
  C353     1.0000 0.25130  0.37670  0.00870  Biso   1.000  C
  C354     1.0000 0.19580  0.38280  0.00340  Biso   1.000  C
  H353     1.0000 0.17860  0.36810  0.03280  Biso   1.000  H
  H354     1.0000 0.18400  0.36520  0.97300  Biso   1.000  H
  O355     1.0000 0.27270  0.83310  0.51410  Biso   1.000  O
  O356     1.0000 0.28010  0.91570  0.50890  Biso   1.000  O
  C355     1.0000 0.25130  0.87670  0.50870  Biso   1.000  C
  C356     1.0000 0.19580  0.88280  0.50340  Biso   1.000  C
  H355     1.0000 0.17860  0.86810  0.53280  Biso   1.000  H
  H356     1.0000 0.18400  0.86520  0.47300  Biso   1.000  H
  O357     1.0000 0.77270  0.33310  0.51410  Biso   1.000  O
  O358     1.0000 0.78010  0.41570  0.50890  Biso   1.000  O
  C357     1.0000 0.75130  0.37670  0.50870  Biso   1.000  C
  C358     1.0000 0.69580  0.38280  0.50340  Biso   1.000  C
  H357     1.0000 0.67860  0.36810  0.53280  Biso   1.000  H
  H358     1.0000 0.68400  0.36520  0.47300  Biso   1.000  H
  O359     1.0000 0.77270  0.83310  0.01410  Biso   1.000  O
  O360     1.0000 0.78010  0.91570  0.00890  Biso   1.000  O
  C359     1.0000 0.75130  0.87670  0.00870  Biso   1.000  C
  C360     1.0000 0.69580  0.88280  0.00340  Biso   1.000  C
  H359     1.0000 0.67860  0.86810  0.03280  Biso   1.000  H
  H360     1.0000 0.68400  0.86520  0.97300  Biso   1.000  H
  O361     1.0000 0.77270  0.41690  0.23590  Biso   1.000  O
  O362     1.0000 0.78010  0.33430  0.24110  Biso   1.000  O
  C361     1.0000 0.75130  0.37330  0.24130  Biso   1.000  C
  C362     1.0000 0.69580  0.36720  0.24660  Biso   1.000  C
  H361     1.0000 0.67860  0.38190  0.21720  Biso   1.000  H
  H362     1.0000 0.68400  0.38480  0.27700  Biso   1.000  H
  O363     1.0000 0.77270  0.91690  0.73590  Biso   1.000  O
  O364     1.0000 0.78010  0.83430  0.74110  Biso   1.000  O
  C363     1.0000 0.75130  0.87330  0.74130  Biso   1.000  C
  C364     1.0000 0.69580  0.86720  0.74660  Biso   1.000  C
  H363     1.0000 0.67860  0.88190  0.71720  Biso   1.000  H
  H364     1.0000 0.68400  0.88480  0.77700  Biso   1.000  H
  O365     1.0000 0.27270  0.41690  0.73590  Biso   1.000  O
  O366     1.0000 0.28010  0.33430  0.74110  Biso   1.000  O
  C365     1.0000 0.25130  0.37330  0.74130  Biso   1.000  C
  C366     1.0000 0.19580  0.36720  0.74660  Biso   1.000  C
  H365     1.0000 0.17860  0.38190  0.71720  Biso   1.000  H
  H366     1.0000 0.18400  0.38480  0.77700  Biso   1.000  H
  O367     1.0000 0.27270  0.91690  0.23590  Biso   1.000  O
  O368     1.0000 0.28010  0.83430  0.24110  Biso   1.000  O
  C367     1.0000 0.25130  0.87330  0.24130  Biso   1.000  C
  C368     1.0000 0.19580  0.86720  0.24660  Biso   1.000  C
  H367     1.0000 0.17860  0.88190  0.21720  Biso   1.000  H
  H368     1.0000 0.18400  0.88480  0.27700  Biso   1.000  H
  O369     1.0000 0.97730  0.83310  0.73590  Biso   1.000  O
  O370     1.0000 0.96990  0.91570  0.74110  Biso   1.000  O
  C369     1.0000 0.99870  0.87670  0.74130  Biso   1.000  C
  C370     1.0000 0.05420  0.88280  0.74660  Biso   1.000  C
  H369     1.0000 0.07140  0.86810  0.71720  Biso   1.000  H
  H370     1.0000 0.06600  0.86520  0.77700  Biso   1.000  H
  O371     1.0000 0.97730  0.33310  0.23590  Biso   1.000  O
  O372     1.0000 0.96990  0.41570  0.24110  Biso   1.000  O
  C371     1.0000 0.99870  0.37670  0.24130  Biso   1.000  C
  C372     1.0000 0.05420  0.38280  0.24660  Biso   1.000  C
  H371     1.0000 0.07140  0.36810  0.21720  Biso   1.000  H
  H372     1.0000 0.06600  0.36520  0.27700  Biso   1.000  H
  O373     1.0000 0.47730  0.83310  0.23590  Biso   1.000  O
  O374     1.0000 0.46990  0.91570  0.24110  Biso   1.000  O
  C373     1.0000 0.49870  0.87670  0.24130  Biso   1.000  C
  C374     1.0000 0.55420  0.88280  0.24660  Biso   1.000  C
  H373     1.0000 0.57140  0.86810  0.21720  Biso   1.000  H
  H374     1.0000 0.56600  0.86520  0.27700  Biso   1.000  H
  O375     1.0000 0.47730  0.33310  0.73590  Biso   1.000  O
  O376     1.0000 0.46990  0.41570  0.74110  Biso   1.000  O
  C375     1.0000 0.49870  0.37670  0.74130  Biso   1.000  C
  C376     1.0000 0.55420  0.38280  0.74660  Biso   1.000  C
  H375     1.0000 0.57140  0.36810  0.71720  Biso   1.000  H
  H376     1.0000 0.56600  0.36520  0.77700  Biso   1.000  H
  O377     1.0000 0.47730  0.91690  0.51410  Biso   1.000  O
  O378     1.0000 0.46990  0.83430  0.50890  Biso   1.000  O
  C377     1.0000 0.49870  0.87330  0.50870  Biso   1.000  C
  C378     1.0000 0.55420  0.86720  0.50340  Biso   1.000  C
  H377     1.0000 0.57140  0.88190  0.53280  Biso   1.000  H
  H378     1.0000 0.56600  0.88480  0.47300  Biso   1.000  H
  O379     1.0000 0.47730  0.41690  0.01410  Biso   1.000  O
  O380     1.0000 0.46990  0.33430  0.00890  Biso   1.000  O
  C379     1.0000 0.49870  0.37330  0.00870  Biso   1.000  C
  C380     1.0000 0.55420  0.36720  0.00340  Biso   1.000  C
  H379     1.0000 0.57140  0.38190  0.03280  Biso   1.000  H
  H380     1.0000 0.56600  0.38480  0.97300  Biso   1.000  H
  O381     1.0000 0.97730  0.91690  0.01410  Biso   1.000  O
  O382     1.0000 0.96990  0.83430  0.00890  Biso   1.000  O
  C381     1.0000 0.99870  0.87330  0.00870  Biso   1.000  C
  C382     1.0000 0.05420  0.86720  0.00340  Biso   1.000  C
  H381     1.0000 0.07140  0.88190  0.03280  Biso   1.000  H
  H382     1.0000 0.06600  0.88480  0.97300  Biso   1.000  H
  O383     1.0000 0.97730  0.41690  0.51410  Biso   1.000  O
  O384     1.0000 0.96990  0.33430  0.50890  Biso   1.000  O
  C383     1.0000 0.99870  0.37330  0.50870  Biso   1.000  C
  C384     1.0000 0.05420  0.36720  0.50340  Biso   1.000  C
  H383     1.0000 0.07140  0.38190  0.53280  Biso   1.000  H
  H384     1.0000 0.06600  0.38480  0.47300  Biso   1.000  H
  Er1      1.0000 0.00000  0.25000  0.00000  Biso   1.000  Er
  Er2      1.0000 0.00000  0.75000  0.50000  Biso   1.000  Er
  Er3      1.0000 0.50000  0.25000  0.50000  Biso   1.000  Er
  Er4      1.0000 0.25000  0.50000  0.50000  Biso   1.000  Er
  Er5      1.0000 0.75000  0.00000  0.50000  Biso   1.000  Er
  Er6      1.0000 0.75000  0.75000  0.25000  Biso   1.000  Er
  Er7      1.0000 0.50000  0.00000  0.75000  Biso   1.000  Er
  Er8      1.0000 0.00000  0.00000  0.25000  Biso   1.000  Er
  Er9      1.0000 0.00000  0.50000  0.75000  Biso   1.000  Er
  Er10     1.0000 0.50000  0.50000  0.25000  Biso   1.000  Er
  Er11     1.0000 0.50000  0.75000  0.00000  Biso   1.000  Er
  Er12     1.0000 0.25000  0.75000  0.75000  Biso   1.000  Er
  Er13     1.0000 0.25000  0.25000  0.25000  Biso   1.000  Er
  Er14     1.0000 0.75000  0.50000  0.00000  Biso   1.000  Er
  Er15     1.0000 0.25000  0.00000  0.00000  Biso   1.000  Er
  Er16     1.0000 0.75000  0.25000  0.75000  Biso   1.000  Er
  Er17     1.0000 0.00000  0.75000  0.00000  Biso   1.000  Er
  Er18     1.0000 0.75000  0.50000  0.50000  Biso   1.000  Er
  Er19     1.0000 0.25000  0.25000  0.75000  Biso   1.000  Er
  Er20     1.0000 0.75000  0.75000  0.75000  Biso   1.000  Er
  Er21     1.0000 0.50000  0.00000  0.25000  Biso   1.000  Er
  Er22     1.0000 0.00000  0.00000  0.75000  Biso   1.000  Er
  Er23     1.0000 0.00000  0.50000  0.25000  Biso   1.000  Er
  Er24     1.0000 0.50000  0.75000  0.50000  Biso   1.000  Er
  Er25     1.0000 0.50000  0.25000  0.00000  Biso   1.000  Er
  Er26     1.0000 0.75000  0.25000  0.25000  Biso   1.000  Er
  Er27     1.0000 0.25000  0.50000  0.00000  Biso   1.000  Er
  Er28     1.0000 0.25000  0.00000  0.50000  Biso   1.000  Er
  Er29     1.0000 0.75000  0.00000  0.00000  Biso   1.000  Er
  Er30     1.0000 0.50000  0.50000  0.75000  Biso   1.000  Er
  Er31     1.0000 0.25000  0.75000  0.25000  Biso   1.000  Er
  Er32     1.0000 0.00000  0.25000  0.50000  Biso   1.000  Er
  Cd1      1.0000 0.00000  0.50000  0.00000  Biso   1.000  Cd
  Cd2      1.0000 0.50000  0.50000  0.50000  Biso   1.000  Cd
  Cd3      1.0000 0.25000  0.25000  0.50000  Biso   1.000  Cd
  Cd4      1.0000 0.25000  0.75000  0.00000  Biso   1.000  Cd
  Cd5      1.0000 0.75000  0.00000  0.25000  Biso   1.000  Cd
  Cd6      1.0000 0.50000  0.75000  0.75000  Biso   1.000  Cd
  Cd7      1.0000 0.00000  0.25000  0.75000  Biso   1.000  Cd
  Cd8      1.0000 0.00000  0.00000  0.50000  Biso   1.000  Cd
  Cd9      1.0000 0.50000  0.25000  0.25000  Biso   1.000  Cd
  Cd10     1.0000 0.75000  0.50000  0.75000  Biso   1.000  Cd
  Cd11     1.0000 0.50000  0.00000  0.00000  Biso   1.000  Cd
  Cd12     1.0000 0.25000  0.50000  0.25000  Biso   1.000  Cd
  Cd13     1.0000 0.75000  0.75000  0.50000  Biso   1.000  Cd
  Cd14     1.0000 0.25000  0.25000  0.00000  Biso   1.000  Cd
  Cd15     1.0000 0.00000  0.50000  0.50000  Biso   1.000  Cd
  Cd16     1.0000 0.00000  0.00000  0.00000  Biso   1.000  Cd
  Cd17     1.0000 0.75000  0.00000  0.75000  Biso   1.000  Cd
  Cd18     1.0000 0.50000  0.75000  0.25000  Biso   1.000  Cd
  Cd19     1.0000 0.00000  0.75000  0.75000  Biso   1.000  Cd
  Cd20     1.0000 0.00000  0.25000  0.25000  Biso   1.000  Cd
  Cd21     1.0000 0.75000  0.25000  0.50000  Biso   1.000  Cd
  Cd22     1.0000 0.75000  0.75000  0.00000  Biso   1.000  Cd
  Cd23     1.0000 0.50000  0.50000  0.00000  Biso   1.000  Cd
  Cd24     1.0000 0.25000  0.00000  0.25000  Biso   1.000  Cd
  Cd25     1.0000 0.25000  0.50000  0.75000  Biso   1.000  Cd
  Cd26     1.0000 0.50000  0.00000  0.50000  Biso   1.000  Cd
  Cd27     1.0000 0.25000  0.00000  0.75000  Biso   1.000  Cd
  Cd28     1.0000 0.75000  0.25000  0.00000  Biso   1.000  Cd
  Cd29     1.0000 0.00000  0.75000  0.25000  Biso   1.000  Cd
  Cd30     1.0000 0.25000  0.75000  0.50000  Biso   1.000  Cd
  Cd31     1.0000 0.75000  0.50000  0.25000  Biso   1.000  Cd
  Cd32     1.0000 0.50000  0.25000  0.75000  Biso   1.000  Cd
  O385     1.0000 0.00000  0.31540  0.06540  Biso   1.000  O
  O386     1.0000 0.00000  0.81540  0.56540  Biso   1.000  O
  O387     1.0000 0.50000  0.31540  0.56540  Biso   1.000  O
  O388     1.0000 0.25000  0.43460  0.56540  Biso   1.000  O
  O389     1.0000 0.75000  0.43460  0.06540  Biso   1.000  O
  O390     1.0000 0.75000  0.81540  0.18460  Biso   1.000  O
  O391     1.0000 0.25000  0.81540  0.68460  Biso   1.000  O
  O392     1.0000 0.50000  0.93460  0.68460  Biso   1.000  O
  O393     1.0000 0.00000  0.93460  0.18460  Biso   1.000  O
  O394     1.0000 0.00000  0.43460  0.68460  Biso   1.000  O
  O395     1.0000 0.06540  0.00000  0.31540  Biso   1.000  O
  O396     1.0000 0.06540  0.50000  0.81540  Biso   1.000  O
  O397     1.0000 0.56540  0.00000  0.81540  Biso   1.000  O
  O398     1.0000 0.56540  0.25000  0.43460  Biso   1.000  O
  O399     1.0000 0.56540  0.75000  0.93460  Biso   1.000  O
  O400     1.0000 0.06540  0.75000  0.43460  Biso   1.000  O
  O401     1.0000 0.18460  0.75000  0.81540  Biso   1.000  O
  O402     1.0000 0.18460  0.25000  0.31540  Biso   1.000  O
  O403     1.0000 0.68460  0.50000  0.93460  Biso   1.000  O
  O404     1.0000 0.68460  0.00000  0.43460  Biso   1.000  O
  O405     1.0000 0.31540  0.06540  0.00000  Biso   1.000  O
  O406     1.0000 0.31540  0.56540  0.50000  Biso   1.000  O
  O407     1.0000 0.81540  0.56540  0.00000  Biso   1.000  O
  O408     1.0000 0.43460  0.56540  0.25000  Biso   1.000  O
  O409     1.0000 0.43460  0.06540  0.75000  Biso   1.000  O
  O410     1.0000 0.81540  0.18460  0.75000  Biso   1.000  O
  O411     1.0000 0.81540  0.68460  0.25000  Biso   1.000  O
  O412     1.0000 0.93460  0.68460  0.50000  Biso   1.000  O
  O413     1.0000 0.93460  0.18460  0.00000  Biso   1.000  O
  O414     1.0000 0.43460  0.68460  0.00000  Biso   1.000  O
  O415     1.0000 0.06540  0.25000  0.93460  Biso   1.000  O
  O416     1.0000 0.18460  0.50000  0.43460  Biso   1.000  O
  O417     1.0000 0.18460  0.00000  0.93460  Biso   1.000  O
  O418     1.0000 0.56540  0.50000  0.31540  Biso   1.000  O
  O419     1.0000 0.68460  0.75000  0.31540  Biso   1.000  O
  O420     1.0000 0.68460  0.25000  0.81540  Biso   1.000  O
  O421     1.0000 0.75000  0.31540  0.68460  Biso   1.000  O
  O422     1.0000 0.25000  0.31540  0.18460  Biso   1.000  O
  O423     1.0000 0.50000  0.81540  0.06540  Biso   1.000  O
  O424     1.0000 0.50000  0.43460  0.18460  Biso   1.000  O
  O425     1.0000 0.25000  0.93460  0.06540  Biso   1.000  O
  O426     1.0000 0.75000  0.93460  0.56540  Biso   1.000  O
  O427     1.0000 0.81540  0.06540  0.50000  Biso   1.000  O
  O428     1.0000 0.31540  0.68460  0.75000  Biso   1.000  O
  O429     1.0000 0.31540  0.18460  0.25000  Biso   1.000  O
  O430     1.0000 0.93460  0.06540  0.25000  Biso   1.000  O
  O431     1.0000 0.93460  0.56540  0.75000  Biso   1.000  O
  O432     1.0000 0.43460  0.18460  0.50000  Biso   1.000  O
  O433     1.0000 0.00000  0.68460  0.93460  Biso   1.000  O
  O434     1.0000 0.00000  0.18460  0.43460  Biso   1.000  O
  O435     1.0000 0.50000  0.68460  0.43460  Biso   1.000  O
  O436     1.0000 0.75000  0.56540  0.43460  Biso   1.000  O
  O437     1.0000 0.25000  0.56540  0.93460  Biso   1.000  O
  O438     1.0000 0.25000  0.18460  0.81540  Biso   1.000  O
  O439     1.0000 0.75000  0.18460  0.31540  Biso   1.000  O
  O440     1.0000 0.75000  0.68460  0.81540  Biso   1.000  O
  O441     1.0000 0.50000  0.06540  0.31540  Biso   1.000  O
  O442     1.0000 0.00000  0.06540  0.81540  Biso   1.000  O
  O443     1.0000 0.93460  0.00000  0.68460  Biso   1.000  O
  O444     1.0000 0.93460  0.50000  0.18460  Biso   1.000  O
  O445     1.0000 0.43460  0.00000  0.18460  Biso   1.000  O
  O446     1.0000 0.43460  0.75000  0.56540  Biso   1.000  O
  O447     1.0000 0.43460  0.25000  0.06540  Biso   1.000  O
  O448     1.0000 0.81540  0.25000  0.18460  Biso   1.000  O
  O449     1.0000 0.81540  0.75000  0.68460  Biso   1.000  O
  O450     1.0000 0.31540  0.50000  0.06540  Biso   1.000  O
  O451     1.0000 0.31540  0.00000  0.56540  Biso   1.000  O
  O452     1.0000 0.81540  0.00000  0.06540  Biso   1.000  O
  O453     1.0000 0.68460  0.93460  0.00000  Biso   1.000  O
  O454     1.0000 0.68460  0.43460  0.50000  Biso   1.000  O
  O455     1.0000 0.18460  0.43460  0.00000  Biso   1.000  O
  O456     1.0000 0.56540  0.43460  0.75000  Biso   1.000  O
  O457     1.0000 0.56540  0.93460  0.25000  Biso   1.000  O
  O458     1.0000 0.18460  0.81540  0.25000  Biso   1.000  O
  O459     1.0000 0.18460  0.31540  0.75000  Biso   1.000  O
  O460     1.0000 0.68460  0.81540  0.75000  Biso   1.000  O
  O461     1.0000 0.06540  0.31540  0.50000  Biso   1.000  O
  O462     1.0000 0.06540  0.81540  0.00000  Biso   1.000  O
  O463     1.0000 0.93460  0.75000  0.06540  Biso   1.000  O
  O464     1.0000 0.93460  0.25000  0.56540  Biso   1.000  O
  O465     1.0000 0.81540  0.50000  0.56540  Biso   1.000  O
  O466     1.0000 0.43460  0.50000  0.68460  Biso   1.000  O
  O467     1.0000 0.31540  0.25000  0.68460  Biso   1.000  O
  O468     1.0000 0.31540  0.75000  0.18460  Biso   1.000  O
  O469     1.0000 0.25000  0.68460  0.31540  Biso   1.000  O
  O470     1.0000 0.50000  0.18460  0.93460  Biso   1.000  O
  O471     1.0000 0.50000  0.56540  0.81540  Biso   1.000  O
  O472     1.0000 0.00000  0.56540  0.31540  Biso   1.000  O
  O473     1.0000 0.75000  0.06540  0.93460  Biso   1.000  O
  O474     1.0000 0.25000  0.06540  0.43460  Biso   1.000  O
  O475     1.0000 0.18460  0.93460  0.50000  Biso   1.000  O
  O476     1.0000 0.68460  0.31540  0.25000  Biso   1.000  O
  O477     1.0000 0.06540  0.93460  0.75000  Biso   1.000  O
  O478     1.0000 0.06540  0.43460  0.25000  Biso   1.000  O
  O479     1.0000 0.56540  0.81540  0.50000  Biso   1.000  O
  O480     1.0000 0.56540  0.31540  0.00000  Biso   1.000  O
