data_image0
_cell_length_a       32.721
_cell_length_b       32.721
_cell_length_c       9.316
_cell_angle_alpha    90
_cell_angle_beta     90
_cell_angle_gamma    120

_symmetry_space_group_name_H-M    "P 1"
_symmetry_int_tables_number       1

loop_
  _symmetry_equiv_pos_as_xyz
  'x, y, z'

loop_
  _atom_site_label
  _atom_site_occupancy
  _atom_site_fract_x
  _atom_site_fract_y
  _atom_site_fract_z
  _atom_site_thermal_displace_type
  _atom_site_B_iso_or_equiv
  _atom_site_type_symbol
  N1       1.0000 0.53316  0.99786  0.82120  Biso   1.000  N
  N2       1.0000 0.44174  0.94325  0.92910  Biso   1.000  N
  N3       1.0000 0.24045  0.86321  0.23820  Biso   1.000  N
  C1       1.0000 0.58079  0.02505  0.79480  Biso   1.000  C
  C2       1.0000 0.59308  0.00873  0.66680  Biso   1.000  C
  H1       1.0000 0.62370  0.02150  0.62590  Biso   1.000  H
  C3       1.0000 0.55316  0.97208  0.61670  Biso   1.000  C
  H2       1.0000 0.55010  0.95410  0.53320  Biso   1.000  H
  C4       1.0000 0.51575  0.96502  0.71280  Biso   1.000  C
  C5       1.0000 0.46936  0.92796  0.70060  Biso   1.000  C
  C6       1.0000 0.43496  0.91847  0.80360  Biso   1.000  C
  C7       1.0000 0.38605  0.88202  0.78970  Biso   1.000  C
  H3       1.0000 0.37250  0.86000  0.71340  Biso   1.000  H
  C8       1.0000 0.36346  0.88532  0.90500  Biso   1.000  C
  H4       1.0000 0.33080  0.86610  0.92540  Biso   1.000  H
  C9       1.0000 0.39767  0.92327  0.99250  Biso   1.000  C
  C10      1.0000 0.38685  0.93837  0.11920  Biso   1.000  C
  C11      1.0000 0.33615  0.91301  0.16330  Biso   1.000  C
  C12      1.0000 0.31991  0.87996  0.27290  Biso   1.000  C
  H5       1.0000 0.34120  0.87370  0.32470  Biso   1.000  H
  C13      1.0000 0.27236  0.85627  0.30570  Biso   1.000  C
  H6       1.0000 0.26180  0.83360  0.38100  Biso   1.000  H
  C14      1.0000 0.25642  0.89519  0.13340  Biso   1.000  C
  H7       1.0000 0.23440  0.90080  0.08380  Biso   1.000  H
  C15      1.0000 0.30325  0.92068  0.09250  Biso   1.000  C
  H8       1.0000 0.31280  0.94310  0.01690  Biso   1.000  H
  C16      1.0000 0.45581  0.89620  0.57190  Biso   1.000  C
  C17      1.0000 0.44225  0.84905  0.58560  Biso   1.000  C
  H9       1.0000 0.44190  0.83650  0.67780  Biso   1.000  H
  C18      1.0000 0.42905  0.81956  0.46520  Biso   1.000  C
  H10      1.0000 0.42000  0.78730  0.47670  Biso   1.000  H
  C19      1.0000 0.42897  0.83682  0.32970  Biso   1.000  C
  C20      1.0000 0.44251  0.88404  0.31670  Biso   1.000  C
  H11      1.0000 0.44260  0.89650  0.22450  Biso   1.000  H
  C21      1.0000 0.45592  0.91348  0.43500  Biso   1.000  C
  H12      1.0000 0.46530  0.94580  0.42290  Biso   1.000  H
  C22      1.0000 0.41604  0.80554  0.19740  Biso   1.000  C
  H13      1.0000 0.40330  0.81740  0.12350  Biso   1.000  H
  H14      1.0000 0.39220  0.77320  0.22300  Biso   1.000  H
  H15      1.0000 0.44420  0.80590  0.16050  Biso   1.000  H
  N4       1.0000 0.46684  0.00214  0.17880  Biso   1.000  N
  N5       1.0000 0.55826  0.05675  0.07090  Biso   1.000  N
  N6       1.0000 0.75955  0.13679  0.76180  Biso   1.000  N
  C23      1.0000 0.41921  0.97495  0.20520  Biso   1.000  C
  C24      1.0000 0.40692  0.99127  0.33320  Biso   1.000  C
  H16      1.0000 0.37630  0.97850  0.37410  Biso   1.000  H
  C25      1.0000 0.44684  0.02792  0.38330  Biso   1.000  C
  H17      1.0000 0.44990  0.04590  0.46680  Biso   1.000  H
  C26      1.0000 0.48425  0.03498  0.28720  Biso   1.000  C
  C27      1.0000 0.53064  0.07204  0.29940  Biso   1.000  C
  C28      1.0000 0.56504  0.08153  0.19640  Biso   1.000  C
  C29      1.0000 0.61395  0.11798  0.21030  Biso   1.000  C
  H18      1.0000 0.62750  0.14000  0.28660  Biso   1.000  H
  C30      1.0000 0.63654  0.11468  0.09500  Biso   1.000  C
  H19      1.0000 0.66920  0.13390  0.07460  Biso   1.000  H
  C31      1.0000 0.60233  0.07673  0.00750  Biso   1.000  C
  C32      1.0000 0.61315  0.06163  0.88080  Biso   1.000  C
  C33      1.0000 0.66385  0.08699  0.83670  Biso   1.000  C
  C34      1.0000 0.68009  0.12004  0.72710  Biso   1.000  C
  H20      1.0000 0.65880  0.12630  0.67530  Biso   1.000  H
  C35      1.0000 0.72764  0.14373  0.69430  Biso   1.000  C
  H21      1.0000 0.73820  0.16640  0.61900  Biso   1.000  H
  C36      1.0000 0.74358  0.10481  0.86660  Biso   1.000  C
  H22      1.0000 0.76560  0.09920  0.91620  Biso   1.000  H
  C37      1.0000 0.69675  0.07932  0.90750  Biso   1.000  C
  H23      1.0000 0.68720  0.05690  0.98310  Biso   1.000  H
  C38      1.0000 0.54419  0.10380  0.42810  Biso   1.000  C
  C39      1.0000 0.55775  0.15095  0.41440  Biso   1.000  C
  H24      1.0000 0.55810  0.16350  0.32220  Biso   1.000  H
  C40      1.0000 0.57095  0.18044  0.53480  Biso   1.000  C
  H25      1.0000 0.58000  0.21270  0.52330  Biso   1.000  H
  C41      1.0000 0.57103  0.16318  0.67030  Biso   1.000  C
  C42      1.0000 0.55749  0.11596  0.68330  Biso   1.000  C
  H26      1.0000 0.55740  0.10350  0.77550  Biso   1.000  H
  C43      1.0000 0.54408  0.08652  0.56500  Biso   1.000  C
  H27      1.0000 0.53470  0.05420  0.57710  Biso   1.000  H
  C44      1.0000 0.58396  0.19446  0.80260  Biso   1.000  C
  H28      1.0000 0.59670  0.18260  0.87650  Biso   1.000  H
  H29      1.0000 0.60780  0.22680  0.77700  Biso   1.000  H
  H30      1.0000 0.55580  0.19410  0.83950  Biso   1.000  H
  Co1      1.0000 0.50000  0.00000  0.00000  Biso   1.000  Co
  N7       1.0000 0.19983  0.33119  0.15453  Biso   1.000  N
  N8       1.0000 0.10841  0.27658  0.26243  Biso   1.000  N
  N9       1.0000 0.90712  0.19654  0.57153  Biso   1.000  N
  C45      1.0000 0.24746  0.35838  0.12813  Biso   1.000  C
  C46      1.0000 0.25975  0.34206  0.00013  Biso   1.000  C
  H31      1.0000 0.29037  0.35483  0.95923  Biso   1.000  H
  C47      1.0000 0.21983  0.30541  0.95003  Biso   1.000  C
  H32      1.0000 0.21677  0.28743  0.86653  Biso   1.000  H
  C48      1.0000 0.18242  0.29835  0.04613  Biso   1.000  C
  C49      1.0000 0.13603  0.26129  0.03393  Biso   1.000  C
  C50      1.0000 0.10163  0.25180  0.13693  Biso   1.000  C
  C51      1.0000 0.05272  0.21535  0.12303  Biso   1.000  C
  H33      1.0000 0.03917  0.19333  0.04673  Biso   1.000  H
  C52      1.0000 0.03013  0.21865  0.23833  Biso   1.000  C
  H34      1.0000 0.99747  0.19943  0.25873  Biso   1.000  H
  C53      1.0000 0.06434  0.25660  0.32583  Biso   1.000  C
  C54      1.0000 0.05352  0.27170  0.45253  Biso   1.000  C
  C55      1.0000 0.00282  0.24634  0.49663  Biso   1.000  C
  C56      1.0000 0.98658  0.21329  0.60623  Biso   1.000  C
  H35      1.0000 0.00787  0.20703  0.65803  Biso   1.000  H
  C57      1.0000 0.93903  0.18960  0.63903  Biso   1.000  C
  H36      1.0000 0.92847  0.16693  0.71433  Biso   1.000  H
  C58      1.0000 0.92309  0.22852  0.46673  Biso   1.000  C
  H37      1.0000 0.90107  0.23413  0.41713  Biso   1.000  H
  C59      1.0000 0.96992  0.25401  0.42583  Biso   1.000  C
  H38      1.0000 0.97947  0.27643  0.35023  Biso   1.000  H
  C60      1.0000 0.12248  0.22953  0.90523  Biso   1.000  C
  C61      1.0000 0.10892  0.18238  0.91893  Biso   1.000  C
  H39      1.0000 0.10857  0.16983  0.01113  Biso   1.000  H
  C62      1.0000 0.09572  0.15289  0.79853  Biso   1.000  C
  H40      1.0000 0.08667  0.12063  0.81003  Biso   1.000  H
  C63      1.0000 0.09564  0.17015  0.66303  Biso   1.000  C
  C64      1.0000 0.10918  0.21737  0.65003  Biso   1.000  C
  H41      1.0000 0.10927  0.22983  0.55783  Biso   1.000  H
  C65      1.0000 0.12259  0.24681  0.76833  Biso   1.000  C
  H42      1.0000 0.13197  0.27913  0.75623  Biso   1.000  H
  C66      1.0000 0.08271  0.13887  0.53073  Biso   1.000  C
  H43      1.0000 0.06997  0.15073  0.45683  Biso   1.000  H
  H44      1.0000 0.05887  0.10653  0.55633  Biso   1.000  H
  H45      1.0000 0.11087  0.13923  0.49383  Biso   1.000  H
  N10      1.0000 0.13351  0.33547  0.51213  Biso   1.000  N
  N11      1.0000 0.22493  0.39008  0.40423  Biso   1.000  N
  N12      1.0000 0.42622  0.47012  0.09513  Biso   1.000  N
  C67      1.0000 0.08588  0.30828  0.53853  Biso   1.000  C
  C68      1.0000 0.07359  0.32460  0.66653  Biso   1.000  C
  H46      1.0000 0.04297  0.31183  0.70743  Biso   1.000  H
  C69      1.0000 0.11351  0.36125  0.71663  Biso   1.000  C
  H47      1.0000 0.11657  0.37923  0.80013  Biso   1.000  H
  C70      1.0000 0.15092  0.36831  0.62053  Biso   1.000  C
  C71      1.0000 0.19731  0.40537  0.63273  Biso   1.000  C
  C72      1.0000 0.23171  0.41486  0.52973  Biso   1.000  C
  C73      1.0000 0.28062  0.45131  0.54363  Biso   1.000  C
  H48      1.0000 0.29417  0.47333  0.61993  Biso   1.000  H
  C74      1.0000 0.30321  0.44801  0.42833  Biso   1.000  C
  H49      1.0000 0.33587  0.46723  0.40793  Biso   1.000  H
  C75      1.0000 0.26900  0.41006  0.34083  Biso   1.000  C
  C76      1.0000 0.27982  0.39496  0.21413  Biso   1.000  C
  C77      1.0000 0.33052  0.42032  0.17003  Biso   1.000  C
  C78      1.0000 0.34676  0.45337  0.06043  Biso   1.000  C
  H50      1.0000 0.32547  0.45963  0.00863  Biso   1.000  H
  C79      1.0000 0.39431  0.47706  0.02763  Biso   1.000  C
  H51      1.0000 0.40487  0.49973  0.95233  Biso   1.000  H
  C80      1.0000 0.41025  0.43814  0.19993  Biso   1.000  C
  H52      1.0000 0.43227  0.43253  0.24953  Biso   1.000  H
  C81      1.0000 0.36342  0.41265  0.24083  Biso   1.000  C
  H53      1.0000 0.35387  0.39023  0.31643  Biso   1.000  H
  C82      1.0000 0.21086  0.43713  0.76143  Biso   1.000  C
  C83      1.0000 0.22442  0.48428  0.74773  Biso   1.000  C
  H54      1.0000 0.22477  0.49683  0.65553  Biso   1.000  H
  C84      1.0000 0.23762  0.51377  0.86813  Biso   1.000  C
  H55      1.0000 0.24667  0.54603  0.85663  Biso   1.000  H
  C85      1.0000 0.23770  0.49651  0.00363  Biso   1.000  C
  C86      1.0000 0.22416  0.44929  0.01663  Biso   1.000  C
  H56      1.0000 0.22407  0.43683  0.10883  Biso   1.000  H
  C87      1.0000 0.21075  0.41985  0.89833  Biso   1.000  C
  H57      1.0000 0.20137  0.38753  0.91043  Biso   1.000  H
  C88      1.0000 0.25063  0.52779  0.13593  Biso   1.000  C
  H58      1.0000 0.26337  0.51593  0.20983  Biso   1.000  H
  H59      1.0000 0.27447  0.56013  0.11033  Biso   1.000  H
  H60      1.0000 0.22247  0.52743  0.17283  Biso   1.000  H
  Co2      1.0000 0.16667  0.33333  0.33333  Biso   1.000  Co
  N13      1.0000 0.86649  0.66453  0.48787  Biso   1.000  N
  N14      1.0000 0.77507  0.60992  0.59577  Biso   1.000  N
  N15      1.0000 0.57378  0.52988  0.90487  Biso   1.000  N
  C89      1.0000 0.91412  0.69172  0.46147  Biso   1.000  C
  C90      1.0000 0.92641  0.67540  0.33347  Biso   1.000  C
  H61      1.0000 0.95703  0.68817  0.29257  Biso   1.000  H
  C91      1.0000 0.88649  0.63875  0.28337  Biso   1.000  C
  H62      1.0000 0.88343  0.62077  0.19987  Biso   1.000  H
  C92      1.0000 0.84908  0.63169  0.37947  Biso   1.000  C
  C93      1.0000 0.80269  0.59463  0.36727  Biso   1.000  C
  C94      1.0000 0.76829  0.58514  0.47027  Biso   1.000  C
  C95      1.0000 0.71938  0.54869  0.45637  Biso   1.000  C
  H63      1.0000 0.70583  0.52667  0.38007  Biso   1.000  H
  C96      1.0000 0.69679  0.55199  0.57167  Biso   1.000  C
  H64      1.0000 0.66413  0.53277  0.59207  Biso   1.000  H
  C97      1.0000 0.73100  0.58994  0.65917  Biso   1.000  C
  C98      1.0000 0.72018  0.60504  0.78587  Biso   1.000  C
  C99      1.0000 0.66948  0.57968  0.82997  Biso   1.000  C
  C100     1.0000 0.65324  0.54663  0.93957  Biso   1.000  C
  H65      1.0000 0.67453  0.54037  0.99137  Biso   1.000  H
  C101     1.0000 0.60569  0.52294  0.97237  Biso   1.000  C
  H66      1.0000 0.59513  0.50027  0.04767  Biso   1.000  H
  C102     1.0000 0.58975  0.56186  0.80007  Biso   1.000  C
  H67      1.0000 0.56773  0.56747  0.75047  Biso   1.000  H
  C103     1.0000 0.63658  0.58735  0.75917  Biso   1.000  C
  H68      1.0000 0.64613  0.60977  0.68357  Biso   1.000  H
  C104     1.0000 0.78914  0.56287  0.23857  Biso   1.000  C
  C105     1.0000 0.77558  0.51572  0.25227  Biso   1.000  C
  H69      1.0000 0.77523  0.50317  0.34447  Biso   1.000  H
  C106     1.0000 0.76238  0.48623  0.13187  Biso   1.000  C
  H70      1.0000 0.75333  0.45397  0.14337  Biso   1.000  H
  C107     1.0000 0.76230  0.50349  0.99637  Biso   1.000  C
  C108     1.0000 0.77584  0.55071  0.98337  Biso   1.000  C
  H71      1.0000 0.77593  0.56317  0.89117  Biso   1.000  H
  C109     1.0000 0.78925  0.58015  0.10167  Biso   1.000  C
  H72      1.0000 0.79863  0.61247  0.08957  Biso   1.000  H
  C110     1.0000 0.74937  0.47221  0.86407  Biso   1.000  C
  H73      1.0000 0.73663  0.48407  0.79017  Biso   1.000  H
  H74      1.0000 0.72553  0.43987  0.88967  Biso   1.000  H
  H75      1.0000 0.77753  0.47257  0.82717  Biso   1.000  H
  N16      1.0000 0.80017  0.66881  0.84547  Biso   1.000  N
  N17      1.0000 0.89159  0.72342  0.73757  Biso   1.000  N
  N18      1.0000 0.09288  0.80346  0.42847  Biso   1.000  N
  C111     1.0000 0.75254  0.64162  0.87187  Biso   1.000  C
  C112     1.0000 0.74025  0.65794  0.99987  Biso   1.000  C
  H76      1.0000 0.70963  0.64517  0.04077  Biso   1.000  H
  C113     1.0000 0.78017  0.69459  0.04997  Biso   1.000  C
  H77      1.0000 0.78323  0.71257  0.13347  Biso   1.000  H
  C114     1.0000 0.81758  0.70165  0.95387  Biso   1.000  C
  C115     1.0000 0.86397  0.73871  0.96607  Biso   1.000  C
  C116     1.0000 0.89837  0.74820  0.86307  Biso   1.000  C
  C117     1.0000 0.94728  0.78465  0.87697  Biso   1.000  C
  H78      1.0000 0.96083  0.80667  0.95327  Biso   1.000  H
  C118     1.0000 0.96987  0.78135  0.76167  Biso   1.000  C
  H79      1.0000 0.00253  0.80057  0.74127  Biso   1.000  H
  C119     1.0000 0.93566  0.74340  0.67417  Biso   1.000  C
  C120     1.0000 0.94648  0.72830  0.54747  Biso   1.000  C
  C121     1.0000 0.99718  0.75366  0.50337  Biso   1.000  C
  C122     1.0000 0.01342  0.78671  0.39377  Biso   1.000  C
  H80      1.0000 0.99213  0.79297  0.34197  Biso   1.000  H
  C123     1.0000 0.06097  0.81040  0.36097  Biso   1.000  C
  H81      1.0000 0.07153  0.83307  0.28567  Biso   1.000  H
  C124     1.0000 0.07691  0.77148  0.53327  Biso   1.000  C
  H82      1.0000 0.09893  0.76587  0.58287  Biso   1.000  H
  C125     1.0000 0.03008  0.74599  0.57417  Biso   1.000  C
  H83      1.0000 0.02053  0.72357  0.64977  Biso   1.000  H
  C126     1.0000 0.87752  0.77047  0.09477  Biso   1.000  C
  C127     1.0000 0.89108  0.81762  0.08107  Biso   1.000  C
  H84      1.0000 0.89143  0.83017  0.98887  Biso   1.000  H
  C128     1.0000 0.90428  0.84711  0.20147  Biso   1.000  C
  H85      1.0000 0.91333  0.87937  0.18997  Biso   1.000  H
  C129     1.0000 0.90436  0.82985  0.33697  Biso   1.000  C
  C130     1.0000 0.89082  0.78263  0.34997  Biso   1.000  C
  H86      1.0000 0.89073  0.77017  0.44217  Biso   1.000  H
  C131     1.0000 0.87741  0.75319  0.23167  Biso   1.000  C
  H87      1.0000 0.86803  0.72087  0.24377  Biso   1.000  H
  C132     1.0000 0.91729  0.86113  0.46927  Biso   1.000  C
  H88      1.0000 0.93003  0.84927  0.54317  Biso   1.000  H
  H89      1.0000 0.94113  0.89347  0.44367  Biso   1.000  H
  H90      1.0000 0.88913  0.86077  0.50617  Biso   1.000  H
  Co3      1.0000 0.83333  0.66667  0.66667  Biso   1.000  Co
  N19      1.0000 0.00214  0.53530  0.82120  Biso   1.000  N
  N20      1.0000 0.05675  0.49849  0.92910  Biso   1.000  N
  N21      1.0000 0.13679  0.37724  0.23820  Biso   1.000  N
  C133     1.0000 0.97495  0.55574  0.79480  Biso   1.000  C
  C134     1.0000 0.99127  0.58435  0.66680  Biso   1.000  C
  H91      1.0000 0.97850  0.60220  0.62590  Biso   1.000  H
  C135     1.0000 0.02792  0.58108  0.61670  Biso   1.000  C
  H92      1.0000 0.04590  0.59600  0.53320  Biso   1.000  H
  C136     1.0000 0.03498  0.55073  0.71280  Biso   1.000  C
  C137     1.0000 0.07204  0.54140  0.70060  Biso   1.000  C
  C138     1.0000 0.08153  0.51649  0.80360  Biso   1.000  C
  C139     1.0000 0.11798  0.50403  0.78970  Biso   1.000  C
  H93      1.0000 0.14000  0.51250  0.71340  Biso   1.000  H
  C140     1.0000 0.11468  0.47814  0.90500  Biso   1.000  C
  H94      1.0000 0.13390  0.46470  0.92540  Biso   1.000  H
  C141     1.0000 0.07673  0.47440  0.99250  Biso   1.000  C
  C142     1.0000 0.06163  0.44848  0.11920  Biso   1.000  C
  C143     1.0000 0.08699  0.42314  0.16330  Biso   1.000  C
  C144     1.0000 0.12004  0.43995  0.27290  Biso   1.000  C
  H95      1.0000 0.12630  0.46750  0.32470  Biso   1.000  H
  C145     1.0000 0.14373  0.41609  0.30570  Biso   1.000  C
  H96      1.0000 0.16640  0.42820  0.38100  Biso   1.000  H
  C146     1.0000 0.10481  0.36123  0.13340  Biso   1.000  C
  H97      1.0000 0.09920  0.33360  0.08380  Biso   1.000  H
  C147     1.0000 0.07932  0.38257  0.09250  Biso   1.000  C
  H98      1.0000 0.05690  0.36970  0.01690  Biso   1.000  H
  C148     1.0000 0.10380  0.55961  0.57190  Biso   1.000  C
  C149     1.0000 0.15095  0.59320  0.58560  Biso   1.000  C
  H99      1.0000 0.16350  0.60540  0.67780  Biso   1.000  H
  C150     1.0000 0.18044  0.60949  0.46520  Biso   1.000  C
  H100     1.0000 0.21270  0.63270  0.47670  Biso   1.000  H
  C151     1.0000 0.16318  0.59215  0.32970  Biso   1.000  C
  C152     1.0000 0.11596  0.55847  0.31670  Biso   1.000  C
  H101     1.0000 0.10350  0.54610  0.22450  Biso   1.000  H
  C153     1.0000 0.08652  0.54244  0.43500  Biso   1.000  C
  H102     1.0000 0.05420  0.51950  0.42290  Biso   1.000  H
  C154     1.0000 0.19446  0.61050  0.19740  Biso   1.000  C
  H103     1.0000 0.18260  0.58590  0.12350  Biso   1.000  H
  H104     1.0000 0.22680  0.61900  0.22300  Biso   1.000  H
  H105     1.0000 0.19410  0.63830  0.16050  Biso   1.000  H
  N22      1.0000 0.99786  0.46470  0.17880  Biso   1.000  N
  N23      1.0000 0.94325  0.50151  0.07090  Biso   1.000  N
  N24      1.0000 0.86321  0.62276  0.76180  Biso   1.000  N
  C155     1.0000 0.02505  0.44426  0.20520  Biso   1.000  C
  C156     1.0000 0.00873  0.41565  0.33320  Biso   1.000  C
  H106     1.0000 0.02150  0.39780  0.37410  Biso   1.000  H
  C157     1.0000 0.97208  0.41892  0.38330  Biso   1.000  C
  H107     1.0000 0.95410  0.40400  0.46680  Biso   1.000  H
  C158     1.0000 0.96502  0.44927  0.28720  Biso   1.000  C
  C159     1.0000 0.92796  0.45860  0.29940  Biso   1.000  C
  C160     1.0000 0.91847  0.48351  0.19640  Biso   1.000  C
  C161     1.0000 0.88202  0.49597  0.21030  Biso   1.000  C
  H108     1.0000 0.86000  0.48750  0.28660  Biso   1.000  H
  C162     1.0000 0.88532  0.52186  0.09500  Biso   1.000  C
  H109     1.0000 0.86610  0.53530  0.07460  Biso   1.000  H
  C163     1.0000 0.92327  0.52560  0.00750  Biso   1.000  C
  C164     1.0000 0.93837  0.55152  0.88080  Biso   1.000  C
  C165     1.0000 0.91301  0.57686  0.83670  Biso   1.000  C
  C166     1.0000 0.87996  0.56005  0.72710  Biso   1.000  C
  H110     1.0000 0.87370  0.53250  0.67530  Biso   1.000  H
  C167     1.0000 0.85627  0.58391  0.69430  Biso   1.000  C
  H111     1.0000 0.83360  0.57180  0.61900  Biso   1.000  H
  C168     1.0000 0.89519  0.63877  0.86660  Biso   1.000  C
  H112     1.0000 0.90080  0.66640  0.91620  Biso   1.000  H
  C169     1.0000 0.92068  0.61743  0.90750  Biso   1.000  C
  H113     1.0000 0.94310  0.63030  0.98310  Biso   1.000  H
  C170     1.0000 0.89620  0.44039  0.42810  Biso   1.000  C
  C171     1.0000 0.84905  0.40680  0.41440  Biso   1.000  C
  H114     1.0000 0.83650  0.39460  0.32220  Biso   1.000  H
  C172     1.0000 0.81956  0.39051  0.53480  Biso   1.000  C
  H115     1.0000 0.78730  0.36730  0.52330  Biso   1.000  H
  C173     1.0000 0.83682  0.40785  0.67030  Biso   1.000  C
  C174     1.0000 0.88404  0.44153  0.68330  Biso   1.000  C
  H116     1.0000 0.89650  0.45390  0.77550  Biso   1.000  H
  C175     1.0000 0.91348  0.45756  0.56500  Biso   1.000  C
  H117     1.0000 0.94580  0.48050  0.57710  Biso   1.000  H
  C176     1.0000 0.80554  0.38950  0.80260  Biso   1.000  C
  H118     1.0000 0.81740  0.41410  0.87650  Biso   1.000  H
  H119     1.0000 0.77320  0.38100  0.77700  Biso   1.000  H
  H120     1.0000 0.80590  0.36170  0.83950  Biso   1.000  H
  Co4      1.0000 0.00000  0.50000  0.00000  Biso   1.000  Co
  N25      1.0000 0.66881  0.86863  0.15453  Biso   1.000  N
  N26      1.0000 0.72342  0.83182  0.26243  Biso   1.000  N
  N27      1.0000 0.80346  0.71057  0.57153  Biso   1.000  N
  C177     1.0000 0.64162  0.88907  0.12813  Biso   1.000  C
  C178     1.0000 0.65794  0.91768  0.00013  Biso   1.000  C
  H121     1.0000 0.64517  0.93553  0.95923  Biso   1.000  H
  C179     1.0000 0.69459  0.91441  0.95003  Biso   1.000  C
  H122     1.0000 0.71257  0.92933  0.86653  Biso   1.000  H
  C180     1.0000 0.70165  0.88406  0.04613  Biso   1.000  C
  C181     1.0000 0.73871  0.87473  0.03393  Biso   1.000  C
  C182     1.0000 0.74820  0.84982  0.13693  Biso   1.000  C
  C183     1.0000 0.78465  0.83736  0.12303  Biso   1.000  C
  H123     1.0000 0.80667  0.84583  0.04673  Biso   1.000  H
  C184     1.0000 0.78135  0.81147  0.23833  Biso   1.000  C
  H124     1.0000 0.80057  0.79803  0.25873  Biso   1.000  H
  C185     1.0000 0.74340  0.80773  0.32583  Biso   1.000  C
  C186     1.0000 0.72830  0.78181  0.45253  Biso   1.000  C
  C187     1.0000 0.75366  0.75647  0.49663  Biso   1.000  C
  C188     1.0000 0.78671  0.77328  0.60623  Biso   1.000  C
  H125     1.0000 0.79297  0.80083  0.65803  Biso   1.000  H
  C189     1.0000 0.81040  0.74942  0.63903  Biso   1.000  C
  H126     1.0000 0.83307  0.76153  0.71433  Biso   1.000  H
  C190     1.0000 0.77148  0.69456  0.46673  Biso   1.000  C
  H127     1.0000 0.76587  0.66693  0.41713  Biso   1.000  H
  C191     1.0000 0.74599  0.71590  0.42583  Biso   1.000  C
  H128     1.0000 0.72357  0.70303  0.35023  Biso   1.000  H
  C192     1.0000 0.77047  0.89294  0.90523  Biso   1.000  C
  C193     1.0000 0.81762  0.92653  0.91893  Biso   1.000  C
  H129     1.0000 0.83017  0.93873  0.01113  Biso   1.000  H
  C194     1.0000 0.84711  0.94282  0.79853  Biso   1.000  C
  H130     1.0000 0.87937  0.96603  0.81003  Biso   1.000  H
  C195     1.0000 0.82985  0.92548  0.66303  Biso   1.000  C
  C196     1.0000 0.78263  0.89180  0.65003  Biso   1.000  C
  H131     1.0000 0.77017  0.87943  0.55783  Biso   1.000  H
  C197     1.0000 0.75319  0.87577  0.76833  Biso   1.000  C
  H132     1.0000 0.72087  0.85283  0.75623  Biso   1.000  H
  C198     1.0000 0.86113  0.94383  0.53073  Biso   1.000  C
  H133     1.0000 0.84927  0.91923  0.45683  Biso   1.000  H
  H134     1.0000 0.89347  0.95233  0.55633  Biso   1.000  H
  H135     1.0000 0.86077  0.97163  0.49383  Biso   1.000  H
  N28      1.0000 0.66453  0.79803  0.51213  Biso   1.000  N
  N29      1.0000 0.60992  0.83484  0.40423  Biso   1.000  N
  N30      1.0000 0.52988  0.95609  0.09513  Biso   1.000  N
  C199     1.0000 0.69172  0.77759  0.53853  Biso   1.000  C
  C200     1.0000 0.67540  0.74898  0.66653  Biso   1.000  C
  H136     1.0000 0.68817  0.73113  0.70743  Biso   1.000  H
  C201     1.0000 0.63875  0.75225  0.71663  Biso   1.000  C
  H137     1.0000 0.62077  0.73733  0.80013  Biso   1.000  H
  C202     1.0000 0.63169  0.78260  0.62053  Biso   1.000  C
  C203     1.0000 0.59463  0.79193  0.63273  Biso   1.000  C
  C204     1.0000 0.58514  0.81684  0.52973  Biso   1.000  C
  C205     1.0000 0.54869  0.82930  0.54363  Biso   1.000  C
  H138     1.0000 0.52667  0.82083  0.61993  Biso   1.000  H
  C206     1.0000 0.55199  0.85519  0.42833  Biso   1.000  C
  H139     1.0000 0.53277  0.86863  0.40793  Biso   1.000  H
  C207     1.0000 0.58994  0.85893  0.34083  Biso   1.000  C
  C208     1.0000 0.60504  0.88485  0.21413  Biso   1.000  C
  C209     1.0000 0.57968  0.91019  0.17003  Biso   1.000  C
  C210     1.0000 0.54663  0.89338  0.06043  Biso   1.000  C
  H140     1.0000 0.54037  0.86583  0.00863  Biso   1.000  H
  C211     1.0000 0.52294  0.91724  0.02763  Biso   1.000  C
  H141     1.0000 0.50027  0.90513  0.95233  Biso   1.000  H
  C212     1.0000 0.56186  0.97210  0.19993  Biso   1.000  C
  H142     1.0000 0.56747  0.99973  0.24953  Biso   1.000  H
  C213     1.0000 0.58735  0.95076  0.24083  Biso   1.000  C
  H143     1.0000 0.60977  0.96363  0.31643  Biso   1.000  H
  C214     1.0000 0.56287  0.77372  0.76143  Biso   1.000  C
  C215     1.0000 0.51572  0.74013  0.74773  Biso   1.000  C
  H144     1.0000 0.50317  0.72793  0.65553  Biso   1.000  H
  C216     1.0000 0.48623  0.72384  0.86813  Biso   1.000  C
  H145     1.0000 0.45397  0.70063  0.85663  Biso   1.000  H
  C217     1.0000 0.50349  0.74118  0.00363  Biso   1.000  C
  C218     1.0000 0.55071  0.77486  0.01663  Biso   1.000  C
  H146     1.0000 0.56317  0.78723  0.10883  Biso   1.000  H
  C219     1.0000 0.58015  0.79089  0.89833  Biso   1.000  C
  H147     1.0000 0.61247  0.81383  0.91043  Biso   1.000  H
  C220     1.0000 0.47221  0.72283  0.13593  Biso   1.000  C
  H148     1.0000 0.48407  0.74743  0.20983  Biso   1.000  H
  H149     1.0000 0.43987  0.71433  0.11033  Biso   1.000  H
  H150     1.0000 0.47257  0.69503  0.17283  Biso   1.000  H
  Co5      1.0000 0.66667  0.83333  0.33333  Biso   1.000  Co
  N31      1.0000 0.33547  0.20197  0.48787  Biso   1.000  N
  N32      1.0000 0.39008  0.16516  0.59577  Biso   1.000  N
  N33      1.0000 0.47012  0.04391  0.90487  Biso   1.000  N
  C221     1.0000 0.30828  0.22241  0.46147  Biso   1.000  C
  C222     1.0000 0.32460  0.25102  0.33347  Biso   1.000  C
  H151     1.0000 0.31183  0.26887  0.29257  Biso   1.000  H
  C223     1.0000 0.36125  0.24775  0.28337  Biso   1.000  C
  H152     1.0000 0.37923  0.26267  0.19987  Biso   1.000  H
  C224     1.0000 0.36831  0.21740  0.37947  Biso   1.000  C
  C225     1.0000 0.40537  0.20807  0.36727  Biso   1.000  C
  C226     1.0000 0.41486  0.18316  0.47027  Biso   1.000  C
  C227     1.0000 0.45131  0.17070  0.45637  Biso   1.000  C
  H153     1.0000 0.47333  0.17917  0.38007  Biso   1.000  H
  C228     1.0000 0.44801  0.14481  0.57167  Biso   1.000  C
  H154     1.0000 0.46723  0.13137  0.59207  Biso   1.000  H
  C229     1.0000 0.41006  0.14107  0.65917  Biso   1.000  C
  C230     1.0000 0.39496  0.11515  0.78587  Biso   1.000  C
  C231     1.0000 0.42032  0.08981  0.82997  Biso   1.000  C
  C232     1.0000 0.45337  0.10662  0.93957  Biso   1.000  C
  H155     1.0000 0.45963  0.13417  0.99137  Biso   1.000  H
  C233     1.0000 0.47706  0.08276  0.97237  Biso   1.000  C
  H156     1.0000 0.49973  0.09487  0.04767  Biso   1.000  H
  C234     1.0000 0.43814  0.02790  0.80007  Biso   1.000  C
  H157     1.0000 0.43253  0.00027  0.75047  Biso   1.000  H
  C235     1.0000 0.41265  0.04924  0.75917  Biso   1.000  C
  H158     1.0000 0.39023  0.03637  0.68357  Biso   1.000  H
  C236     1.0000 0.43713  0.22628  0.23857  Biso   1.000  C
  C237     1.0000 0.48428  0.25987  0.25227  Biso   1.000  C
  H159     1.0000 0.49683  0.27207  0.34447  Biso   1.000  H
  C238     1.0000 0.51377  0.27616  0.13187  Biso   1.000  C
  H160     1.0000 0.54603  0.29937  0.14337  Biso   1.000  H
  C239     1.0000 0.49651  0.25882  0.99637  Biso   1.000  C
  C240     1.0000 0.44929  0.22514  0.98337  Biso   1.000  C
  H161     1.0000 0.43683  0.21277  0.89117  Biso   1.000  H
  C241     1.0000 0.41985  0.20911  0.10167  Biso   1.000  C
  H162     1.0000 0.38753  0.18617  0.08957  Biso   1.000  H
  C242     1.0000 0.52779  0.27717  0.86407  Biso   1.000  C
  H163     1.0000 0.51593  0.25257  0.79017  Biso   1.000  H
  H164     1.0000 0.56013  0.28567  0.88967  Biso   1.000  H
  H165     1.0000 0.52743  0.30497  0.82717  Biso   1.000  H
  N34      1.0000 0.33119  0.13137  0.84547  Biso   1.000  N
  N35      1.0000 0.27658  0.16818  0.73757  Biso   1.000  N
  N36      1.0000 0.19654  0.28943  0.42847  Biso   1.000  N
  C243     1.0000 0.35838  0.11093  0.87187  Biso   1.000  C
  C244     1.0000 0.34206  0.08232  0.99987  Biso   1.000  C
  H166     1.0000 0.35483  0.06447  0.04077  Biso   1.000  H
  C245     1.0000 0.30541  0.08559  0.04997  Biso   1.000  C
  H167     1.0000 0.28743  0.07067  0.13347  Biso   1.000  H
  C246     1.0000 0.29835  0.11594  0.95387  Biso   1.000  C
  C247     1.0000 0.26129  0.12527  0.96607  Biso   1.000  C
  C248     1.0000 0.25180  0.15018  0.86307  Biso   1.000  C
  C249     1.0000 0.21535  0.16264  0.87697  Biso   1.000  C
  H168     1.0000 0.19333  0.15417  0.95327  Biso   1.000  H
  C250     1.0000 0.21865  0.18853  0.76167  Biso   1.000  C
  H169     1.0000 0.19943  0.20197  0.74127  Biso   1.000  H
  C251     1.0000 0.25660  0.19227  0.67417  Biso   1.000  C
  C252     1.0000 0.27170  0.21819  0.54747  Biso   1.000  C
  C253     1.0000 0.24634  0.24353  0.50337  Biso   1.000  C
  C254     1.0000 0.21329  0.22672  0.39377  Biso   1.000  C
  H170     1.0000 0.20703  0.19917  0.34197  Biso   1.000  H
  C255     1.0000 0.18960  0.25058  0.36097  Biso   1.000  C
  H171     1.0000 0.16693  0.23847  0.28567  Biso   1.000  H
  C256     1.0000 0.22852  0.30544  0.53327  Biso   1.000  C
  H172     1.0000 0.23413  0.33307  0.58287  Biso   1.000  H
  C257     1.0000 0.25401  0.28410  0.57417  Biso   1.000  C
  H173     1.0000 0.27643  0.29697  0.64977  Biso   1.000  H
  C258     1.0000 0.22953  0.10706  0.09477  Biso   1.000  C
  C259     1.0000 0.18238  0.07347  0.08107  Biso   1.000  C
  H174     1.0000 0.16983  0.06127  0.98887  Biso   1.000  H
  C260     1.0000 0.15289  0.05718  0.20147  Biso   1.000  C
  H175     1.0000 0.12063  0.03397  0.18997  Biso   1.000  H
  C261     1.0000 0.17015  0.07452  0.33697  Biso   1.000  C
  C262     1.0000 0.21737  0.10820  0.34997  Biso   1.000  C
  H176     1.0000 0.22983  0.12057  0.44217  Biso   1.000  H
  C263     1.0000 0.24681  0.12423  0.23167  Biso   1.000  C
  H177     1.0000 0.27913  0.14717  0.24377  Biso   1.000  H
  C264     1.0000 0.13887  0.05617  0.46927  Biso   1.000  C
  H178     1.0000 0.15073  0.08077  0.54317  Biso   1.000  H
  H179     1.0000 0.10653  0.04767  0.44367  Biso   1.000  H
  H180     1.0000 0.13923  0.02837  0.50617  Biso   1.000  H
  Co6      1.0000 0.33333  0.16667  0.66667  Biso   1.000  Co
  N37      1.0000 0.46470  0.46684  0.82120  Biso   1.000  N
  N38      1.0000 0.50151  0.55826  0.92910  Biso   1.000  N
  N39      1.0000 0.62276  0.75955  0.23820  Biso   1.000  N
  C265     1.0000 0.44426  0.41921  0.79480  Biso   1.000  C
  C266     1.0000 0.41565  0.40692  0.66680  Biso   1.000  C
  H181     1.0000 0.39780  0.37630  0.62590  Biso   1.000  H
  C267     1.0000 0.41892  0.44684  0.61670  Biso   1.000  C
  H182     1.0000 0.40400  0.44990  0.53320  Biso   1.000  H
  C268     1.0000 0.44927  0.48425  0.71280  Biso   1.000  C
  C269     1.0000 0.45860  0.53064  0.70060  Biso   1.000  C
  C270     1.0000 0.48351  0.56504  0.80360  Biso   1.000  C
  C271     1.0000 0.49597  0.61395  0.78970  Biso   1.000  C
  H183     1.0000 0.48750  0.62750  0.71340  Biso   1.000  H
  C272     1.0000 0.52186  0.63654  0.90500  Biso   1.000  C
  H184     1.0000 0.53530  0.66920  0.92540  Biso   1.000  H
  C273     1.0000 0.52560  0.60233  0.99250  Biso   1.000  C
  C274     1.0000 0.55152  0.61315  0.11920  Biso   1.000  C
  C275     1.0000 0.57686  0.66385  0.16330  Biso   1.000  C
  C276     1.0000 0.56005  0.68009  0.27290  Biso   1.000  C
  H185     1.0000 0.53250  0.65880  0.32470  Biso   1.000  H
  C277     1.0000 0.58391  0.72764  0.30570  Biso   1.000  C
  H186     1.0000 0.57180  0.73820  0.38100  Biso   1.000  H
  C278     1.0000 0.63877  0.74358  0.13340  Biso   1.000  C
  H187     1.0000 0.66640  0.76560  0.08380  Biso   1.000  H
  C279     1.0000 0.61743  0.69675  0.09250  Biso   1.000  C
  H188     1.0000 0.63030  0.68720  0.01690  Biso   1.000  H
  C280     1.0000 0.44039  0.54419  0.57190  Biso   1.000  C
  C281     1.0000 0.40680  0.55775  0.58560  Biso   1.000  C
  H189     1.0000 0.39460  0.55810  0.67780  Biso   1.000  H
  C282     1.0000 0.39051  0.57095  0.46520  Biso   1.000  C
  H190     1.0000 0.36730  0.58000  0.47670  Biso   1.000  H
  C283     1.0000 0.40785  0.57103  0.32970  Biso   1.000  C
  C284     1.0000 0.44153  0.55749  0.31670  Biso   1.000  C
  H191     1.0000 0.45390  0.55740  0.22450  Biso   1.000  H
  C285     1.0000 0.45756  0.54408  0.43500  Biso   1.000  C
  H192     1.0000 0.48050  0.53470  0.42290  Biso   1.000  H
  C286     1.0000 0.38950  0.58396  0.19740  Biso   1.000  C
  H193     1.0000 0.41410  0.59670  0.12350  Biso   1.000  H
  H194     1.0000 0.38100  0.60780  0.22300  Biso   1.000  H
  H195     1.0000 0.36170  0.55580  0.16050  Biso   1.000  H
  N40      1.0000 0.53530  0.53316  0.17880  Biso   1.000  N
  N41      1.0000 0.49849  0.44174  0.07090  Biso   1.000  N
  N42      1.0000 0.37724  0.24045  0.76180  Biso   1.000  N
  C287     1.0000 0.55574  0.58079  0.20520  Biso   1.000  C
  C288     1.0000 0.58435  0.59308  0.33320  Biso   1.000  C
  H196     1.0000 0.60220  0.62370  0.37410  Biso   1.000  H
  C289     1.0000 0.58108  0.55316  0.38330  Biso   1.000  C
  H197     1.0000 0.59600  0.55010  0.46680  Biso   1.000  H
  C290     1.0000 0.55073  0.51575  0.28720  Biso   1.000  C
  C291     1.0000 0.54140  0.46936  0.29940  Biso   1.000  C
  C292     1.0000 0.51649  0.43496  0.19640  Biso   1.000  C
  C293     1.0000 0.50403  0.38605  0.21030  Biso   1.000  C
  H198     1.0000 0.51250  0.37250  0.28660  Biso   1.000  H
  C294     1.0000 0.47814  0.36346  0.09500  Biso   1.000  C
  H199     1.0000 0.46470  0.33080  0.07460  Biso   1.000  H
  C295     1.0000 0.47440  0.39767  0.00750  Biso   1.000  C
  C296     1.0000 0.44848  0.38685  0.88080  Biso   1.000  C
  C297     1.0000 0.42314  0.33615  0.83670  Biso   1.000  C
  C298     1.0000 0.43995  0.31991  0.72710  Biso   1.000  C
  H200     1.0000 0.46750  0.34120  0.67530  Biso   1.000  H
  C299     1.0000 0.41609  0.27236  0.69430  Biso   1.000  C
  H201     1.0000 0.42820  0.26180  0.61900  Biso   1.000  H
  C300     1.0000 0.36123  0.25642  0.86660  Biso   1.000  C
  H202     1.0000 0.33360  0.23440  0.91620  Biso   1.000  H
  C301     1.0000 0.38257  0.30325  0.90750  Biso   1.000  C
  H203     1.0000 0.36970  0.31280  0.98310  Biso   1.000  H
  C302     1.0000 0.55961  0.45581  0.42810  Biso   1.000  C
  C303     1.0000 0.59320  0.44225  0.41440  Biso   1.000  C
  H204     1.0000 0.60540  0.44190  0.32220  Biso   1.000  H
  C304     1.0000 0.60949  0.42905  0.53480  Biso   1.000  C
  H205     1.0000 0.63270  0.42000  0.52330  Biso   1.000  H
  C305     1.0000 0.59215  0.42897  0.67030  Biso   1.000  C
  C306     1.0000 0.55847  0.44251  0.68330  Biso   1.000  C
  H206     1.0000 0.54610  0.44260  0.77550  Biso   1.000  H
  C307     1.0000 0.54244  0.45592  0.56500  Biso   1.000  C
  H207     1.0000 0.51950  0.46530  0.57710  Biso   1.000  H
  C308     1.0000 0.61050  0.41604  0.80260  Biso   1.000  C
  H208     1.0000 0.58590  0.40330  0.87650  Biso   1.000  H
  H209     1.0000 0.61900  0.39220  0.77700  Biso   1.000  H
  H210     1.0000 0.63830  0.44420  0.83950  Biso   1.000  H
  Co7      1.0000 0.50000  0.50000  0.00000  Biso   1.000  Co
  N43      1.0000 0.13137  0.80017  0.15453  Biso   1.000  N
  N44      1.0000 0.16818  0.89159  0.26243  Biso   1.000  N
  N45      1.0000 0.28943  0.09288  0.57153  Biso   1.000  N
  C309     1.0000 0.11093  0.75254  0.12813  Biso   1.000  C
  C310     1.0000 0.08232  0.74025  0.00013  Biso   1.000  C
  H211     1.0000 0.06447  0.70963  0.95923  Biso   1.000  H
  C311     1.0000 0.08559  0.78017  0.95003  Biso   1.000  C
  H212     1.0000 0.07067  0.78323  0.86653  Biso   1.000  H
  C312     1.0000 0.11594  0.81758  0.04613  Biso   1.000  C
  C313     1.0000 0.12527  0.86397  0.03393  Biso   1.000  C
  C314     1.0000 0.15018  0.89837  0.13693  Biso   1.000  C
  C315     1.0000 0.16264  0.94728  0.12303  Biso   1.000  C
  H213     1.0000 0.15417  0.96083  0.04673  Biso   1.000  H
  C316     1.0000 0.18853  0.96987  0.23833  Biso   1.000  C
  H214     1.0000 0.20197  0.00253  0.25873  Biso   1.000  H
  C317     1.0000 0.19227  0.93566  0.32583  Biso   1.000  C
  C318     1.0000 0.21819  0.94648  0.45253  Biso   1.000  C
  C319     1.0000 0.24353  0.99718  0.49663  Biso   1.000  C
  C320     1.0000 0.22672  0.01342  0.60623  Biso   1.000  C
  H215     1.0000 0.19917  0.99213  0.65803  Biso   1.000  H
  C321     1.0000 0.25058  0.06097  0.63903  Biso   1.000  C
  H216     1.0000 0.23847  0.07153  0.71433  Biso   1.000  H
  C322     1.0000 0.30544  0.07691  0.46673  Biso   1.000  C
  H217     1.0000 0.33307  0.09893  0.41713  Biso   1.000  H
  C323     1.0000 0.28410  0.03008  0.42583  Biso   1.000  C
  H218     1.0000 0.29697  0.02053  0.35023  Biso   1.000  H
  C324     1.0000 0.10706  0.87752  0.90523  Biso   1.000  C
  C325     1.0000 0.07347  0.89108  0.91893  Biso   1.000  C
  H219     1.0000 0.06127  0.89143  0.01113  Biso   1.000  H
  C326     1.0000 0.05718  0.90428  0.79853  Biso   1.000  C
  H220     1.0000 0.03397  0.91333  0.81003  Biso   1.000  H
  C327     1.0000 0.07452  0.90436  0.66303  Biso   1.000  C
  C328     1.0000 0.10820  0.89082  0.65003  Biso   1.000  C
  H221     1.0000 0.12057  0.89073  0.55783  Biso   1.000  H
  C329     1.0000 0.12423  0.87741  0.76833  Biso   1.000  C
  H222     1.0000 0.14717  0.86803  0.75623  Biso   1.000  H
  C330     1.0000 0.05617  0.91729  0.53073  Biso   1.000  C
  H223     1.0000 0.08077  0.93003  0.45683  Biso   1.000  H
  H224     1.0000 0.04767  0.94113  0.55633  Biso   1.000  H
  H225     1.0000 0.02837  0.88913  0.49383  Biso   1.000  H
  N46      1.0000 0.20197  0.86649  0.51213  Biso   1.000  N
  N47      1.0000 0.16516  0.77507  0.40423  Biso   1.000  N
  N48      1.0000 0.04391  0.57378  0.09513  Biso   1.000  N
  C331     1.0000 0.22241  0.91412  0.53853  Biso   1.000  C
  C332     1.0000 0.25102  0.92641  0.66653  Biso   1.000  C
  H226     1.0000 0.26887  0.95703  0.70743  Biso   1.000  H
  C333     1.0000 0.24775  0.88649  0.71663  Biso   1.000  C
  H227     1.0000 0.26267  0.88343  0.80013  Biso   1.000  H
  C334     1.0000 0.21740  0.84908  0.62053  Biso   1.000  C
  C335     1.0000 0.20807  0.80269  0.63273  Biso   1.000  C
  C336     1.0000 0.18316  0.76829  0.52973  Biso   1.000  C
  C337     1.0000 0.17070  0.71938  0.54363  Biso   1.000  C
  H228     1.0000 0.17917  0.70583  0.61993  Biso   1.000  H
  C338     1.0000 0.14481  0.69679  0.42833  Biso   1.000  C
  H229     1.0000 0.13137  0.66413  0.40793  Biso   1.000  H
  C339     1.0000 0.14107  0.73100  0.34083  Biso   1.000  C
  C340     1.0000 0.11515  0.72018  0.21413  Biso   1.000  C
  C341     1.0000 0.08981  0.66948  0.17003  Biso   1.000  C
  C342     1.0000 0.10662  0.65324  0.06043  Biso   1.000  C
  H230     1.0000 0.13417  0.67453  0.00863  Biso   1.000  H
  C343     1.0000 0.08276  0.60569  0.02763  Biso   1.000  C
  H231     1.0000 0.09487  0.59513  0.95233  Biso   1.000  H
  C344     1.0000 0.02790  0.58975  0.19993  Biso   1.000  C
  H232     1.0000 0.00027  0.56773  0.24953  Biso   1.000  H
  C345     1.0000 0.04924  0.63658  0.24083  Biso   1.000  C
  H233     1.0000 0.03637  0.64613  0.31643  Biso   1.000  H
  C346     1.0000 0.22628  0.78914  0.76143  Biso   1.000  C
  C347     1.0000 0.25987  0.77558  0.74773  Biso   1.000  C
  H234     1.0000 0.27207  0.77523  0.65553  Biso   1.000  H
  C348     1.0000 0.27616  0.76238  0.86813  Biso   1.000  C
  H235     1.0000 0.29937  0.75333  0.85663  Biso   1.000  H
  C349     1.0000 0.25882  0.76230  0.00363  Biso   1.000  C
  C350     1.0000 0.22514  0.77584  0.01663  Biso   1.000  C
  H236     1.0000 0.21277  0.77593  0.10883  Biso   1.000  H
  C351     1.0000 0.20911  0.78925  0.89833  Biso   1.000  C
  H237     1.0000 0.18617  0.79863  0.91043  Biso   1.000  H
  C352     1.0000 0.27717  0.74937  0.13593  Biso   1.000  C
  H238     1.0000 0.25257  0.73663  0.20983  Biso   1.000  H
  H239     1.0000 0.28567  0.72553  0.11033  Biso   1.000  H
  H240     1.0000 0.30497  0.77753  0.17283  Biso   1.000  H
  Co8      1.0000 0.16667  0.83333  0.33333  Biso   1.000  Co
  N49      1.0000 0.79803  0.13351  0.48787  Biso   1.000  N
  N50      1.0000 0.83484  0.22493  0.59577  Biso   1.000  N
  N51      1.0000 0.95609  0.42622  0.90487  Biso   1.000  N
  C353     1.0000 0.77759  0.08588  0.46147  Biso   1.000  C
  C354     1.0000 0.74898  0.07359  0.33347  Biso   1.000  C
  H241     1.0000 0.73113  0.04297  0.29257  Biso   1.000  H
  C355     1.0000 0.75225  0.11351  0.28337  Biso   1.000  C
  H242     1.0000 0.73733  0.11657  0.19987  Biso   1.000  H
  C356     1.0000 0.78260  0.15092  0.37947  Biso   1.000  C
  C357     1.0000 0.79193  0.19731  0.36727  Biso   1.000  C
  C358     1.0000 0.81684  0.23171  0.47027  Biso   1.000  C
  C359     1.0000 0.82930  0.28062  0.45637  Biso   1.000  C
  H243     1.0000 0.82083  0.29417  0.38007  Biso   1.000  H
  C360     1.0000 0.85519  0.30321  0.57167  Biso   1.000  C
  H244     1.0000 0.86863  0.33587  0.59207  Biso   1.000  H
  C361     1.0000 0.85893  0.26900  0.65917  Biso   1.000  C
  C362     1.0000 0.88485  0.27982  0.78587  Biso   1.000  C
  C363     1.0000 0.91019  0.33052  0.82997  Biso   1.000  C
  C364     1.0000 0.89338  0.34676  0.93957  Biso   1.000  C
  H245     1.0000 0.86583  0.32547  0.99137  Biso   1.000  H
  C365     1.0000 0.91724  0.39431  0.97237  Biso   1.000  C
  H246     1.0000 0.90513  0.40487  0.04767  Biso   1.000  H
  C366     1.0000 0.97210  0.41025  0.80007  Biso   1.000  C
  H247     1.0000 0.99973  0.43227  0.75047  Biso   1.000  H
  C367     1.0000 0.95076  0.36342  0.75917  Biso   1.000  C
  H248     1.0000 0.96363  0.35387  0.68357  Biso   1.000  H
  C368     1.0000 0.77372  0.21086  0.23857  Biso   1.000  C
  C369     1.0000 0.74013  0.22442  0.25227  Biso   1.000  C
  H249     1.0000 0.72793  0.22477  0.34447  Biso   1.000  H
  C370     1.0000 0.72384  0.23762  0.13187  Biso   1.000  C
  H250     1.0000 0.70063  0.24667  0.14337  Biso   1.000  H
  C371     1.0000 0.74118  0.23770  0.99637  Biso   1.000  C
  C372     1.0000 0.77486  0.22416  0.98337  Biso   1.000  C
  H251     1.0000 0.78723  0.22407  0.89117  Biso   1.000  H
  C373     1.0000 0.79089  0.21075  0.10167  Biso   1.000  C
  H252     1.0000 0.81383  0.20137  0.08957  Biso   1.000  H
  C374     1.0000 0.72283  0.25063  0.86407  Biso   1.000  C
  H253     1.0000 0.74743  0.26337  0.79017  Biso   1.000  H
  H254     1.0000 0.71433  0.27447  0.88967  Biso   1.000  H
  H255     1.0000 0.69503  0.22247  0.82717  Biso   1.000  H
  N52      1.0000 0.86863  0.19983  0.84547  Biso   1.000  N
  N53      1.0000 0.83182  0.10841  0.73757  Biso   1.000  N
  N54      1.0000 0.71057  0.90712  0.42847  Biso   1.000  N
  C375     1.0000 0.88907  0.24746  0.87187  Biso   1.000  C
  C376     1.0000 0.91768  0.25975  0.99987  Biso   1.000  C
  H256     1.0000 0.93553  0.29037  0.04077  Biso   1.000  H
  C377     1.0000 0.91441  0.21983  0.04997  Biso   1.000  C
  H257     1.0000 0.92933  0.21677  0.13347  Biso   1.000  H
  C378     1.0000 0.88406  0.18242  0.95387  Biso   1.000  C
  C379     1.0000 0.87473  0.13603  0.96607  Biso   1.000  C
  C380     1.0000 0.84982  0.10163  0.86307  Biso   1.000  C
  C381     1.0000 0.83736  0.05272  0.87697  Biso   1.000  C
  H258     1.0000 0.84583  0.03917  0.95327  Biso   1.000  H
  C382     1.0000 0.81147  0.03013  0.76167  Biso   1.000  C
  H259     1.0000 0.79803  0.99747  0.74127  Biso   1.000  H
  C383     1.0000 0.80773  0.06434  0.67417  Biso   1.000  C
  C384     1.0000 0.78181  0.05352  0.54747  Biso   1.000  C
  C385     1.0000 0.75647  0.00282  0.50337  Biso   1.000  C
  C386     1.0000 0.77328  0.98658  0.39377  Biso   1.000  C
  H260     1.0000 0.80083  0.00787  0.34197  Biso   1.000  H
  C387     1.0000 0.74942  0.93903  0.36097  Biso   1.000  C
  H261     1.0000 0.76153  0.92847  0.28567  Biso   1.000  H
  C388     1.0000 0.69456  0.92309  0.53327  Biso   1.000  C
  H262     1.0000 0.66693  0.90107  0.58287  Biso   1.000  H
  C389     1.0000 0.71590  0.96992  0.57417  Biso   1.000  C
  H263     1.0000 0.70303  0.97947  0.64977  Biso   1.000  H
  C390     1.0000 0.89294  0.12248  0.09477  Biso   1.000  C
  C391     1.0000 0.92653  0.10892  0.08107  Biso   1.000  C
  H264     1.0000 0.93873  0.10857  0.98887  Biso   1.000  H
  C392     1.0000 0.94282  0.09572  0.20147  Biso   1.000  C
  H265     1.0000 0.96603  0.08667  0.18997  Biso   1.000  H
  C393     1.0000 0.92548  0.09564  0.33697  Biso   1.000  C
  C394     1.0000 0.89180  0.10918  0.34997  Biso   1.000  C
  H266     1.0000 0.87943  0.10927  0.44217  Biso   1.000  H
  C395     1.0000 0.87577  0.12259  0.23167  Biso   1.000  C
  H267     1.0000 0.85283  0.13197  0.24377  Biso   1.000  H
  C396     1.0000 0.94383  0.08271  0.46927  Biso   1.000  C
  H268     1.0000 0.91923  0.06997  0.54317  Biso   1.000  H
  H269     1.0000 0.95233  0.05887  0.44367  Biso   1.000  H
  H270     1.0000 0.97163  0.11087  0.50617  Biso   1.000  H
  Co9      1.0000 0.83333  0.16667  0.66667  Biso   1.000  Co
