data_image0
_cell_length_a       28.7051
_cell_length_b       28.7051
_cell_length_c       35.1997
_cell_angle_alpha    90
_cell_angle_beta     90
_cell_angle_gamma    120

_symmetry_space_group_name_H-M    "P 1"
_symmetry_int_tables_number       1

loop_
  _symmetry_equiv_pos_as_xyz
  'x, y, z'

loop_
  _atom_site_label
  _atom_site_occupancy
  _atom_site_fract_x
  _atom_site_fract_y
  _atom_site_fract_z
  _atom_site_thermal_displace_type
  _atom_site_B_iso_or_equiv
  _atom_site_type_symbol
  Eu1      1.0000 0.28334  0.45440  0.47450  Biso   1.000  Eu
  Eu2      1.0000 0.14264  0.52303  0.37746  Biso   1.000  Eu
  Eu3      1.0000 0.38416  0.49039  0.63594  Biso   1.000  Eu
  Eu4      1.0000 0.14887  0.46341  0.20556  Biso   1.000  Eu
  O1       1.0000 0.31693  0.47467  0.53936  Biso   1.000  O
  O2       1.0000 0.32788  0.51428  0.59606  Biso   1.000  O
  O3       1.0000 0.22194  0.47962  0.44556  Biso   1.000  O
  O4       1.0000 0.18120  0.52862  0.44167  Biso   1.000  O
  N1       1.0000 0.25424  0.50996  0.51469  Biso   1.000  N
  C1       1.0000 0.27090  0.52186  0.55091  Biso   1.000  C
  C2       1.0000 0.25470  0.55040  0.57469  Biso   1.000  C
  C3       1.0000 0.21920  0.56560  0.55982  Biso   1.000  C
  C4       1.0000 0.20209  0.55360  0.52240  Biso   1.000  C
  C5       1.0000 0.22103  0.52599  0.50052  Biso   1.000  C
  C6       1.0000 0.30824  0.50250  0.56356  Biso   1.000  C
  C7       1.0000 0.20669  0.51088  0.45949  Biso   1.000  C
  O5       1.0000 0.15591  0.51326  0.31021  Biso   1.000  O
  O6       1.0000 0.16422  0.53817  0.24908  Biso   1.000  O
  O7       1.0000 0.15667  0.60504  0.40796  Biso   1.000  O
  O8       1.0000 0.30955  0.48376  0.40773  Biso   1.000  O
  N2       1.0000 0.17021  0.60482  0.33445  Biso   1.000  N
  C8       1.0000 0.17755  0.60240  0.29702  Biso   1.000  C
  C9       1.0000 0.19580  0.64700  0.27332  Biso   1.000  C
  C10      1.0000 0.20510  0.69520  0.28907  Biso   1.000  C
  C11      1.0000 0.19640  0.69780  0.32765  Biso   1.000  C
  C12      1.0000 0.17929  0.65171  0.34960  Biso   1.000  C
  C13      1.0000 0.16515  0.54728  0.28376  Biso   1.000  C
  C14      1.0000 0.16936  0.64947  0.39157  Biso   1.000  C
  O9       1.0000 0.29882  0.46413  0.66727  Biso   1.000  O
  O10      1.0000 0.48277  0.55330  0.64026  Biso   1.000  O
  O11      1.0000 0.42953  0.43821  0.63507  Biso   1.000  O
  O12      1.0000 0.07095  0.43515  0.35310  Biso   1.000  O
  N3       1.0000 0.33600  0.39850  0.66850  Biso   1.000  N
  C15      1.0000 0.28839  0.38049  0.68621  Biso   1.000  C
  C16      1.0000 0.26260  0.33210  0.70615  Biso   1.000  C
  C17      1.0000 0.28700  0.30090  0.70703  Biso   1.000  C
  C18      1.0000 0.33590  0.31840  0.68858  Biso   1.000  C
  C19      1.0000 0.35938  0.36760  0.66958  Biso   1.000  C
  C20      1.0000 0.26671  0.41868  0.68225  Biso   1.000  C
  C21      1.0000 0.41200  0.39140  0.64915  Biso   1.000  C
  O13      1.0000 0.13277  0.52690  0.17040  Biso   1.000  O
  O14      1.0000 0.20971  0.42543  0.20825  Biso   1.000  O
  O15      1.0000 0.09844  0.36601  0.19847  Biso   1.000  O
  O16      1.0000 0.28957  0.37683  0.49964  Biso   1.000  O
  N4       1.0000 0.07474  0.42422  0.15503  Biso   1.000  N
  C22      1.0000 0.06317  0.45708  0.13484  Biso   1.000  C
  C23      1.0000 0.02120  0.43760  0.10825  Biso   1.000  C
  C24      1.0000 0.99090  0.38190  0.10286  Biso   1.000  C
  C25      1.0000 0.00270  0.34810  0.12360  Biso   1.000  C
  C26      1.0000 0.04520  0.37059  0.14926  Biso   1.000  C
  C27      1.0000 0.09847  0.51558  0.14397  Biso   1.000  C
  C28      1.0000 0.06329  0.33901  0.17324  Biso   1.000  C
  H1       1.0000 0.26838  0.55972  0.60083  Biso   1.000  H
  H2       1.0000 0.20613  0.58432  0.57607  Biso   1.000  H
  H3       1.0000 0.17746  0.56452  0.51162  Biso   1.000  H
  H4       1.0000 0.20170  0.64420  0.24611  Biso   1.000  H
  H5       1.0000 0.21802  0.72738  0.27307  Biso   1.000  H
  H6       1.0000 0.20207  0.73135  0.33918  Biso   1.000  H
  H7       1.0000 0.22821  0.32033  0.71891  Biso   1.000  H
  H8       1.0000 0.27005  0.26673  0.72091  Biso   1.000  H
  H9       1.0000 0.35323  0.29643  0.68857  Biso   1.000  H
  H10      1.0000 0.01356  0.46209  0.09371  Biso   1.000  H
  H11      1.0000 0.96106  0.36698  0.08461  Biso   1.000  H
  H12      1.0000 0.98152  0.30893  0.12011  Biso   1.000  H
  Eu5      1.0000 0.95001  0.78773  0.80783  Biso   1.000  Eu
  Eu6      1.0000 0.80931  0.85636  0.71079  Biso   1.000  Eu
  Eu7      1.0000 0.05083  0.82372  0.96927  Biso   1.000  Eu
  Eu8      1.0000 0.81554  0.79675  0.53890  Biso   1.000  Eu
  O17      1.0000 0.98360  0.80800  0.87269  Biso   1.000  O
  O18      1.0000 0.99455  0.84761  0.92939  Biso   1.000  O
  O19      1.0000 0.88861  0.81295  0.77889  Biso   1.000  O
  O20      1.0000 0.84787  0.86195  0.77500  Biso   1.000  O
  N5       1.0000 0.92091  0.84329  0.84802  Biso   1.000  N
  C29      1.0000 0.93757  0.85519  0.88424  Biso   1.000  C
  C30      1.0000 0.92137  0.88373  0.90802  Biso   1.000  C
  C31      1.0000 0.88587  0.89893  0.89315  Biso   1.000  C
  C32      1.0000 0.86876  0.88693  0.85573  Biso   1.000  C
  C33      1.0000 0.88770  0.85932  0.83385  Biso   1.000  C
  C34      1.0000 0.97491  0.83583  0.89689  Biso   1.000  C
  C35      1.0000 0.87336  0.84421  0.79282  Biso   1.000  C
  O21      1.0000 0.82258  0.84659  0.64354  Biso   1.000  O
  O22      1.0000 0.83089  0.87150  0.58241  Biso   1.000  O
  O23      1.0000 0.82334  0.93837  0.74129  Biso   1.000  O
  O24      1.0000 0.97622  0.81709  0.74106  Biso   1.000  O
  N6       1.0000 0.83688  0.93815  0.66778  Biso   1.000  N
  C36      1.0000 0.84422  0.93573  0.63035  Biso   1.000  C
  C37      1.0000 0.86247  0.98033  0.60665  Biso   1.000  C
  C38      1.0000 0.87177  0.02853  0.62240  Biso   1.000  C
  C39      1.0000 0.86307  0.03113  0.66098  Biso   1.000  C
  C40      1.0000 0.84596  0.98504  0.68293  Biso   1.000  C
  C41      1.0000 0.83182  0.88061  0.61709  Biso   1.000  C
  C42      1.0000 0.83603  0.98280  0.72490  Biso   1.000  C
  O25      1.0000 0.96549  0.79746  0.00060  Biso   1.000  O
  O26      1.0000 0.14944  0.88663  0.97359  Biso   1.000  O
  O27      1.0000 0.09620  0.77154  0.96840  Biso   1.000  O
  O28      1.0000 0.73762  0.76848  0.68643  Biso   1.000  O
  N7       1.0000 0.00267  0.73183  0.00183  Biso   1.000  N
  C43      1.0000 0.95506  0.71382  0.01954  Biso   1.000  C
  C44      1.0000 0.92927  0.66543  0.03948  Biso   1.000  C
  C45      1.0000 0.95367  0.63423  0.04036  Biso   1.000  C
  C46      1.0000 0.00257  0.65173  0.02191  Biso   1.000  C
  C47      1.0000 0.02605  0.70093  0.00291  Biso   1.000  C
  C48      1.0000 0.93338  0.75201  0.01558  Biso   1.000  C
  C49      1.0000 0.07867  0.72473  0.98248  Biso   1.000  C
  O29      1.0000 0.79944  0.86023  0.50373  Biso   1.000  O
  O30      1.0000 0.87638  0.75876  0.54158  Biso   1.000  O
  O31      1.0000 0.76511  0.69934  0.53180  Biso   1.000  O
  O32      1.0000 0.95624  0.71016  0.83297  Biso   1.000  O
  N8       1.0000 0.74141  0.75755  0.48836  Biso   1.000  N
  C50      1.0000 0.72984  0.79041  0.46817  Biso   1.000  C
  C51      1.0000 0.68787  0.77093  0.44158  Biso   1.000  C
  C52      1.0000 0.65757  0.71523  0.43619  Biso   1.000  C
  C53      1.0000 0.66937  0.68143  0.45693  Biso   1.000  C
  C54      1.0000 0.71187  0.70392  0.48259  Biso   1.000  C
  C55      1.0000 0.76514  0.84891  0.47730  Biso   1.000  C
  C56      1.0000 0.72996  0.67234  0.50657  Biso   1.000  C
  H13      1.0000 0.93505  0.89305  0.93416  Biso   1.000  H
  H14      1.0000 0.87280  0.91765  0.90940  Biso   1.000  H
  H15      1.0000 0.84413  0.89785  0.84495  Biso   1.000  H
  H16      1.0000 0.86837  0.97753  0.57944  Biso   1.000  H
  H17      1.0000 0.88469  0.06071  0.60640  Biso   1.000  H
  H18      1.0000 0.86874  0.06468  0.67251  Biso   1.000  H
  H19      1.0000 0.89488  0.65366  0.05224  Biso   1.000  H
  H20      1.0000 0.93672  0.60006  0.05424  Biso   1.000  H
  H21      1.0000 0.01990  0.62976  0.02190  Biso   1.000  H
  H22      1.0000 0.68023  0.79542  0.42704  Biso   1.000  H
  H23      1.0000 0.62773  0.70031  0.41794  Biso   1.000  H
  H24      1.0000 0.64819  0.64226  0.45344  Biso   1.000  H
  Eu9      1.0000 0.61667  0.12107  0.14116  Biso   1.000  Eu
  Eu10     1.0000 0.47598  0.18970  0.04413  Biso   1.000  Eu
  Eu11     1.0000 0.71749  0.15706  0.30261  Biso   1.000  Eu
  Eu12     1.0000 0.48221  0.13008  0.87223  Biso   1.000  Eu
  O33      1.0000 0.65026  0.14134  0.20603  Biso   1.000  O
  O34      1.0000 0.66121  0.18095  0.26273  Biso   1.000  O
  O35      1.0000 0.55527  0.14629  0.11223  Biso   1.000  O
  O36      1.0000 0.51453  0.19529  0.10834  Biso   1.000  O
  N9       1.0000 0.58757  0.17663  0.18136  Biso   1.000  N
  C57      1.0000 0.60423  0.18853  0.21758  Biso   1.000  C
  C58      1.0000 0.58803  0.21707  0.24136  Biso   1.000  C
  C59      1.0000 0.55253  0.23227  0.22649  Biso   1.000  C
  C60      1.0000 0.53542  0.22027  0.18907  Biso   1.000  C
  C61      1.0000 0.55436  0.19266  0.16719  Biso   1.000  C
  C62      1.0000 0.64157  0.16917  0.23023  Biso   1.000  C
  C63      1.0000 0.54002  0.17755  0.12616  Biso   1.000  C
  O37      1.0000 0.48924  0.17993  0.97688  Biso   1.000  O
  O38      1.0000 0.49755  0.20484  0.91575  Biso   1.000  O
  O39      1.0000 0.49000  0.27171  0.07463  Biso   1.000  O
  O40      1.0000 0.64288  0.15043  0.07440  Biso   1.000  O
  N10      1.0000 0.50354  0.27149  0.00112  Biso   1.000  N
  C64      1.0000 0.51088  0.26907  0.96369  Biso   1.000  C
  C65      1.0000 0.52913  0.31367  0.93999  Biso   1.000  C
  C66      1.0000 0.53843  0.36187  0.95574  Biso   1.000  C
  C67      1.0000 0.52973  0.36447  0.99432  Biso   1.000  C
  C68      1.0000 0.51262  0.31838  0.01627  Biso   1.000  C
  C69      1.0000 0.49848  0.21395  0.95043  Biso   1.000  C
  C70      1.0000 0.50269  0.31614  0.05824  Biso   1.000  C
  O41      1.0000 0.63215  0.13080  0.33394  Biso   1.000  O
  O42      1.0000 0.81610  0.21997  0.30693  Biso   1.000  O
  O43      1.0000 0.76286  0.10488  0.30174  Biso   1.000  O
  O44      1.0000 0.40428  0.10182  0.01977  Biso   1.000  O
  N11      1.0000 0.66933  0.06517  0.33517  Biso   1.000  N
  C71      1.0000 0.62172  0.04716  0.35288  Biso   1.000  C
  C72      1.0000 0.59593  0.99877  0.37282  Biso   1.000  C
  C73      1.0000 0.62033  0.96757  0.37370  Biso   1.000  C
  C74      1.0000 0.66923  0.98507  0.35525  Biso   1.000  C
  C75      1.0000 0.69271  0.03427  0.33625  Biso   1.000  C
  C76      1.0000 0.60004  0.08535  0.34892  Biso   1.000  C
  C77      1.0000 0.74533  0.05807  0.31582  Biso   1.000  C
  O45      1.0000 0.46610  0.19357  0.83707  Biso   1.000  O
  O46      1.0000 0.54304  0.09210  0.87492  Biso   1.000  O
  O47      1.0000 0.43177  0.03268  0.86514  Biso   1.000  O
  O48      1.0000 0.62290  0.04350  0.16631  Biso   1.000  O
  N12      1.0000 0.40807  0.09089  0.82170  Biso   1.000  N
  C78      1.0000 0.39650  0.12375  0.80151  Biso   1.000  C
  C79      1.0000 0.35453  0.10427  0.77492  Biso   1.000  C
  C80      1.0000 0.32423  0.04857  0.76953  Biso   1.000  C
  C81      1.0000 0.33603  0.01477  0.79027  Biso   1.000  C
  C82      1.0000 0.37853  0.03726  0.81593  Biso   1.000  C
  C83      1.0000 0.43180  0.18225  0.81064  Biso   1.000  C
  C84      1.0000 0.39662  0.00568  0.83991  Biso   1.000  C
  H25      1.0000 0.60171  0.22639  0.26750  Biso   1.000  H
  H26      1.0000 0.53946  0.25099  0.24274  Biso   1.000  H
  H27      1.0000 0.51079  0.23119  0.17829  Biso   1.000  H
  H28      1.0000 0.53503  0.31087  0.91278  Biso   1.000  H
  H29      1.0000 0.55135  0.39405  0.93974  Biso   1.000  H
  H30      1.0000 0.53540  0.39802  0.00585  Biso   1.000  H
  H31      1.0000 0.56154  0.98700  0.38558  Biso   1.000  H
  H32      1.0000 0.60338  0.93340  0.38758  Biso   1.000  H
  H33      1.0000 0.68656  0.96310  0.35524  Biso   1.000  H
  H34      1.0000 0.34689  0.12876  0.76038  Biso   1.000  H
  H35      1.0000 0.29439  0.03365  0.75128  Biso   1.000  H
  H36      1.0000 0.31485  0.97560  0.78678  Biso   1.000  H
  Eu13     1.0000 0.54560  0.82894  0.47450  Biso   1.000  Eu
  Eu14     1.0000 0.47697  0.61961  0.37746  Biso   1.000  Eu
  Eu15     1.0000 0.50961  0.89377  0.63594  Biso   1.000  Eu
  Eu16     1.0000 0.53659  0.68546  0.20556  Biso   1.000  Eu
  O49      1.0000 0.52533  0.84226  0.53936  Biso   1.000  O
  O50      1.0000 0.48572  0.81360  0.59606  Biso   1.000  O
  O51      1.0000 0.52038  0.74232  0.44556  Biso   1.000  O
  O52      1.0000 0.47138  0.65258  0.44167  Biso   1.000  O
  N13      1.0000 0.49004  0.74428  0.51469  Biso   1.000  N
  C85      1.0000 0.47814  0.74904  0.55091  Biso   1.000  C
  C86      1.0000 0.44960  0.70430  0.57469  Biso   1.000  C
  C87      1.0000 0.43440  0.65360  0.55982  Biso   1.000  C
  C88      1.0000 0.44640  0.64849  0.52240  Biso   1.000  C
  C89      1.0000 0.47401  0.69504  0.50052  Biso   1.000  C
  C90      1.0000 0.49750  0.80574  0.56356  Biso   1.000  C
  C91      1.0000 0.48912  0.69581  0.45949  Biso   1.000  C
  O53      1.0000 0.48674  0.64265  0.31021  Biso   1.000  O
  O54      1.0000 0.46183  0.62605  0.24908  Biso   1.000  O
  O55      1.0000 0.39496  0.55163  0.40796  Biso   1.000  O
  O56      1.0000 0.51624  0.82579  0.40773  Biso   1.000  O
  N14      1.0000 0.39518  0.56539  0.33445  Biso   1.000  N
  C92      1.0000 0.39760  0.57515  0.29702  Biso   1.000  C
  C93      1.0000 0.35300  0.54880  0.27332  Biso   1.000  C
  C94      1.0000 0.30480  0.50990  0.28907  Biso   1.000  C
  C95      1.0000 0.30220  0.49860  0.32765  Biso   1.000  C
  C96      1.0000 0.34829  0.52758  0.34960  Biso   1.000  C
  C97      1.0000 0.45272  0.61787  0.28376  Biso   1.000  C
  C98      1.0000 0.35053  0.51989  0.39157  Biso   1.000  C
  O57      1.0000 0.53587  0.83469  0.66727  Biso   1.000  O
  O58      1.0000 0.44670  0.92947  0.64026  Biso   1.000  O
  O59      1.0000 0.56179  0.99132  0.63507  Biso   1.000  O
  O60      1.0000 0.56485  0.63580  0.35310  Biso   1.000  O
  N15      1.0000 0.60150  0.93750  0.66850  Biso   1.000  N
  C99      1.0000 0.61951  0.90790  0.68621  Biso   1.000  C
  C100     1.0000 0.66790  0.93050  0.70615  Biso   1.000  C
  C101     1.0000 0.69910  0.98610  0.70703  Biso   1.000  C
  C102     1.0000 0.68160  0.01750  0.68858  Biso   1.000  C
  C103     1.0000 0.63240  0.99178  0.66958  Biso   1.000  C
  C104     1.0000 0.58132  0.84803  0.68225  Biso   1.000  C
  C105     1.0000 0.60860  0.02060  0.64915  Biso   1.000  C
  O61      1.0000 0.47310  0.60587  0.17040  Biso   1.000  O
  O62      1.0000 0.57457  0.78428  0.20825  Biso   1.000  O
  O63      1.0000 0.63399  0.73243  0.19847  Biso   1.000  O
  O64      1.0000 0.62317  0.91274  0.49964  Biso   1.000  O
  N16      1.0000 0.57578  0.65052  0.15503  Biso   1.000  N
  C106     1.0000 0.54292  0.60609  0.13484  Biso   1.000  C
  C107     1.0000 0.56240  0.58360  0.10825  Biso   1.000  C
  C108     1.0000 0.61810  0.60900  0.10286  Biso   1.000  C
  C109     1.0000 0.65190  0.65460  0.12360  Biso   1.000  C
  C110     1.0000 0.62941  0.67461  0.14926  Biso   1.000  C
  C111     1.0000 0.48442  0.58289  0.14397  Biso   1.000  C
  C112     1.0000 0.66099  0.72428  0.17324  Biso   1.000  C
  H37      1.0000 0.44028  0.70866  0.60083  Biso   1.000  H
  H38      1.0000 0.41568  0.62181  0.57607  Biso   1.000  H
  H39      1.0000 0.43548  0.61294  0.51162  Biso   1.000  H
  H40      1.0000 0.35580  0.55750  0.24611  Biso   1.000  H
  H41      1.0000 0.27262  0.49064  0.27307  Biso   1.000  H
  H42      1.0000 0.26865  0.47072  0.33918  Biso   1.000  H
  H43      1.0000 0.67967  0.90788  0.71891  Biso   1.000  H
  H44      1.0000 0.73327  0.00332  0.72091  Biso   1.000  H
  H45      1.0000 0.70357  0.05680  0.68857  Biso   1.000  H
  H46      1.0000 0.53791  0.55147  0.09371  Biso   1.000  H
  H47      1.0000 0.63302  0.59408  0.08461  Biso   1.000  H
  H48      1.0000 0.69107  0.67259  0.12011  Biso   1.000  H
  Eu17     1.0000 0.21227  0.16227  0.80783  Biso   1.000  Eu
  Eu18     1.0000 0.14364  0.95295  0.71079  Biso   1.000  Eu
  Eu19     1.0000 0.17628  0.22710  0.96927  Biso   1.000  Eu
  Eu20     1.0000 0.20325  0.01879  0.53890  Biso   1.000  Eu
  O65      1.0000 0.19200  0.17559  0.87269  Biso   1.000  O
  O66      1.0000 0.15239  0.14693  0.92939  Biso   1.000  O
  O67      1.0000 0.18705  0.07565  0.77889  Biso   1.000  O
  O68      1.0000 0.13805  0.98591  0.77500  Biso   1.000  O
  N17      1.0000 0.15671  0.07761  0.84802  Biso   1.000  N
  C113     1.0000 0.14481  0.08237  0.88424  Biso   1.000  C
  C114     1.0000 0.11627  0.03763  0.90802  Biso   1.000  C
  C115     1.0000 0.10107  0.98693  0.89315  Biso   1.000  C
  C116     1.0000 0.11307  0.98182  0.85573  Biso   1.000  C
  C117     1.0000 0.14068  0.02837  0.83385  Biso   1.000  C
  C118     1.0000 0.16417  0.13907  0.89689  Biso   1.000  C
  C119     1.0000 0.15579  0.02914  0.79282  Biso   1.000  C
  O69      1.0000 0.15341  0.97598  0.64354  Biso   1.000  O
  O70      1.0000 0.12850  0.95938  0.58241  Biso   1.000  O
  O71      1.0000 0.06163  0.88496  0.74129  Biso   1.000  O
  O72      1.0000 0.18291  0.15912  0.74106  Biso   1.000  O
  N18      1.0000 0.06185  0.89872  0.66778  Biso   1.000  N
  C120     1.0000 0.06427  0.90848  0.63035  Biso   1.000  C
  C121     1.0000 0.01967  0.88213  0.60665  Biso   1.000  C
  C122     1.0000 0.97147  0.84323  0.62240  Biso   1.000  C
  C123     1.0000 0.96887  0.83193  0.66098  Biso   1.000  C
  C124     1.0000 0.01496  0.86091  0.68293  Biso   1.000  C
  C125     1.0000 0.11939  0.95120  0.61709  Biso   1.000  C
  C126     1.0000 0.01720  0.85322  0.72490  Biso   1.000  C
  O73      1.0000 0.20254  0.16802  0.00060  Biso   1.000  O
  O74      1.0000 0.11337  0.26280  0.97359  Biso   1.000  O
  O75      1.0000 0.22846  0.32465  0.96840  Biso   1.000  O
  O76      1.0000 0.23152  0.96913  0.68643  Biso   1.000  O
  N19      1.0000 0.26817  0.27083  0.00183  Biso   1.000  N
  C127     1.0000 0.28618  0.24123  0.01954  Biso   1.000  C
  C128     1.0000 0.33457  0.26383  0.03948  Biso   1.000  C
  C129     1.0000 0.36577  0.31943  0.04036  Biso   1.000  C
  C130     1.0000 0.34827  0.35083  0.02191  Biso   1.000  C
  C131     1.0000 0.29907  0.32511  0.00291  Biso   1.000  C
  C132     1.0000 0.24799  0.18136  0.01558  Biso   1.000  C
  C133     1.0000 0.27527  0.35393  0.98248  Biso   1.000  C
  O77      1.0000 0.13977  0.93920  0.50373  Biso   1.000  O
  O78      1.0000 0.24124  0.11761  0.54158  Biso   1.000  O
  O79      1.0000 0.30066  0.06576  0.53180  Biso   1.000  O
  O80      1.0000 0.28984  0.24607  0.83297  Biso   1.000  O
  N20      1.0000 0.24245  0.98385  0.48836  Biso   1.000  N
  C134     1.0000 0.20959  0.93942  0.46817  Biso   1.000  C
  C135     1.0000 0.22907  0.91693  0.44158  Biso   1.000  C
  C136     1.0000 0.28477  0.94233  0.43619  Biso   1.000  C
  C137     1.0000 0.31857  0.98793  0.45693  Biso   1.000  C
  C138     1.0000 0.29608  0.00794  0.48259  Biso   1.000  C
  C139     1.0000 0.15109  0.91622  0.47730  Biso   1.000  C
  C140     1.0000 0.32766  0.05761  0.50657  Biso   1.000  C
  H49      1.0000 0.10695  0.04199  0.93416  Biso   1.000  H
  H50      1.0000 0.08235  0.95514  0.90940  Biso   1.000  H
  H51      1.0000 0.10215  0.94627  0.84495  Biso   1.000  H
  H52      1.0000 0.02247  0.89083  0.57944  Biso   1.000  H
  H53      1.0000 0.93929  0.82397  0.60640  Biso   1.000  H
  H54      1.0000 0.93532  0.80405  0.67251  Biso   1.000  H
  H55      1.0000 0.34634  0.24121  0.05224  Biso   1.000  H
  H56      1.0000 0.39994  0.33665  0.05424  Biso   1.000  H
  H57      1.0000 0.37024  0.39013  0.02190  Biso   1.000  H
  H58      1.0000 0.20458  0.88480  0.42704  Biso   1.000  H
  H59      1.0000 0.29969  0.92741  0.41794  Biso   1.000  H
  H60      1.0000 0.35774  0.00592  0.45344  Biso   1.000  H
  Eu21     1.0000 0.87893  0.49561  0.14116  Biso   1.000  Eu
  Eu22     1.0000 0.81030  0.28628  0.04413  Biso   1.000  Eu
  Eu23     1.0000 0.84294  0.56044  0.30261  Biso   1.000  Eu
  Eu24     1.0000 0.86992  0.35213  0.87223  Biso   1.000  Eu
  O81      1.0000 0.85866  0.50893  0.20603  Biso   1.000  O
  O82      1.0000 0.81905  0.48027  0.26273  Biso   1.000  O
  O83      1.0000 0.85371  0.40899  0.11223  Biso   1.000  O
  O84      1.0000 0.80471  0.31925  0.10834  Biso   1.000  O
  N21      1.0000 0.82337  0.41095  0.18136  Biso   1.000  N
  C141     1.0000 0.81147  0.41571  0.21758  Biso   1.000  C
  C142     1.0000 0.78293  0.37097  0.24136  Biso   1.000  C
  C143     1.0000 0.76773  0.32027  0.22649  Biso   1.000  C
  C144     1.0000 0.77973  0.31516  0.18907  Biso   1.000  C
  C145     1.0000 0.80734  0.36171  0.16719  Biso   1.000  C
  C146     1.0000 0.83083  0.47241  0.23023  Biso   1.000  C
  C147     1.0000 0.82245  0.36248  0.12616  Biso   1.000  C
  O85      1.0000 0.82007  0.30932  0.97688  Biso   1.000  O
  O86      1.0000 0.79516  0.29272  0.91575  Biso   1.000  O
  O87      1.0000 0.72829  0.21830  0.07463  Biso   1.000  O
  O88      1.0000 0.84957  0.49246  0.07440  Biso   1.000  O
  N22      1.0000 0.72851  0.23206  0.00112  Biso   1.000  N
  C148     1.0000 0.73093  0.24182  0.96369  Biso   1.000  C
  C149     1.0000 0.68633  0.21547  0.93999  Biso   1.000  C
  C150     1.0000 0.63813  0.17657  0.95574  Biso   1.000  C
  C151     1.0000 0.63553  0.16527  0.99432  Biso   1.000  C
  C152     1.0000 0.68162  0.19425  0.01627  Biso   1.000  C
  C153     1.0000 0.78605  0.28454  0.95043  Biso   1.000  C
  C154     1.0000 0.68386  0.18656  0.05824  Biso   1.000  C
  O89      1.0000 0.86920  0.50136  0.33394  Biso   1.000  O
  O90      1.0000 0.78003  0.59614  0.30693  Biso   1.000  O
  O91      1.0000 0.89512  0.65799  0.30174  Biso   1.000  O
  O92      1.0000 0.89818  0.30247  0.01977  Biso   1.000  O
  N23      1.0000 0.93483  0.60417  0.33517  Biso   1.000  N
  C155     1.0000 0.95284  0.57457  0.35288  Biso   1.000  C
  C156     1.0000 0.00123  0.59717  0.37282  Biso   1.000  C
  C157     1.0000 0.03243  0.65277  0.37370  Biso   1.000  C
  C158     1.0000 0.01493  0.68417  0.35525  Biso   1.000  C
  C159     1.0000 0.96573  0.65845  0.33625  Biso   1.000  C
  C160     1.0000 0.91465  0.51470  0.34892  Biso   1.000  C
  C161     1.0000 0.94193  0.68727  0.31582  Biso   1.000  C
  O93      1.0000 0.80643  0.27254  0.83707  Biso   1.000  O
  O94      1.0000 0.90790  0.45095  0.87492  Biso   1.000  O
  O95      1.0000 0.96732  0.39910  0.86514  Biso   1.000  O
  O96      1.0000 0.95650  0.57941  0.16631  Biso   1.000  O
  N24      1.0000 0.90911  0.31719  0.82170  Biso   1.000  N
  C162     1.0000 0.87625  0.27276  0.80151  Biso   1.000  C
  C163     1.0000 0.89573  0.25027  0.77492  Biso   1.000  C
  C164     1.0000 0.95143  0.27567  0.76953  Biso   1.000  C
  C165     1.0000 0.98523  0.32127  0.79027  Biso   1.000  C
  C166     1.0000 0.96274  0.34128  0.81593  Biso   1.000  C
  C167     1.0000 0.81775  0.24956  0.81064  Biso   1.000  C
  C168     1.0000 0.99432  0.39095  0.83991  Biso   1.000  C
  H61      1.0000 0.77361  0.37533  0.26750  Biso   1.000  H
  H62      1.0000 0.74901  0.28848  0.24274  Biso   1.000  H
  H63      1.0000 0.76881  0.27961  0.17829  Biso   1.000  H
  H64      1.0000 0.68913  0.22417  0.91278  Biso   1.000  H
  H65      1.0000 0.60595  0.15731  0.93974  Biso   1.000  H
  H66      1.0000 0.60198  0.13739  0.00585  Biso   1.000  H
  H67      1.0000 0.01300  0.57455  0.38558  Biso   1.000  H
  H68      1.0000 0.06660  0.66999  0.38758  Biso   1.000  H
  H69      1.0000 0.03690  0.72347  0.35524  Biso   1.000  H
  H70      1.0000 0.87124  0.21814  0.76038  Biso   1.000  H
  H71      1.0000 0.96635  0.26075  0.75128  Biso   1.000  H
  H72      1.0000 0.02440  0.33926  0.78678  Biso   1.000  H
  Eu25     1.0000 0.17106  0.71666  0.47450  Biso   1.000  Eu
  Eu26     1.0000 0.38039  0.85736  0.37746  Biso   1.000  Eu
  Eu27     1.0000 0.10623  0.61584  0.63594  Biso   1.000  Eu
  Eu28     1.0000 0.31454  0.85113  0.20556  Biso   1.000  Eu
  O97      1.0000 0.15774  0.68307  0.53936  Biso   1.000  O
  O98      1.0000 0.18640  0.67212  0.59606  Biso   1.000  O
  O99      1.0000 0.25768  0.77806  0.44556  Biso   1.000  O
  O100     1.0000 0.34742  0.81880  0.44167  Biso   1.000  O
  N25      1.0000 0.25572  0.74576  0.51469  Biso   1.000  N
  C169     1.0000 0.25096  0.72910  0.55091  Biso   1.000  C
  C170     1.0000 0.29570  0.74530  0.57469  Biso   1.000  C
  C171     1.0000 0.34640  0.78080  0.55982  Biso   1.000  C
  C172     1.0000 0.35151  0.79791  0.52240  Biso   1.000  C
  C173     1.0000 0.30496  0.77897  0.50052  Biso   1.000  C
  C174     1.0000 0.19426  0.69176  0.56356  Biso   1.000  C
  C175     1.0000 0.30419  0.79331  0.45949  Biso   1.000  C
  O101     1.0000 0.35735  0.84409  0.31021  Biso   1.000  O
  O102     1.0000 0.37395  0.83578  0.24908  Biso   1.000  O
  O103     1.0000 0.44837  0.84333  0.40796  Biso   1.000  O
  O104     1.0000 0.17421  0.69045  0.40773  Biso   1.000  O
  N26      1.0000 0.43461  0.82979  0.33445  Biso   1.000  N
  C176     1.0000 0.42485  0.82245  0.29702  Biso   1.000  C
  C177     1.0000 0.45120  0.80420  0.27332  Biso   1.000  C
  C178     1.0000 0.49010  0.79490  0.28907  Biso   1.000  C
  C179     1.0000 0.50140  0.80360  0.32765  Biso   1.000  C
  C180     1.0000 0.47242  0.82071  0.34960  Biso   1.000  C
  C181     1.0000 0.38213  0.83485  0.28376  Biso   1.000  C
  C182     1.0000 0.48011  0.83064  0.39157  Biso   1.000  C
  O105     1.0000 0.16531  0.70118  0.66727  Biso   1.000  O
  O106     1.0000 0.07053  0.51723  0.64026  Biso   1.000  O
  O107     1.0000 0.00868  0.57047  0.63507  Biso   1.000  O
  O108     1.0000 0.36420  0.92905  0.35310  Biso   1.000  O
  N27      1.0000 0.06250  0.66400  0.66850  Biso   1.000  N
  C183     1.0000 0.09210  0.71161  0.68621  Biso   1.000  C
  C184     1.0000 0.06950  0.73740  0.70615  Biso   1.000  C
  C185     1.0000 0.01390  0.71300  0.70703  Biso   1.000  C
  C186     1.0000 0.98250  0.66410  0.68858  Biso   1.000  C
  C187     1.0000 0.00822  0.64062  0.66958  Biso   1.000  C
  C188     1.0000 0.15197  0.73329  0.68225  Biso   1.000  C
  C189     1.0000 0.97940  0.58800  0.64915  Biso   1.000  C
  O109     1.0000 0.39413  0.86723  0.17040  Biso   1.000  O
  O110     1.0000 0.21572  0.79029  0.20825  Biso   1.000  O
  O111     1.0000 0.26757  0.90156  0.19847  Biso   1.000  O
  O112     1.0000 0.08726  0.71043  0.49964  Biso   1.000  O
  N28      1.0000 0.34948  0.92526  0.15503  Biso   1.000  N
  C190     1.0000 0.39391  0.93683  0.13484  Biso   1.000  C
  C191     1.0000 0.41640  0.97880  0.10825  Biso   1.000  C
  C192     1.0000 0.39100  0.00910  0.10286  Biso   1.000  C
  C193     1.0000 0.34540  0.99730  0.12360  Biso   1.000  C
  C194     1.0000 0.32539  0.95480  0.14926  Biso   1.000  C
  C195     1.0000 0.41711  0.90153  0.14397  Biso   1.000  C
  C196     1.0000 0.27572  0.93671  0.17324  Biso   1.000  C
  H73      1.0000 0.29134  0.73162  0.60083  Biso   1.000  H
  H74      1.0000 0.37819  0.79387  0.57607  Biso   1.000  H
  H75      1.0000 0.38706  0.82254  0.51162  Biso   1.000  H
  H76      1.0000 0.44250  0.79830  0.24611  Biso   1.000  H
  H77      1.0000 0.50936  0.78198  0.27307  Biso   1.000  H
  H78      1.0000 0.52928  0.79793  0.33918  Biso   1.000  H
  H79      1.0000 0.09212  0.77179  0.71891  Biso   1.000  H
  H80      1.0000 0.99668  0.72995  0.72091  Biso   1.000  H
  H81      1.0000 0.94320  0.64677  0.68857  Biso   1.000  H
  H82      1.0000 0.44853  0.98644  0.09371  Biso   1.000  H
  H83      1.0000 0.40592  0.03894  0.08461  Biso   1.000  H
  H84      1.0000 0.32741  0.01848  0.12011  Biso   1.000  H
  Eu29     1.0000 0.83773  0.04999  0.80783  Biso   1.000  Eu
  Eu30     1.0000 0.04705  0.19069  0.71079  Biso   1.000  Eu
  Eu31     1.0000 0.77290  0.94917  0.96927  Biso   1.000  Eu
  Eu32     1.0000 0.98121  0.18446  0.53890  Biso   1.000  Eu
  O113     1.0000 0.82441  0.01640  0.87269  Biso   1.000  O
  O114     1.0000 0.85307  0.00545  0.92939  Biso   1.000  O
  O115     1.0000 0.92435  0.11139  0.77889  Biso   1.000  O
  O116     1.0000 0.01409  0.15213  0.77500  Biso   1.000  O
  N29      1.0000 0.92239  0.07909  0.84802  Biso   1.000  N
  C197     1.0000 0.91763  0.06243  0.88424  Biso   1.000  C
  C198     1.0000 0.96237  0.07863  0.90802  Biso   1.000  C
  C199     1.0000 0.01307  0.11413  0.89315  Biso   1.000  C
  C200     1.0000 0.01818  0.13124  0.85573  Biso   1.000  C
  C201     1.0000 0.97163  0.11230  0.83385  Biso   1.000  C
  C202     1.0000 0.86093  0.02509  0.89689  Biso   1.000  C
  C203     1.0000 0.97086  0.12664  0.79282  Biso   1.000  C
  O117     1.0000 0.02402  0.17742  0.64354  Biso   1.000  O
  O118     1.0000 0.04062  0.16911  0.58241  Biso   1.000  O
  O119     1.0000 0.11504  0.17666  0.74129  Biso   1.000  O
  O120     1.0000 0.84088  0.02378  0.74106  Biso   1.000  O
  N30      1.0000 0.10128  0.16312  0.66778  Biso   1.000  N
  C204     1.0000 0.09152  0.15578  0.63035  Biso   1.000  C
  C205     1.0000 0.11787  0.13753  0.60665  Biso   1.000  C
  C206     1.0000 0.15677  0.12823  0.62240  Biso   1.000  C
  C207     1.0000 0.16807  0.13693  0.66098  Biso   1.000  C
  C208     1.0000 0.13909  0.15404  0.68293  Biso   1.000  C
  C209     1.0000 0.04880  0.16818  0.61709  Biso   1.000  C
  C210     1.0000 0.14678  0.16397  0.72490  Biso   1.000  C
  O121     1.0000 0.83198  0.03451  0.00060  Biso   1.000  O
  O122     1.0000 0.73720  0.85056  0.97359  Biso   1.000  O
  O123     1.0000 0.67535  0.90380  0.96840  Biso   1.000  O
  O124     1.0000 0.03087  0.26238  0.68643  Biso   1.000  O
  N31      1.0000 0.72917  0.99733  0.00183  Biso   1.000  N
  C211     1.0000 0.75877  0.04494  0.01954  Biso   1.000  C
  C212     1.0000 0.73617  0.07073  0.03948  Biso   1.000  C
  C213     1.0000 0.68057  0.04633  0.04036  Biso   1.000  C
  C214     1.0000 0.64917  0.99743  0.02191  Biso   1.000  C
  C215     1.0000 0.67489  0.97395  0.00291  Biso   1.000  C
  C216     1.0000 0.81864  0.06662  0.01558  Biso   1.000  C
  C217     1.0000 0.64607  0.92133  0.98248  Biso   1.000  C
  O125     1.0000 0.06080  0.20056  0.50373  Biso   1.000  O
  O126     1.0000 0.88239  0.12362  0.54158  Biso   1.000  O
  O127     1.0000 0.93424  0.23489  0.53180  Biso   1.000  O
  O128     1.0000 0.75393  0.04376  0.83297  Biso   1.000  O
  N32      1.0000 0.01615  0.25859  0.48836  Biso   1.000  N
  C218     1.0000 0.06058  0.27016  0.46817  Biso   1.000  C
  C219     1.0000 0.08307  0.31213  0.44158  Biso   1.000  C
  C220     1.0000 0.05767  0.34243  0.43619  Biso   1.000  C
  C221     1.0000 0.01207  0.33063  0.45693  Biso   1.000  C
  C222     1.0000 0.99206  0.28813  0.48259  Biso   1.000  C
  C223     1.0000 0.08378  0.23486  0.47730  Biso   1.000  C
  C224     1.0000 0.94239  0.27004  0.50657  Biso   1.000  C
  H85      1.0000 0.95801  0.06495  0.93416  Biso   1.000  H
  H86      1.0000 0.04486  0.12720  0.90940  Biso   1.000  H
  H87      1.0000 0.05373  0.15587  0.84495  Biso   1.000  H
  H88      1.0000 0.10917  0.13163  0.57944  Biso   1.000  H
  H89      1.0000 0.17603  0.11531  0.60640  Biso   1.000  H
  H90      1.0000 0.19595  0.13126  0.67251  Biso   1.000  H
  H91      1.0000 0.75879  0.10512  0.05224  Biso   1.000  H
  H92      1.0000 0.66335  0.06328  0.05424  Biso   1.000  H
  H93      1.0000 0.60987  0.98010  0.02190  Biso   1.000  H
  H94      1.0000 0.11520  0.31977  0.42704  Biso   1.000  H
  H95      1.0000 0.07259  0.37227  0.41794  Biso   1.000  H
  H96      1.0000 0.99408  0.35181  0.45344  Biso   1.000  H
  Eu33     1.0000 0.50439  0.38333  0.14116  Biso   1.000  Eu
  Eu34     1.0000 0.71372  0.52402  0.04413  Biso   1.000  Eu
  Eu35     1.0000 0.43956  0.28251  0.30261  Biso   1.000  Eu
  Eu36     1.0000 0.64787  0.51779  0.87223  Biso   1.000  Eu
  O129     1.0000 0.49107  0.34974  0.20603  Biso   1.000  O
  O130     1.0000 0.51973  0.33879  0.26273  Biso   1.000  O
  O131     1.0000 0.59101  0.44473  0.11223  Biso   1.000  O
  O132     1.0000 0.68075  0.48547  0.10834  Biso   1.000  O
  N33      1.0000 0.58905  0.41243  0.18136  Biso   1.000  N
  C225     1.0000 0.58429  0.39577  0.21758  Biso   1.000  C
  C226     1.0000 0.62903  0.41197  0.24136  Biso   1.000  C
  C227     1.0000 0.67973  0.44747  0.22649  Biso   1.000  C
  C228     1.0000 0.68484  0.46458  0.18907  Biso   1.000  C
  C229     1.0000 0.63829  0.44564  0.16719  Biso   1.000  C
  C230     1.0000 0.52759  0.35843  0.23023  Biso   1.000  C
  C231     1.0000 0.63752  0.45998  0.12616  Biso   1.000  C
  O133     1.0000 0.69068  0.51076  0.97688  Biso   1.000  O
  O134     1.0000 0.70728  0.50245  0.91575  Biso   1.000  O
  O135     1.0000 0.78170  0.51000  0.07463  Biso   1.000  O
  O136     1.0000 0.50754  0.35712  0.07440  Biso   1.000  O
  N34      1.0000 0.76794  0.49646  0.00112  Biso   1.000  N
  C232     1.0000 0.75818  0.48912  0.96369  Biso   1.000  C
  C233     1.0000 0.78453  0.47087  0.93999  Biso   1.000  C
  C234     1.0000 0.82343  0.46157  0.95574  Biso   1.000  C
  C235     1.0000 0.83473  0.47027  0.99432  Biso   1.000  C
  C236     1.0000 0.80575  0.48738  0.01627  Biso   1.000  C
  C237     1.0000 0.71546  0.50152  0.95043  Biso   1.000  C
  C238     1.0000 0.81344  0.49731  0.05824  Biso   1.000  C
  O137     1.0000 0.49864  0.36785  0.33394  Biso   1.000  O
  O138     1.0000 0.40386  0.18390  0.30693  Biso   1.000  O
  O139     1.0000 0.34201  0.23714  0.30174  Biso   1.000  O
  O140     1.0000 0.69753  0.59572  0.01977  Biso   1.000  O
  N35      1.0000 0.39583  0.33067  0.33517  Biso   1.000  N
  C239     1.0000 0.42543  0.37828  0.35288  Biso   1.000  C
  C240     1.0000 0.40283  0.40407  0.37282  Biso   1.000  C
  C241     1.0000 0.34723  0.37967  0.37370  Biso   1.000  C
  C242     1.0000 0.31583  0.33077  0.35525  Biso   1.000  C
  C243     1.0000 0.34155  0.30729  0.33625  Biso   1.000  C
  C244     1.0000 0.48530  0.39996  0.34892  Biso   1.000  C
  C245     1.0000 0.31273  0.25467  0.31582  Biso   1.000  C
  O141     1.0000 0.72746  0.53390  0.83707  Biso   1.000  O
  O142     1.0000 0.54905  0.45696  0.87492  Biso   1.000  O
  O143     1.0000 0.60090  0.56823  0.86514  Biso   1.000  O
  O144     1.0000 0.42059  0.37710  0.16631  Biso   1.000  O
  N36      1.0000 0.68281  0.59193  0.82170  Biso   1.000  N
  C246     1.0000 0.72724  0.60350  0.80151  Biso   1.000  C
  C247     1.0000 0.74973  0.64547  0.77492  Biso   1.000  C
  C248     1.0000 0.72433  0.67577  0.76953  Biso   1.000  C
  C249     1.0000 0.67873  0.66397  0.79027  Biso   1.000  C
  C250     1.0000 0.65872  0.62147  0.81593  Biso   1.000  C
  C251     1.0000 0.75044  0.56820  0.81064  Biso   1.000  C
  C252     1.0000 0.60905  0.60338  0.83991  Biso   1.000  C
  H97      1.0000 0.62467  0.39829  0.26750  Biso   1.000  H
  H98      1.0000 0.71152  0.46054  0.24274  Biso   1.000  H
  H99      1.0000 0.72039  0.48921  0.17829  Biso   1.000  H
  H100     1.0000 0.77583  0.46497  0.91278  Biso   1.000  H
  H101     1.0000 0.84269  0.44865  0.93974  Biso   1.000  H
  H102     1.0000 0.86261  0.46460  0.00585  Biso   1.000  H
  H103     1.0000 0.42545  0.43846  0.38558  Biso   1.000  H
  H104     1.0000 0.33001  0.39662  0.38758  Biso   1.000  H
  H105     1.0000 0.27653  0.31344  0.35524  Biso   1.000  H
  H106     1.0000 0.78186  0.65311  0.76038  Biso   1.000  H
  H107     1.0000 0.73925  0.70561  0.75128  Biso   1.000  H
  H108     1.0000 0.66074  0.68515  0.78678  Biso   1.000  H
  Eu37     1.0000 0.71666  0.54560  0.52550  Biso   1.000  Eu
  Eu38     1.0000 0.85736  0.47697  0.62254  Biso   1.000  Eu
  Eu39     1.0000 0.61584  0.50961  0.36406  Biso   1.000  Eu
  Eu40     1.0000 0.85113  0.53659  0.79444  Biso   1.000  Eu
  O145     1.0000 0.68307  0.52533  0.46064  Biso   1.000  O
  O146     1.0000 0.67212  0.48572  0.40394  Biso   1.000  O
  O147     1.0000 0.77806  0.52038  0.55444  Biso   1.000  O
  O148     1.0000 0.81880  0.47138  0.55833  Biso   1.000  O
  N37      1.0000 0.74576  0.49004  0.48531  Biso   1.000  N
  C253     1.0000 0.72910  0.47814  0.44909  Biso   1.000  C
  C254     1.0000 0.74530  0.44960  0.42531  Biso   1.000  C
  C255     1.0000 0.78080  0.43440  0.44018  Biso   1.000  C
  C256     1.0000 0.79791  0.44640  0.47760  Biso   1.000  C
  C257     1.0000 0.77897  0.47401  0.49948  Biso   1.000  C
  C258     1.0000 0.69176  0.49750  0.43644  Biso   1.000  C
  C259     1.0000 0.79331  0.48912  0.54051  Biso   1.000  C
  O149     1.0000 0.84409  0.48674  0.68979  Biso   1.000  O
  O150     1.0000 0.83578  0.46183  0.75092  Biso   1.000  O
  O151     1.0000 0.84333  0.39496  0.59204  Biso   1.000  O
  O152     1.0000 0.69045  0.51624  0.59227  Biso   1.000  O
  N38      1.0000 0.82979  0.39518  0.66555  Biso   1.000  N
  C260     1.0000 0.82245  0.39760  0.70298  Biso   1.000  C
  C261     1.0000 0.80420  0.35300  0.72668  Biso   1.000  C
  C262     1.0000 0.79490  0.30480  0.71093  Biso   1.000  C
  C263     1.0000 0.80360  0.30220  0.67235  Biso   1.000  C
  C264     1.0000 0.82071  0.34829  0.65040  Biso   1.000  C
  C265     1.0000 0.83485  0.45272  0.71624  Biso   1.000  C
  C266     1.0000 0.83064  0.35053  0.60843  Biso   1.000  C
  O153     1.0000 0.70118  0.53587  0.33273  Biso   1.000  O
  O154     1.0000 0.51723  0.44670  0.35974  Biso   1.000  O
  O155     1.0000 0.57047  0.56179  0.36493  Biso   1.000  O
  O156     1.0000 0.92905  0.56485  0.64690  Biso   1.000  O
  N39      1.0000 0.66400  0.60150  0.33150  Biso   1.000  N
  C267     1.0000 0.71161  0.61951  0.31379  Biso   1.000  C
  C268     1.0000 0.73740  0.66790  0.29385  Biso   1.000  C
  C269     1.0000 0.71300  0.69910  0.29297  Biso   1.000  C
  C270     1.0000 0.66410  0.68160  0.31142  Biso   1.000  C
  C271     1.0000 0.64062  0.63240  0.33042  Biso   1.000  C
  C272     1.0000 0.73329  0.58132  0.31775  Biso   1.000  C
  C273     1.0000 0.58800  0.60860  0.35085  Biso   1.000  C
  O157     1.0000 0.86723  0.47310  0.82960  Biso   1.000  O
  O158     1.0000 0.79029  0.57457  0.79175  Biso   1.000  O
  O159     1.0000 0.90156  0.63399  0.80153  Biso   1.000  O
  O160     1.0000 0.71043  0.62317  0.50036  Biso   1.000  O
  N40      1.0000 0.92526  0.57578  0.84497  Biso   1.000  N
  C274     1.0000 0.93683  0.54292  0.86516  Biso   1.000  C
  C275     1.0000 0.97880  0.56240  0.89175  Biso   1.000  C
  C276     1.0000 0.00910  0.61810  0.89714  Biso   1.000  C
  C277     1.0000 0.99730  0.65190  0.87640  Biso   1.000  C
  C278     1.0000 0.95480  0.62941  0.85074  Biso   1.000  C
  C279     1.0000 0.90153  0.48442  0.85603  Biso   1.000  C
  C280     1.0000 0.93671  0.66099  0.82676  Biso   1.000  C
  H109     1.0000 0.73162  0.44028  0.39917  Biso   1.000  H
  H110     1.0000 0.79387  0.41568  0.42393  Biso   1.000  H
  H111     1.0000 0.82254  0.43548  0.48838  Biso   1.000  H
  H112     1.0000 0.79830  0.35580  0.75389  Biso   1.000  H
  H113     1.0000 0.78198  0.27262  0.72693  Biso   1.000  H
  H114     1.0000 0.79793  0.26865  0.66082  Biso   1.000  H
  H115     1.0000 0.77179  0.67967  0.28109  Biso   1.000  H
  H116     1.0000 0.72995  0.73327  0.27909  Biso   1.000  H
  H117     1.0000 0.64677  0.70357  0.31143  Biso   1.000  H
  H118     1.0000 0.98644  0.53791  0.90629  Biso   1.000  H
  H119     1.0000 0.03894  0.63302  0.91539  Biso   1.000  H
  H120     1.0000 0.01848  0.69107  0.87989  Biso   1.000  H
  Eu41     1.0000 0.38333  0.87893  0.85884  Biso   1.000  Eu
  Eu42     1.0000 0.52402  0.81030  0.95587  Biso   1.000  Eu
  Eu43     1.0000 0.28251  0.84294  0.69739  Biso   1.000  Eu
  Eu44     1.0000 0.51779  0.86992  0.12777  Biso   1.000  Eu
  O161     1.0000 0.34974  0.85866  0.79397  Biso   1.000  O
  O162     1.0000 0.33879  0.81905  0.73727  Biso   1.000  O
  O163     1.0000 0.44473  0.85371  0.88777  Biso   1.000  O
  O164     1.0000 0.48547  0.80471  0.89166  Biso   1.000  O
  N41      1.0000 0.41243  0.82337  0.81864  Biso   1.000  N
  C281     1.0000 0.39577  0.81147  0.78242  Biso   1.000  C
  C282     1.0000 0.41197  0.78293  0.75864  Biso   1.000  C
  C283     1.0000 0.44747  0.76773  0.77351  Biso   1.000  C
  C284     1.0000 0.46458  0.77973  0.81093  Biso   1.000  C
  C285     1.0000 0.44564  0.80734  0.83281  Biso   1.000  C
  C286     1.0000 0.35843  0.83083  0.76977  Biso   1.000  C
  C287     1.0000 0.45998  0.82245  0.87384  Biso   1.000  C
  O165     1.0000 0.51076  0.82007  0.02312  Biso   1.000  O
  O166     1.0000 0.50245  0.79516  0.08425  Biso   1.000  O
  O167     1.0000 0.51000  0.72829  0.92537  Biso   1.000  O
  O168     1.0000 0.35712  0.84957  0.92560  Biso   1.000  O
  N42      1.0000 0.49646  0.72851  0.99888  Biso   1.000  N
  C288     1.0000 0.48912  0.73093  0.03631  Biso   1.000  C
  C289     1.0000 0.47087  0.68633  0.06001  Biso   1.000  C
  C290     1.0000 0.46157  0.63813  0.04426  Biso   1.000  C
  C291     1.0000 0.47027  0.63553  0.00568  Biso   1.000  C
  C292     1.0000 0.48738  0.68162  0.98373  Biso   1.000  C
  C293     1.0000 0.50152  0.78605  0.04957  Biso   1.000  C
  C294     1.0000 0.49731  0.68386  0.94176  Biso   1.000  C
  O169     1.0000 0.36785  0.86920  0.66606  Biso   1.000  O
  O170     1.0000 0.18390  0.78003  0.69307  Biso   1.000  O
  O171     1.0000 0.23714  0.89512  0.69826  Biso   1.000  O
  O172     1.0000 0.59572  0.89818  0.98023  Biso   1.000  O
  N43      1.0000 0.33067  0.93483  0.66483  Biso   1.000  N
  C295     1.0000 0.37828  0.95284  0.64712  Biso   1.000  C
  C296     1.0000 0.40407  0.00123  0.62718  Biso   1.000  C
  C297     1.0000 0.37967  0.03243  0.62630  Biso   1.000  C
  C298     1.0000 0.33077  0.01493  0.64475  Biso   1.000  C
  C299     1.0000 0.30729  0.96573  0.66375  Biso   1.000  C
  C300     1.0000 0.39996  0.91465  0.65108  Biso   1.000  C
  C301     1.0000 0.25467  0.94193  0.68418  Biso   1.000  C
  O173     1.0000 0.53390  0.80643  0.16293  Biso   1.000  O
  O174     1.0000 0.45696  0.90790  0.12508  Biso   1.000  O
  O175     1.0000 0.56823  0.96732  0.13486  Biso   1.000  O
  O176     1.0000 0.37710  0.95650  0.83369  Biso   1.000  O
  N44      1.0000 0.59193  0.90911  0.17830  Biso   1.000  N
  C302     1.0000 0.60350  0.87625  0.19849  Biso   1.000  C
  C303     1.0000 0.64547  0.89573  0.22508  Biso   1.000  C
  C304     1.0000 0.67577  0.95143  0.23047  Biso   1.000  C
  C305     1.0000 0.66397  0.98523  0.20973  Biso   1.000  C
  C306     1.0000 0.62147  0.96274  0.18407  Biso   1.000  C
  C307     1.0000 0.56820  0.81775  0.18936  Biso   1.000  C
  C308     1.0000 0.60338  0.99432  0.16009  Biso   1.000  C
  H121     1.0000 0.39829  0.77361  0.73250  Biso   1.000  H
  H122     1.0000 0.46054  0.74901  0.75726  Biso   1.000  H
  H123     1.0000 0.48921  0.76881  0.82171  Biso   1.000  H
  H124     1.0000 0.46497  0.68913  0.08722  Biso   1.000  H
  H125     1.0000 0.44865  0.60595  0.06026  Biso   1.000  H
  H126     1.0000 0.46460  0.60198  0.99415  Biso   1.000  H
  H127     1.0000 0.43846  0.01300  0.61442  Biso   1.000  H
  H128     1.0000 0.39662  0.06660  0.61242  Biso   1.000  H
  H129     1.0000 0.31344  0.03690  0.64476  Biso   1.000  H
  H130     1.0000 0.65311  0.87124  0.23962  Biso   1.000  H
  H131     1.0000 0.70561  0.96635  0.24872  Biso   1.000  H
  H132     1.0000 0.68515  0.02440  0.21322  Biso   1.000  H
  Eu45     1.0000 0.04999  0.21227  0.19217  Biso   1.000  Eu
  Eu46     1.0000 0.19069  0.14364  0.28921  Biso   1.000  Eu
  Eu47     1.0000 0.94917  0.17628  0.03073  Biso   1.000  Eu
  Eu48     1.0000 0.18446  0.20325  0.46110  Biso   1.000  Eu
  O177     1.0000 0.01640  0.19200  0.12731  Biso   1.000  O
  O178     1.0000 0.00545  0.15239  0.07061  Biso   1.000  O
  O179     1.0000 0.11139  0.18705  0.22111  Biso   1.000  O
  O180     1.0000 0.15213  0.13805  0.22500  Biso   1.000  O
  N45      1.0000 0.07909  0.15671  0.15198  Biso   1.000  N
  C309     1.0000 0.06243  0.14481  0.11576  Biso   1.000  C
  C310     1.0000 0.07863  0.11627  0.09198  Biso   1.000  C
  C311     1.0000 0.11413  0.10107  0.10685  Biso   1.000  C
  C312     1.0000 0.13124  0.11307  0.14427  Biso   1.000  C
  C313     1.0000 0.11230  0.14068  0.16615  Biso   1.000  C
  C314     1.0000 0.02509  0.16417  0.10311  Biso   1.000  C
  C315     1.0000 0.12664  0.15579  0.20718  Biso   1.000  C
  O181     1.0000 0.17742  0.15341  0.35646  Biso   1.000  O
  O182     1.0000 0.16911  0.12850  0.41759  Biso   1.000  O
  O183     1.0000 0.17666  0.06163  0.25871  Biso   1.000  O
  O184     1.0000 0.02378  0.18291  0.25894  Biso   1.000  O
  N46      1.0000 0.16312  0.06185  0.33222  Biso   1.000  N
  C316     1.0000 0.15578  0.06427  0.36965  Biso   1.000  C
  C317     1.0000 0.13753  0.01967  0.39335  Biso   1.000  C
  C318     1.0000 0.12823  0.97147  0.37760  Biso   1.000  C
  C319     1.0000 0.13693  0.96887  0.33902  Biso   1.000  C
  C320     1.0000 0.15404  0.01496  0.31707  Biso   1.000  C
  C321     1.0000 0.16818  0.11939  0.38291  Biso   1.000  C
  C322     1.0000 0.16397  0.01720  0.27510  Biso   1.000  C
  O185     1.0000 0.03451  0.20254  0.99940  Biso   1.000  O
  O186     1.0000 0.85056  0.11337  0.02641  Biso   1.000  O
  O187     1.0000 0.90380  0.22846  0.03160  Biso   1.000  O
  O188     1.0000 0.26238  0.23152  0.31357  Biso   1.000  O
  N47      1.0000 0.99733  0.26817  0.99817  Biso   1.000  N
  C323     1.0000 0.04494  0.28618  0.98046  Biso   1.000  C
  C324     1.0000 0.07073  0.33457  0.96052  Biso   1.000  C
  C325     1.0000 0.04633  0.36577  0.95964  Biso   1.000  C
  C326     1.0000 0.99743  0.34827  0.97809  Biso   1.000  C
  C327     1.0000 0.97395  0.29907  0.99709  Biso   1.000  C
  C328     1.0000 0.06662  0.24799  0.98442  Biso   1.000  C
  C329     1.0000 0.92133  0.27527  0.01752  Biso   1.000  C
  O189     1.0000 0.20056  0.13977  0.49627  Biso   1.000  O
  O190     1.0000 0.12362  0.24124  0.45842  Biso   1.000  O
  O191     1.0000 0.23489  0.30066  0.46820  Biso   1.000  O
  O192     1.0000 0.04376  0.28984  0.16703  Biso   1.000  O
  N48      1.0000 0.25859  0.24245  0.51164  Biso   1.000  N
  C330     1.0000 0.27016  0.20959  0.53183  Biso   1.000  C
  C331     1.0000 0.31213  0.22907  0.55842  Biso   1.000  C
  C332     1.0000 0.34243  0.28477  0.56381  Biso   1.000  C
  C333     1.0000 0.33063  0.31857  0.54307  Biso   1.000  C
  C334     1.0000 0.28813  0.29608  0.51741  Biso   1.000  C
  C335     1.0000 0.23486  0.15109  0.52270  Biso   1.000  C
  C336     1.0000 0.27004  0.32766  0.49343  Biso   1.000  C
  H133     1.0000 0.06495  0.10695  0.06584  Biso   1.000  H
  H134     1.0000 0.12720  0.08235  0.09060  Biso   1.000  H
  H135     1.0000 0.15587  0.10215  0.15505  Biso   1.000  H
  H136     1.0000 0.13163  0.02247  0.42056  Biso   1.000  H
  H137     1.0000 0.11531  0.93929  0.39360  Biso   1.000  H
  H138     1.0000 0.13126  0.93532  0.32749  Biso   1.000  H
  H139     1.0000 0.10512  0.34634  0.94776  Biso   1.000  H
  H140     1.0000 0.06328  0.39994  0.94576  Biso   1.000  H
  H141     1.0000 0.98010  0.37024  0.97810  Biso   1.000  H
  H142     1.0000 0.31977  0.20458  0.57296  Biso   1.000  H
  H143     1.0000 0.37227  0.29969  0.58206  Biso   1.000  H
  H144     1.0000 0.35181  0.35774  0.54656  Biso   1.000  H
  Eu49     1.0000 0.45440  0.17106  0.52550  Biso   1.000  Eu
  Eu50     1.0000 0.52303  0.38039  0.62254  Biso   1.000  Eu
  Eu51     1.0000 0.49039  0.10623  0.36406  Biso   1.000  Eu
  Eu52     1.0000 0.46341  0.31454  0.79444  Biso   1.000  Eu
  O193     1.0000 0.47467  0.15774  0.46064  Biso   1.000  O
  O194     1.0000 0.51428  0.18640  0.40394  Biso   1.000  O
  O195     1.0000 0.47962  0.25768  0.55444  Biso   1.000  O
  O196     1.0000 0.52862  0.34742  0.55833  Biso   1.000  O
  N49      1.0000 0.50996  0.25572  0.48531  Biso   1.000  N
  C337     1.0000 0.52186  0.25096  0.44909  Biso   1.000  C
  C338     1.0000 0.55040  0.29570  0.42531  Biso   1.000  C
  C339     1.0000 0.56560  0.34640  0.44018  Biso   1.000  C
  C340     1.0000 0.55360  0.35151  0.47760  Biso   1.000  C
  C341     1.0000 0.52599  0.30496  0.49948  Biso   1.000  C
  C342     1.0000 0.50250  0.19426  0.43644  Biso   1.000  C
  C343     1.0000 0.51088  0.30419  0.54051  Biso   1.000  C
  O197     1.0000 0.51326  0.35735  0.68979  Biso   1.000  O
  O198     1.0000 0.53817  0.37395  0.75092  Biso   1.000  O
  O199     1.0000 0.60504  0.44837  0.59204  Biso   1.000  O
  O200     1.0000 0.48376  0.17421  0.59227  Biso   1.000  O
  N50      1.0000 0.60482  0.43461  0.66555  Biso   1.000  N
  C344     1.0000 0.60240  0.42485  0.70298  Biso   1.000  C
  C345     1.0000 0.64700  0.45120  0.72668  Biso   1.000  C
  C346     1.0000 0.69520  0.49010  0.71093  Biso   1.000  C
  C347     1.0000 0.69780  0.50140  0.67235  Biso   1.000  C
  C348     1.0000 0.65171  0.47242  0.65040  Biso   1.000  C
  C349     1.0000 0.54728  0.38213  0.71624  Biso   1.000  C
  C350     1.0000 0.64947  0.48011  0.60843  Biso   1.000  C
  O201     1.0000 0.46413  0.16531  0.33273  Biso   1.000  O
  O202     1.0000 0.55330  0.07053  0.35974  Biso   1.000  O
  O203     1.0000 0.43821  0.00868  0.36493  Biso   1.000  O
  O204     1.0000 0.43515  0.36420  0.64690  Biso   1.000  O
  N51      1.0000 0.39850  0.06250  0.33150  Biso   1.000  N
  C351     1.0000 0.38049  0.09210  0.31379  Biso   1.000  C
  C352     1.0000 0.33210  0.06950  0.29385  Biso   1.000  C
  C353     1.0000 0.30090  0.01390  0.29297  Biso   1.000  C
  C354     1.0000 0.31840  0.98250  0.31142  Biso   1.000  C
  C355     1.0000 0.36760  0.00822  0.33042  Biso   1.000  C
  C356     1.0000 0.41868  0.15197  0.31775  Biso   1.000  C
  C357     1.0000 0.39140  0.97940  0.35085  Biso   1.000  C
  O205     1.0000 0.52690  0.39413  0.82960  Biso   1.000  O
  O206     1.0000 0.42543  0.21572  0.79175  Biso   1.000  O
  O207     1.0000 0.36601  0.26757  0.80153  Biso   1.000  O
  O208     1.0000 0.37683  0.08726  0.50036  Biso   1.000  O
  N52      1.0000 0.42422  0.34948  0.84497  Biso   1.000  N
  C358     1.0000 0.45708  0.39391  0.86516  Biso   1.000  C
  C359     1.0000 0.43760  0.41640  0.89175  Biso   1.000  C
  C360     1.0000 0.38190  0.39100  0.89714  Biso   1.000  C
  C361     1.0000 0.34810  0.34540  0.87640  Biso   1.000  C
  C362     1.0000 0.37059  0.32539  0.85074  Biso   1.000  C
  C363     1.0000 0.51558  0.41711  0.85603  Biso   1.000  C
  C364     1.0000 0.33901  0.27572  0.82676  Biso   1.000  C
  H145     1.0000 0.55972  0.29134  0.39917  Biso   1.000  H
  H146     1.0000 0.58432  0.37819  0.42393  Biso   1.000  H
  H147     1.0000 0.56452  0.38706  0.48838  Biso   1.000  H
  H148     1.0000 0.64420  0.44250  0.75389  Biso   1.000  H
  H149     1.0000 0.72738  0.50936  0.72693  Biso   1.000  H
  H150     1.0000 0.73135  0.52928  0.66082  Biso   1.000  H
  H151     1.0000 0.32033  0.09212  0.28109  Biso   1.000  H
  H152     1.0000 0.26673  0.99668  0.27909  Biso   1.000  H
  H153     1.0000 0.29643  0.94320  0.31143  Biso   1.000  H
  H154     1.0000 0.46209  0.44853  0.90629  Biso   1.000  H
  H155     1.0000 0.36698  0.40592  0.91539  Biso   1.000  H
  H156     1.0000 0.30893  0.32741  0.87989  Biso   1.000  H
  Eu53     1.0000 0.12107  0.50439  0.85884  Biso   1.000  Eu
  Eu54     1.0000 0.18970  0.71372  0.95587  Biso   1.000  Eu
  Eu55     1.0000 0.15706  0.43956  0.69739  Biso   1.000  Eu
  Eu56     1.0000 0.13008  0.64787  0.12777  Biso   1.000  Eu
  O209     1.0000 0.14134  0.49107  0.79397  Biso   1.000  O
  O210     1.0000 0.18095  0.51973  0.73727  Biso   1.000  O
  O211     1.0000 0.14629  0.59101  0.88777  Biso   1.000  O
  O212     1.0000 0.19529  0.68075  0.89166  Biso   1.000  O
  N53      1.0000 0.17663  0.58905  0.81864  Biso   1.000  N
  C365     1.0000 0.18853  0.58429  0.78242  Biso   1.000  C
  C366     1.0000 0.21707  0.62903  0.75864  Biso   1.000  C
  C367     1.0000 0.23227  0.67973  0.77351  Biso   1.000  C
  C368     1.0000 0.22027  0.68484  0.81093  Biso   1.000  C
  C369     1.0000 0.19266  0.63829  0.83281  Biso   1.000  C
  C370     1.0000 0.16917  0.52759  0.76977  Biso   1.000  C
  C371     1.0000 0.17755  0.63752  0.87384  Biso   1.000  C
  O213     1.0000 0.17993  0.69068  0.02312  Biso   1.000  O
  O214     1.0000 0.20484  0.70728  0.08425  Biso   1.000  O
  O215     1.0000 0.27171  0.78170  0.92537  Biso   1.000  O
  O216     1.0000 0.15043  0.50754  0.92560  Biso   1.000  O
  N54      1.0000 0.27149  0.76794  0.99888  Biso   1.000  N
  C372     1.0000 0.26907  0.75818  0.03631  Biso   1.000  C
  C373     1.0000 0.31367  0.78453  0.06001  Biso   1.000  C
  C374     1.0000 0.36187  0.82343  0.04426  Biso   1.000  C
  C375     1.0000 0.36447  0.83473  0.00568  Biso   1.000  C
  C376     1.0000 0.31838  0.80575  0.98373  Biso   1.000  C
  C377     1.0000 0.21395  0.71546  0.04957  Biso   1.000  C
  C378     1.0000 0.31614  0.81344  0.94176  Biso   1.000  C
  O217     1.0000 0.13080  0.49864  0.66606  Biso   1.000  O
  O218     1.0000 0.21997  0.40386  0.69307  Biso   1.000  O
  O219     1.0000 0.10488  0.34201  0.69826  Biso   1.000  O
  O220     1.0000 0.10182  0.69753  0.98023  Biso   1.000  O
  N55      1.0000 0.06517  0.39583  0.66483  Biso   1.000  N
  C379     1.0000 0.04716  0.42543  0.64712  Biso   1.000  C
  C380     1.0000 0.99877  0.40283  0.62718  Biso   1.000  C
  C381     1.0000 0.96757  0.34723  0.62630  Biso   1.000  C
  C382     1.0000 0.98507  0.31583  0.64475  Biso   1.000  C
  C383     1.0000 0.03427  0.34155  0.66375  Biso   1.000  C
  C384     1.0000 0.08535  0.48530  0.65108  Biso   1.000  C
  C385     1.0000 0.05807  0.31273  0.68418  Biso   1.000  C
  O221     1.0000 0.19357  0.72746  0.16293  Biso   1.000  O
  O222     1.0000 0.09210  0.54905  0.12508  Biso   1.000  O
  O223     1.0000 0.03268  0.60090  0.13486  Biso   1.000  O
  O224     1.0000 0.04350  0.42059  0.83369  Biso   1.000  O
  N56      1.0000 0.09089  0.68281  0.17830  Biso   1.000  N
  C386     1.0000 0.12375  0.72724  0.19849  Biso   1.000  C
  C387     1.0000 0.10427  0.74973  0.22508  Biso   1.000  C
  C388     1.0000 0.04857  0.72433  0.23047  Biso   1.000  C
  C389     1.0000 0.01477  0.67873  0.20973  Biso   1.000  C
  C390     1.0000 0.03726  0.65872  0.18407  Biso   1.000  C
  C391     1.0000 0.18225  0.75044  0.18936  Biso   1.000  C
  C392     1.0000 0.00568  0.60905  0.16009  Biso   1.000  C
  H157     1.0000 0.22639  0.62467  0.73250  Biso   1.000  H
  H158     1.0000 0.25099  0.71152  0.75726  Biso   1.000  H
  H159     1.0000 0.23119  0.72039  0.82171  Biso   1.000  H
  H160     1.0000 0.31087  0.77583  0.08722  Biso   1.000  H
  H161     1.0000 0.39405  0.84269  0.06026  Biso   1.000  H
  H162     1.0000 0.39802  0.86261  0.99415  Biso   1.000  H
  H163     1.0000 0.98700  0.42545  0.61442  Biso   1.000  H
  H164     1.0000 0.93340  0.33001  0.61242  Biso   1.000  H
  H165     1.0000 0.96310  0.27653  0.64476  Biso   1.000  H
  H166     1.0000 0.12876  0.78186  0.23962  Biso   1.000  H
  H167     1.0000 0.03365  0.73925  0.24872  Biso   1.000  H
  H168     1.0000 0.97560  0.66074  0.21322  Biso   1.000  H
  Eu57     1.0000 0.78773  0.83773  0.19217  Biso   1.000  Eu
  Eu58     1.0000 0.85636  0.04705  0.28921  Biso   1.000  Eu
  Eu59     1.0000 0.82372  0.77290  0.03073  Biso   1.000  Eu
  Eu60     1.0000 0.79675  0.98121  0.46110  Biso   1.000  Eu
  O225     1.0000 0.80800  0.82441  0.12731  Biso   1.000  O
  O226     1.0000 0.84761  0.85307  0.07061  Biso   1.000  O
  O227     1.0000 0.81295  0.92435  0.22111  Biso   1.000  O
  O228     1.0000 0.86195  0.01409  0.22500  Biso   1.000  O
  N57      1.0000 0.84329  0.92239  0.15198  Biso   1.000  N
  C393     1.0000 0.85519  0.91763  0.11576  Biso   1.000  C
  C394     1.0000 0.88373  0.96237  0.09198  Biso   1.000  C
  C395     1.0000 0.89893  0.01307  0.10685  Biso   1.000  C
  C396     1.0000 0.88693  0.01818  0.14427  Biso   1.000  C
  C397     1.0000 0.85932  0.97163  0.16615  Biso   1.000  C
  C398     1.0000 0.83583  0.86093  0.10311  Biso   1.000  C
  C399     1.0000 0.84421  0.97086  0.20718  Biso   1.000  C
  O229     1.0000 0.84659  0.02402  0.35646  Biso   1.000  O
  O230     1.0000 0.87150  0.04062  0.41759  Biso   1.000  O
  O231     1.0000 0.93837  0.11504  0.25871  Biso   1.000  O
  O232     1.0000 0.81709  0.84088  0.25894  Biso   1.000  O
  N58      1.0000 0.93815  0.10128  0.33222  Biso   1.000  N
  C400     1.0000 0.93573  0.09152  0.36965  Biso   1.000  C
  C401     1.0000 0.98033  0.11787  0.39335  Biso   1.000  C
  C402     1.0000 0.02853  0.15677  0.37760  Biso   1.000  C
  C403     1.0000 0.03113  0.16807  0.33902  Biso   1.000  C
  C404     1.0000 0.98504  0.13909  0.31707  Biso   1.000  C
  C405     1.0000 0.88061  0.04880  0.38291  Biso   1.000  C
  C406     1.0000 0.98280  0.14678  0.27510  Biso   1.000  C
  O233     1.0000 0.79746  0.83198  0.99940  Biso   1.000  O
  O234     1.0000 0.88663  0.73720  0.02641  Biso   1.000  O
  O235     1.0000 0.77154  0.67535  0.03160  Biso   1.000  O
  O236     1.0000 0.76848  0.03087  0.31357  Biso   1.000  O
  N59      1.0000 0.73183  0.72917  0.99817  Biso   1.000  N
  C407     1.0000 0.71382  0.75877  0.98046  Biso   1.000  C
  C408     1.0000 0.66543  0.73617  0.96052  Biso   1.000  C
  C409     1.0000 0.63423  0.68057  0.95964  Biso   1.000  C
  C410     1.0000 0.65173  0.64917  0.97809  Biso   1.000  C
  C411     1.0000 0.70093  0.67489  0.99709  Biso   1.000  C
  C412     1.0000 0.75201  0.81864  0.98442  Biso   1.000  C
  C413     1.0000 0.72473  0.64607  0.01752  Biso   1.000  C
  O237     1.0000 0.86023  0.06080  0.49627  Biso   1.000  O
  O238     1.0000 0.75876  0.88239  0.45842  Biso   1.000  O
  O239     1.0000 0.69934  0.93424  0.46820  Biso   1.000  O
  O240     1.0000 0.71016  0.75393  0.16703  Biso   1.000  O
  N60      1.0000 0.75755  0.01615  0.51164  Biso   1.000  N
  C414     1.0000 0.79041  0.06058  0.53183  Biso   1.000  C
  C415     1.0000 0.77093  0.08307  0.55842  Biso   1.000  C
  C416     1.0000 0.71523  0.05767  0.56381  Biso   1.000  C
  C417     1.0000 0.68143  0.01207  0.54307  Biso   1.000  C
  C418     1.0000 0.70392  0.99206  0.51741  Biso   1.000  C
  C419     1.0000 0.84891  0.08378  0.52270  Biso   1.000  C
  C420     1.0000 0.67234  0.94239  0.49343  Biso   1.000  C
  H169     1.0000 0.89305  0.95801  0.06584  Biso   1.000  H
  H170     1.0000 0.91765  0.04486  0.09060  Biso   1.000  H
  H171     1.0000 0.89785  0.05373  0.15505  Biso   1.000  H
  H172     1.0000 0.97753  0.10917  0.42056  Biso   1.000  H
  H173     1.0000 0.06071  0.17603  0.39360  Biso   1.000  H
  H174     1.0000 0.06468  0.19595  0.32749  Biso   1.000  H
  H175     1.0000 0.65366  0.75879  0.94776  Biso   1.000  H
  H176     1.0000 0.60006  0.66335  0.94576  Biso   1.000  H
  H177     1.0000 0.62976  0.60987  0.97810  Biso   1.000  H
  H178     1.0000 0.79542  0.11520  0.57296  Biso   1.000  H
  H179     1.0000 0.70031  0.07259  0.58206  Biso   1.000  H
  H180     1.0000 0.64226  0.99408  0.54656  Biso   1.000  H
  Eu61     1.0000 0.82894  0.28334  0.52550  Biso   1.000  Eu
  Eu62     1.0000 0.61961  0.14264  0.62254  Biso   1.000  Eu
  Eu63     1.0000 0.89377  0.38416  0.36406  Biso   1.000  Eu
  Eu64     1.0000 0.68546  0.14887  0.79444  Biso   1.000  Eu
  O241     1.0000 0.84226  0.31693  0.46064  Biso   1.000  O
  O242     1.0000 0.81360  0.32788  0.40394  Biso   1.000  O
  O243     1.0000 0.74232  0.22194  0.55444  Biso   1.000  O
  O244     1.0000 0.65258  0.18120  0.55833  Biso   1.000  O
  N61      1.0000 0.74428  0.25424  0.48531  Biso   1.000  N
  C421     1.0000 0.74904  0.27090  0.44909  Biso   1.000  C
  C422     1.0000 0.70430  0.25470  0.42531  Biso   1.000  C
  C423     1.0000 0.65360  0.21920  0.44018  Biso   1.000  C
  C424     1.0000 0.64849  0.20209  0.47760  Biso   1.000  C
  C425     1.0000 0.69504  0.22103  0.49948  Biso   1.000  C
  C426     1.0000 0.80574  0.30824  0.43644  Biso   1.000  C
  C427     1.0000 0.69581  0.20669  0.54051  Biso   1.000  C
  O245     1.0000 0.64265  0.15591  0.68979  Biso   1.000  O
  O246     1.0000 0.62605  0.16422  0.75092  Biso   1.000  O
  O247     1.0000 0.55163  0.15667  0.59204  Biso   1.000  O
  O248     1.0000 0.82579  0.30955  0.59227  Biso   1.000  O
  N62      1.0000 0.56539  0.17021  0.66555  Biso   1.000  N
  C428     1.0000 0.57515  0.17755  0.70298  Biso   1.000  C
  C429     1.0000 0.54880  0.19580  0.72668  Biso   1.000  C
  C430     1.0000 0.50990  0.20510  0.71093  Biso   1.000  C
  C431     1.0000 0.49860  0.19640  0.67235  Biso   1.000  C
  C432     1.0000 0.52758  0.17929  0.65040  Biso   1.000  C
  C433     1.0000 0.61787  0.16515  0.71624  Biso   1.000  C
  C434     1.0000 0.51989  0.16936  0.60843  Biso   1.000  C
  O249     1.0000 0.83469  0.29882  0.33273  Biso   1.000  O
  O250     1.0000 0.92947  0.48277  0.35974  Biso   1.000  O
  O251     1.0000 0.99132  0.42953  0.36493  Biso   1.000  O
  O252     1.0000 0.63580  0.07095  0.64690  Biso   1.000  O
  N63      1.0000 0.93750  0.33600  0.33150  Biso   1.000  N
  C435     1.0000 0.90790  0.28839  0.31379  Biso   1.000  C
  C436     1.0000 0.93050  0.26260  0.29385  Biso   1.000  C
  C437     1.0000 0.98610  0.28700  0.29297  Biso   1.000  C
  C438     1.0000 0.01750  0.33590  0.31142  Biso   1.000  C
  C439     1.0000 0.99178  0.35938  0.33042  Biso   1.000  C
  C440     1.0000 0.84803  0.26671  0.31775  Biso   1.000  C
  C441     1.0000 0.02060  0.41200  0.35085  Biso   1.000  C
  O253     1.0000 0.60587  0.13277  0.82960  Biso   1.000  O
  O254     1.0000 0.78428  0.20971  0.79175  Biso   1.000  O
  O255     1.0000 0.73243  0.09844  0.80153  Biso   1.000  O
  O256     1.0000 0.91274  0.28957  0.50036  Biso   1.000  O
  N64      1.0000 0.65052  0.07474  0.84497  Biso   1.000  N
  C442     1.0000 0.60609  0.06317  0.86516  Biso   1.000  C
  C443     1.0000 0.58360  0.02120  0.89175  Biso   1.000  C
  C444     1.0000 0.60900  0.99090  0.89714  Biso   1.000  C
  C445     1.0000 0.65460  0.00270  0.87640  Biso   1.000  C
  C446     1.0000 0.67461  0.04520  0.85074  Biso   1.000  C
  C447     1.0000 0.58289  0.09847  0.85603  Biso   1.000  C
  C448     1.0000 0.72428  0.06329  0.82676  Biso   1.000  C
  H181     1.0000 0.70866  0.26838  0.39917  Biso   1.000  H
  H182     1.0000 0.62181  0.20613  0.42393  Biso   1.000  H
  H183     1.0000 0.61294  0.17746  0.48838  Biso   1.000  H
  H184     1.0000 0.55750  0.20170  0.75389  Biso   1.000  H
  H185     1.0000 0.49064  0.21802  0.72693  Biso   1.000  H
  H186     1.0000 0.47072  0.20207  0.66082  Biso   1.000  H
  H187     1.0000 0.90788  0.22821  0.28109  Biso   1.000  H
  H188     1.0000 0.00332  0.27005  0.27909  Biso   1.000  H
  H189     1.0000 0.05680  0.35323  0.31143  Biso   1.000  H
  H190     1.0000 0.55147  0.01356  0.90629  Biso   1.000  H
  H191     1.0000 0.59408  0.96106  0.91539  Biso   1.000  H
  H192     1.0000 0.67259  0.98152  0.87989  Biso   1.000  H
  Eu65     1.0000 0.49561  0.61667  0.85884  Biso   1.000  Eu
  Eu66     1.0000 0.28628  0.47598  0.95587  Biso   1.000  Eu
  Eu67     1.0000 0.56044  0.71749  0.69739  Biso   1.000  Eu
  Eu68     1.0000 0.35213  0.48221  0.12777  Biso   1.000  Eu
  O257     1.0000 0.50893  0.65026  0.79397  Biso   1.000  O
  O258     1.0000 0.48027  0.66121  0.73727  Biso   1.000  O
  O259     1.0000 0.40899  0.55527  0.88777  Biso   1.000  O
  O260     1.0000 0.31925  0.51453  0.89166  Biso   1.000  O
  N65      1.0000 0.41095  0.58757  0.81864  Biso   1.000  N
  C449     1.0000 0.41571  0.60423  0.78242  Biso   1.000  C
  C450     1.0000 0.37097  0.58803  0.75864  Biso   1.000  C
  C451     1.0000 0.32027  0.55253  0.77351  Biso   1.000  C
  C452     1.0000 0.31516  0.53542  0.81093  Biso   1.000  C
  C453     1.0000 0.36171  0.55436  0.83281  Biso   1.000  C
  C454     1.0000 0.47241  0.64157  0.76977  Biso   1.000  C
  C455     1.0000 0.36248  0.54002  0.87384  Biso   1.000  C
  O261     1.0000 0.30932  0.48924  0.02312  Biso   1.000  O
  O262     1.0000 0.29272  0.49755  0.08425  Biso   1.000  O
  O263     1.0000 0.21830  0.49000  0.92537  Biso   1.000  O
  O264     1.0000 0.49246  0.64288  0.92560  Biso   1.000  O
  N66      1.0000 0.23206  0.50354  0.99888  Biso   1.000  N
  C456     1.0000 0.24182  0.51088  0.03631  Biso   1.000  C
  C457     1.0000 0.21547  0.52913  0.06001  Biso   1.000  C
  C458     1.0000 0.17657  0.53843  0.04426  Biso   1.000  C
  C459     1.0000 0.16527  0.52973  0.00568  Biso   1.000  C
  C460     1.0000 0.19425  0.51262  0.98373  Biso   1.000  C
  C461     1.0000 0.28454  0.49848  0.04957  Biso   1.000  C
  C462     1.0000 0.18656  0.50269  0.94176  Biso   1.000  C
  O265     1.0000 0.50136  0.63215  0.66606  Biso   1.000  O
  O266     1.0000 0.59614  0.81610  0.69307  Biso   1.000  O
  O267     1.0000 0.65799  0.76286  0.69826  Biso   1.000  O
  O268     1.0000 0.30247  0.40428  0.98023  Biso   1.000  O
  N67      1.0000 0.60417  0.66933  0.66483  Biso   1.000  N
  C463     1.0000 0.57457  0.62172  0.64712  Biso   1.000  C
  C464     1.0000 0.59717  0.59593  0.62718  Biso   1.000  C
  C465     1.0000 0.65277  0.62033  0.62630  Biso   1.000  C
  C466     1.0000 0.68417  0.66923  0.64475  Biso   1.000  C
  C467     1.0000 0.65845  0.69271  0.66375  Biso   1.000  C
  C468     1.0000 0.51470  0.60004  0.65108  Biso   1.000  C
  C469     1.0000 0.68727  0.74533  0.68418  Biso   1.000  C
  O269     1.0000 0.27254  0.46610  0.16293  Biso   1.000  O
  O270     1.0000 0.45095  0.54304  0.12508  Biso   1.000  O
  O271     1.0000 0.39910  0.43177  0.13486  Biso   1.000  O
  O272     1.0000 0.57941  0.62290  0.83369  Biso   1.000  O
  N68      1.0000 0.31719  0.40807  0.17830  Biso   1.000  N
  C470     1.0000 0.27276  0.39650  0.19849  Biso   1.000  C
  C471     1.0000 0.25027  0.35453  0.22508  Biso   1.000  C
  C472     1.0000 0.27567  0.32423  0.23047  Biso   1.000  C
  C473     1.0000 0.32127  0.33603  0.20973  Biso   1.000  C
  C474     1.0000 0.34128  0.37853  0.18407  Biso   1.000  C
  C475     1.0000 0.24956  0.43180  0.18936  Biso   1.000  C
  C476     1.0000 0.39095  0.39662  0.16009  Biso   1.000  C
  H193     1.0000 0.37533  0.60171  0.73250  Biso   1.000  H
  H194     1.0000 0.28848  0.53946  0.75726  Biso   1.000  H
  H195     1.0000 0.27961  0.51079  0.82171  Biso   1.000  H
  H196     1.0000 0.22417  0.53503  0.08722  Biso   1.000  H
  H197     1.0000 0.15731  0.55135  0.06026  Biso   1.000  H
  H198     1.0000 0.13739  0.53540  0.99415  Biso   1.000  H
  H199     1.0000 0.57455  0.56154  0.61442  Biso   1.000  H
  H200     1.0000 0.66999  0.60338  0.61242  Biso   1.000  H
  H201     1.0000 0.72347  0.68656  0.64476  Biso   1.000  H
  H202     1.0000 0.21814  0.34689  0.23962  Biso   1.000  H
  H203     1.0000 0.26075  0.29439  0.24872  Biso   1.000  H
  H204     1.0000 0.33926  0.31485  0.21322  Biso   1.000  H
  Eu69     1.0000 0.16227  0.95001  0.19217  Biso   1.000  Eu
  Eu70     1.0000 0.95295  0.80931  0.28921  Biso   1.000  Eu
  Eu71     1.0000 0.22710  0.05083  0.03073  Biso   1.000  Eu
  Eu72     1.0000 0.01879  0.81554  0.46110  Biso   1.000  Eu
  O273     1.0000 0.17559  0.98360  0.12731  Biso   1.000  O
  O274     1.0000 0.14693  0.99455  0.07061  Biso   1.000  O
  O275     1.0000 0.07565  0.88861  0.22111  Biso   1.000  O
  O276     1.0000 0.98591  0.84787  0.22500  Biso   1.000  O
  N69      1.0000 0.07761  0.92091  0.15198  Biso   1.000  N
  C477     1.0000 0.08237  0.93757  0.11576  Biso   1.000  C
  C478     1.0000 0.03763  0.92137  0.09198  Biso   1.000  C
  C479     1.0000 0.98693  0.88587  0.10685  Biso   1.000  C
  C480     1.0000 0.98182  0.86876  0.14427  Biso   1.000  C
  C481     1.0000 0.02837  0.88770  0.16615  Biso   1.000  C
  C482     1.0000 0.13907  0.97491  0.10311  Biso   1.000  C
  C483     1.0000 0.02914  0.87336  0.20718  Biso   1.000  C
  O277     1.0000 0.97598  0.82258  0.35646  Biso   1.000  O
  O278     1.0000 0.95938  0.83089  0.41759  Biso   1.000  O
  O279     1.0000 0.88496  0.82334  0.25871  Biso   1.000  O
  O280     1.0000 0.15912  0.97622  0.25894  Biso   1.000  O
  N70      1.0000 0.89872  0.83688  0.33222  Biso   1.000  N
  C484     1.0000 0.90848  0.84422  0.36965  Biso   1.000  C
  C485     1.0000 0.88213  0.86247  0.39335  Biso   1.000  C
  C486     1.0000 0.84323  0.87177  0.37760  Biso   1.000  C
  C487     1.0000 0.83193  0.86307  0.33902  Biso   1.000  C
  C488     1.0000 0.86091  0.84596  0.31707  Biso   1.000  C
  C489     1.0000 0.95120  0.83182  0.38291  Biso   1.000  C
  C490     1.0000 0.85322  0.83603  0.27510  Biso   1.000  C
  O281     1.0000 0.16802  0.96549  0.99940  Biso   1.000  O
  O282     1.0000 0.26280  0.14944  0.02641  Biso   1.000  O
  O283     1.0000 0.32465  0.09620  0.03160  Biso   1.000  O
  O284     1.0000 0.96913  0.73762  0.31357  Biso   1.000  O
  N71      1.0000 0.27083  0.00267  0.99817  Biso   1.000  N
  C491     1.0000 0.24123  0.95506  0.98046  Biso   1.000  C
  C492     1.0000 0.26383  0.92927  0.96052  Biso   1.000  C
  C493     1.0000 0.31943  0.95367  0.95964  Biso   1.000  C
  C494     1.0000 0.35083  0.00257  0.97809  Biso   1.000  C
  C495     1.0000 0.32511  0.02605  0.99709  Biso   1.000  C
  C496     1.0000 0.18136  0.93338  0.98442  Biso   1.000  C
  C497     1.0000 0.35393  0.07867  0.01752  Biso   1.000  C
  O285     1.0000 0.93920  0.79944  0.49627  Biso   1.000  O
  O286     1.0000 0.11761  0.87638  0.45842  Biso   1.000  O
  O287     1.0000 0.06576  0.76511  0.46820  Biso   1.000  O
  O288     1.0000 0.24607  0.95624  0.16703  Biso   1.000  O
  N72      1.0000 0.98385  0.74141  0.51164  Biso   1.000  N
  C498     1.0000 0.93942  0.72984  0.53183  Biso   1.000  C
  C499     1.0000 0.91693  0.68787  0.55842  Biso   1.000  C
  C500     1.0000 0.94233  0.65757  0.56381  Biso   1.000  C
  C501     1.0000 0.98793  0.66937  0.54307  Biso   1.000  C
  C502     1.0000 0.00794  0.71187  0.51741  Biso   1.000  C
  C503     1.0000 0.91622  0.76514  0.52270  Biso   1.000  C
  C504     1.0000 0.05761  0.72996  0.49343  Biso   1.000  C
  H205     1.0000 0.04199  0.93505  0.06584  Biso   1.000  H
  H206     1.0000 0.95514  0.87280  0.09060  Biso   1.000  H
  H207     1.0000 0.94627  0.84413  0.15505  Biso   1.000  H
  H208     1.0000 0.89083  0.86837  0.42056  Biso   1.000  H
  H209     1.0000 0.82397  0.88469  0.39360  Biso   1.000  H
  H210     1.0000 0.80405  0.86874  0.32749  Biso   1.000  H
  H211     1.0000 0.24121  0.89488  0.94776  Biso   1.000  H
  H212     1.0000 0.33665  0.93672  0.94576  Biso   1.000  H
  H213     1.0000 0.39013  0.01990  0.97810  Biso   1.000  H
  H214     1.0000 0.88480  0.68023  0.57296  Biso   1.000  H
  H215     1.0000 0.92741  0.62773  0.58206  Biso   1.000  H
  H216     1.0000 0.00592  0.64819  0.54656  Biso   1.000  H
