data_image0
_cell_length_a       24.748
_cell_length_b       32.354
_cell_length_c       21.712
_cell_angle_alpha    90
_cell_angle_beta     90
_cell_angle_gamma    90

_symmetry_space_group_name_H-M    "P 1"
_symmetry_int_tables_number       1

loop_
  _symmetry_equiv_pos_as_xyz
  'x, y, z'

loop_
  _atom_site_label
  _atom_site_occupancy
  _atom_site_fract_x
  _atom_site_fract_y
  _atom_site_fract_z
  _atom_site_thermal_displace_type
  _atom_site_B_iso_or_equiv
  _atom_site_type_symbol
  C1       1.0000 0.59140  0.32290  0.20890  Biso   1.000  C
  C2       1.0000 0.56850  0.30930  0.26280  Biso   1.000  C
  H1       1.0000 0.54280  0.28840  0.26150  Biso   1.000  H
  C3       1.0000 0.58320  0.32630  0.32010  Biso   1.000  C
  C4       1.0000 0.62480  0.35650  0.32100  Biso   1.000  C
  H2       1.0000 0.63970  0.36540  0.35800  Biso   1.000  H
  C5       1.0000 0.64250  0.37230  0.26550  Biso   1.000  C
  C6       1.0000 0.62550  0.35780  0.21040  Biso   1.000  C
  H3       1.0000 0.63610  0.37070  0.17410  Biso   1.000  H
  C7       1.0000 0.57070  0.30670  0.14980  Biso   1.000  C
  C8       1.0000 0.56550  0.30970  0.38200  Biso   1.000  C
  C9       1.0000 0.82540  0.44430  0.63170  Biso   1.000  C
  C10      1.0000 0.81640  0.43880  0.40060  Biso   1.000  C
  C11      1.0000 0.87390  0.39180  0.45960  Biso   1.000  C
  H4       1.0000 0.88110  0.37860  0.42250  Biso   1.000  H
  C12      1.0000 0.84090  0.42470  0.45930  Biso   1.000  C
  C13      1.0000 0.82320  0.44130  0.51340  Biso   1.000  C
  H5       1.0000 0.79920  0.46340  0.51300  Biso   1.000  H
  C14      1.0000 0.84120  0.42480  0.57020  Biso   1.000  C
  C15      1.0000 0.88300  0.39400  0.56970  Biso   1.000  C
  H6       1.0000 0.89970  0.38610  0.60620  Biso   1.000  H
  C16      1.0000 0.89820  0.37630  0.51390  Biso   1.000  C
  O1       1.0000 0.54330  0.27450  0.15090  Biso   1.000  O
  O2       1.0000 0.59380  0.32230  0.10190  Biso   1.000  O
  O3       1.0000 0.69100  0.43290  0.20880  Biso   1.000  O
  O4       1.0000 0.74430  0.38681  0.27310  Biso   1.000  O
  O5       1.0000 0.68580  0.43730  0.32040  Biso   1.000  O
  O6       1.0000 0.55160  0.26726  0.01370  Biso   1.000  O
  O7       1.0000 0.45920  0.22908  0.01240  Biso   1.000  O
  O8       1.0000 0.78580  0.47010  0.40120  Biso   1.000  O
  O9       1.0000 0.83160  0.42210  0.67620  Biso   1.000  O
  O10      1.0000 0.79710  0.47570  0.63030  Biso   1.000  O
  O11      1.0000 0.53320  0.27990  0.38090  Biso   1.000  O
  O12      1.0000 0.57510  0.33190  0.42530  Biso   1.000  O
  O13      1.0000 0.83940  0.42330  0.35130  Biso   1.000  O
  O14      1.0000 0.93900  0.31160  0.56820  Biso   1.000  O
  O15      1.0000 0.99700  0.35730  0.51750  Biso   1.000  O
  S1       1.0000 0.69501  0.41073  0.26680  Biso   1.000  S
  S2       1.0000 0.94647  0.33648  0.51320  Biso   1.000  S
  Cu1      1.0000 0.50808  0.24579  0.94505  Biso   1.000  Cu
  Cu2      1.0000 0.82347  0.42376  0.26319  Biso   1.000  Cu
  Cu3      1.0000 0.57767  0.32398  0.01391  Biso   1.000  Cu
  Cu4      1.0000 0.50600  0.24623  0.08346  Biso   1.000  Cu
  O16      1.0000 0.93920  0.31540  0.45880  Biso   1.000  O
  C17      1.0000 0.59140  0.82290  0.70890  Biso   1.000  C
  C18      1.0000 0.56850  0.80930  0.76280  Biso   1.000  C
  H7       1.0000 0.54280  0.78840  0.76150  Biso   1.000  H
  C19      1.0000 0.58320  0.82630  0.82010  Biso   1.000  C
  C20      1.0000 0.62480  0.85650  0.82100  Biso   1.000  C
  H8       1.0000 0.63970  0.86540  0.85800  Biso   1.000  H
  C21      1.0000 0.64250  0.87230  0.76550  Biso   1.000  C
  C22      1.0000 0.62550  0.85780  0.71040  Biso   1.000  C
  H9       1.0000 0.63610  0.87070  0.67410  Biso   1.000  H
  C23      1.0000 0.57070  0.80670  0.64980  Biso   1.000  C
  C24      1.0000 0.56550  0.80970  0.88200  Biso   1.000  C
  C25      1.0000 0.82540  0.94430  0.13170  Biso   1.000  C
  C26      1.0000 0.81640  0.93880  0.90060  Biso   1.000  C
  C27      1.0000 0.87390  0.89180  0.95960  Biso   1.000  C
  H10      1.0000 0.88110  0.87860  0.92250  Biso   1.000  H
  C28      1.0000 0.84090  0.92470  0.95930  Biso   1.000  C
  C29      1.0000 0.82320  0.94130  0.01340  Biso   1.000  C
  H11      1.0000 0.79920  0.96340  0.01300  Biso   1.000  H
  C30      1.0000 0.84120  0.92480  0.07020  Biso   1.000  C
  C31      1.0000 0.88300  0.89400  0.06970  Biso   1.000  C
  H12      1.0000 0.89970  0.88610  0.10620  Biso   1.000  H
  C32      1.0000 0.89820  0.87630  0.01390  Biso   1.000  C
  O17      1.0000 0.54330  0.77450  0.65090  Biso   1.000  O
  O18      1.0000 0.59380  0.82230  0.60190  Biso   1.000  O
  O19      1.0000 0.69100  0.93290  0.70880  Biso   1.000  O
  O20      1.0000 0.74430  0.88681  0.77310  Biso   1.000  O
  O21      1.0000 0.68580  0.93730  0.82040  Biso   1.000  O
  O22      1.0000 0.55160  0.76726  0.51370  Biso   1.000  O
  O23      1.0000 0.45920  0.72908  0.51240  Biso   1.000  O
  O24      1.0000 0.78580  0.97010  0.90120  Biso   1.000  O
  O25      1.0000 0.83160  0.92210  0.17620  Biso   1.000  O
  O26      1.0000 0.79710  0.97570  0.13030  Biso   1.000  O
  O27      1.0000 0.53320  0.77990  0.88090  Biso   1.000  O
  O28      1.0000 0.57510  0.83190  0.92530  Biso   1.000  O
  O29      1.0000 0.83940  0.92330  0.85130  Biso   1.000  O
  O30      1.0000 0.93900  0.81160  0.06820  Biso   1.000  O
  O31      1.0000 0.99700  0.85730  0.01750  Biso   1.000  O
  S3       1.0000 0.69501  0.91073  0.76680  Biso   1.000  S
  S4       1.0000 0.94647  0.83648  0.01320  Biso   1.000  S
  Cu5      1.0000 0.50808  0.74579  0.44505  Biso   1.000  Cu
  Cu6      1.0000 0.82347  0.92376  0.76319  Biso   1.000  Cu
  Cu7      1.0000 0.57767  0.82398  0.51391  Biso   1.000  Cu
  Cu8      1.0000 0.50600  0.74623  0.58346  Biso   1.000  Cu
  O32      1.0000 0.93920  0.81540  0.95880  Biso   1.000  O
  C33      1.0000 0.09140  0.32290  0.70890  Biso   1.000  C
  C34      1.0000 0.06850  0.30930  0.76280  Biso   1.000  C
  H13      1.0000 0.04280  0.28840  0.76150  Biso   1.000  H
  C35      1.0000 0.08320  0.32630  0.82010  Biso   1.000  C
  C36      1.0000 0.12480  0.35650  0.82100  Biso   1.000  C
  H14      1.0000 0.13970  0.36540  0.85800  Biso   1.000  H
  C37      1.0000 0.14250  0.37230  0.76550  Biso   1.000  C
  C38      1.0000 0.12550  0.35780  0.71040  Biso   1.000  C
  H15      1.0000 0.13610  0.37070  0.67410  Biso   1.000  H
  C39      1.0000 0.07070  0.30670  0.64980  Biso   1.000  C
  C40      1.0000 0.06550  0.30970  0.88200  Biso   1.000  C
  C41      1.0000 0.32540  0.44430  0.13170  Biso   1.000  C
  C42      1.0000 0.31640  0.43880  0.90060  Biso   1.000  C
  C43      1.0000 0.37390  0.39180  0.95960  Biso   1.000  C
  H16      1.0000 0.38110  0.37860  0.92250  Biso   1.000  H
  C44      1.0000 0.34090  0.42470  0.95930  Biso   1.000  C
  C45      1.0000 0.32320  0.44130  0.01340  Biso   1.000  C
  H17      1.0000 0.29920  0.46340  0.01300  Biso   1.000  H
  C46      1.0000 0.34120  0.42480  0.07020  Biso   1.000  C
  C47      1.0000 0.38300  0.39400  0.06970  Biso   1.000  C
  H18      1.0000 0.39970  0.38610  0.10620  Biso   1.000  H
  C48      1.0000 0.39820  0.37630  0.01390  Biso   1.000  C
  O33      1.0000 0.04330  0.27450  0.65090  Biso   1.000  O
  O34      1.0000 0.09380  0.32230  0.60190  Biso   1.000  O
  O35      1.0000 0.19100  0.43290  0.70880  Biso   1.000  O
  O36      1.0000 0.24430  0.38681  0.77310  Biso   1.000  O
  O37      1.0000 0.18580  0.43730  0.82040  Biso   1.000  O
  O38      1.0000 0.05160  0.26726  0.51370  Biso   1.000  O
  O39      1.0000 0.95920  0.22908  0.51240  Biso   1.000  O
  O40      1.0000 0.28580  0.47010  0.90120  Biso   1.000  O
  O41      1.0000 0.33160  0.42210  0.17620  Biso   1.000  O
  O42      1.0000 0.29710  0.47570  0.13030  Biso   1.000  O
  O43      1.0000 0.03320  0.27990  0.88090  Biso   1.000  O
  O44      1.0000 0.07510  0.33190  0.92530  Biso   1.000  O
  O45      1.0000 0.33940  0.42330  0.85130  Biso   1.000  O
  O46      1.0000 0.43900  0.31160  0.06820  Biso   1.000  O
  O47      1.0000 0.49700  0.35730  0.01750  Biso   1.000  O
  S5       1.0000 0.19501  0.41073  0.76680  Biso   1.000  S
  S6       1.0000 0.44647  0.33648  0.01320  Biso   1.000  S
  Cu9      1.0000 0.00808  0.24579  0.44505  Biso   1.000  Cu
  Cu10     1.0000 0.32347  0.42376  0.76319  Biso   1.000  Cu
  Cu11     1.0000 0.07767  0.32398  0.51391  Biso   1.000  Cu
  Cu12     1.0000 0.00600  0.24623  0.58346  Biso   1.000  Cu
  O48      1.0000 0.43920  0.31540  0.95880  Biso   1.000  O
  C49      1.0000 0.09140  0.82290  0.20890  Biso   1.000  C
  C50      1.0000 0.06850  0.80930  0.26280  Biso   1.000  C
  H19      1.0000 0.04280  0.78840  0.26150  Biso   1.000  H
  C51      1.0000 0.08320  0.82630  0.32010  Biso   1.000  C
  C52      1.0000 0.12480  0.85650  0.32100  Biso   1.000  C
  H20      1.0000 0.13970  0.86540  0.35800  Biso   1.000  H
  C53      1.0000 0.14250  0.87230  0.26550  Biso   1.000  C
  C54      1.0000 0.12550  0.85780  0.21040  Biso   1.000  C
  H21      1.0000 0.13610  0.87070  0.17410  Biso   1.000  H
  C55      1.0000 0.07070  0.80670  0.14980  Biso   1.000  C
  C56      1.0000 0.06550  0.80970  0.38200  Biso   1.000  C
  C57      1.0000 0.32540  0.94430  0.63170  Biso   1.000  C
  C58      1.0000 0.31640  0.93880  0.40060  Biso   1.000  C
  C59      1.0000 0.37390  0.89180  0.45960  Biso   1.000  C
  H22      1.0000 0.38110  0.87860  0.42250  Biso   1.000  H
  C60      1.0000 0.34090  0.92470  0.45930  Biso   1.000  C
  C61      1.0000 0.32320  0.94130  0.51340  Biso   1.000  C
  H23      1.0000 0.29920  0.96340  0.51300  Biso   1.000  H
  C62      1.0000 0.34120  0.92480  0.57020  Biso   1.000  C
  C63      1.0000 0.38300  0.89400  0.56970  Biso   1.000  C
  H24      1.0000 0.39970  0.88610  0.60620  Biso   1.000  H
  C64      1.0000 0.39820  0.87630  0.51390  Biso   1.000  C
  O49      1.0000 0.04330  0.77450  0.15090  Biso   1.000  O
  O50      1.0000 0.09380  0.82230  0.10190  Biso   1.000  O
  O51      1.0000 0.19100  0.93290  0.20880  Biso   1.000  O
  O52      1.0000 0.24430  0.88681  0.27310  Biso   1.000  O
  O53      1.0000 0.18580  0.93730  0.32040  Biso   1.000  O
  O54      1.0000 0.05160  0.76726  0.01370  Biso   1.000  O
  O55      1.0000 0.95920  0.72908  0.01240  Biso   1.000  O
  O56      1.0000 0.28580  0.97010  0.40120  Biso   1.000  O
  O57      1.0000 0.33160  0.92210  0.67620  Biso   1.000  O
  O58      1.0000 0.29710  0.97570  0.63030  Biso   1.000  O
  O59      1.0000 0.03320  0.77990  0.38090  Biso   1.000  O
  O60      1.0000 0.07510  0.83190  0.42530  Biso   1.000  O
  O61      1.0000 0.33940  0.92330  0.35130  Biso   1.000  O
  O62      1.0000 0.43900  0.81160  0.56820  Biso   1.000  O
  O63      1.0000 0.49700  0.85730  0.51750  Biso   1.000  O
  S7       1.0000 0.19501  0.91073  0.26680  Biso   1.000  S
  S8       1.0000 0.44647  0.83648  0.51320  Biso   1.000  S
  Cu13     1.0000 0.00808  0.74579  0.94505  Biso   1.000  Cu
  Cu14     1.0000 0.32347  0.92376  0.26319  Biso   1.000  Cu
  Cu15     1.0000 0.07767  0.82398  0.01391  Biso   1.000  Cu
  Cu16     1.0000 0.00600  0.74623  0.08346  Biso   1.000  Cu
  O64      1.0000 0.43920  0.81540  0.45880  Biso   1.000  O
  C65      1.0000 0.40860  0.67710  0.20890  Biso   1.000  C
  C66      1.0000 0.43150  0.69070  0.26280  Biso   1.000  C
  H25      1.0000 0.45720  0.71160  0.26150  Biso   1.000  H
  C67      1.0000 0.41680  0.67370  0.32010  Biso   1.000  C
  C68      1.0000 0.37520  0.64350  0.32100  Biso   1.000  C
  H26      1.0000 0.36030  0.63460  0.35800  Biso   1.000  H
  C69      1.0000 0.35750  0.62770  0.26550  Biso   1.000  C
  C70      1.0000 0.37450  0.64220  0.21040  Biso   1.000  C
  H27      1.0000 0.36390  0.62930  0.17410  Biso   1.000  H
  C71      1.0000 0.42930  0.69330  0.14980  Biso   1.000  C
  C72      1.0000 0.43450  0.69030  0.38200  Biso   1.000  C
  C73      1.0000 0.17460  0.55570  0.63170  Biso   1.000  C
  C74      1.0000 0.18360  0.56120  0.40060  Biso   1.000  C
  C75      1.0000 0.12610  0.60820  0.45960  Biso   1.000  C
  H28      1.0000 0.11890  0.62140  0.42250  Biso   1.000  H
  C76      1.0000 0.15910  0.57530  0.45930  Biso   1.000  C
  C77      1.0000 0.17680  0.55870  0.51340  Biso   1.000  C
  H29      1.0000 0.20080  0.53660  0.51300  Biso   1.000  H
  C78      1.0000 0.15880  0.57520  0.57020  Biso   1.000  C
  C79      1.0000 0.11700  0.60600  0.56970  Biso   1.000  C
  H30      1.0000 0.10030  0.61390  0.60620  Biso   1.000  H
  C80      1.0000 0.10180  0.62370  0.51390  Biso   1.000  C
  O65      1.0000 0.45670  0.72550  0.15090  Biso   1.000  O
  O66      1.0000 0.40620  0.67770  0.10190  Biso   1.000  O
  O67      1.0000 0.30900  0.56710  0.20880  Biso   1.000  O
  O68      1.0000 0.25570  0.61319  0.27310  Biso   1.000  O
  O69      1.0000 0.31420  0.56270  0.32040  Biso   1.000  O
  O70      1.0000 0.44840  0.73274  0.01370  Biso   1.000  O
  O71      1.0000 0.54080  0.77092  0.01240  Biso   1.000  O
  O72      1.0000 0.21420  0.52990  0.40120  Biso   1.000  O
  O73      1.0000 0.16840  0.57790  0.67620  Biso   1.000  O
  O74      1.0000 0.20290  0.52430  0.63030  Biso   1.000  O
  O75      1.0000 0.46680  0.72010  0.38090  Biso   1.000  O
  O76      1.0000 0.42490  0.66810  0.42530  Biso   1.000  O
  O77      1.0000 0.16060  0.57670  0.35130  Biso   1.000  O
  O78      1.0000 0.06100  0.68840  0.56820  Biso   1.000  O
  O79      1.0000 0.00300  0.64270  0.51750  Biso   1.000  O
  S9       1.0000 0.30499  0.58927  0.26680  Biso   1.000  S
  S10      1.0000 0.05353  0.66352  0.51320  Biso   1.000  S
  Cu17     1.0000 0.49192  0.75421  0.94505  Biso   1.000  Cu
  Cu18     1.0000 0.17653  0.57624  0.26319  Biso   1.000  Cu
  Cu19     1.0000 0.42233  0.67602  0.01391  Biso   1.000  Cu
  Cu20     1.0000 0.49400  0.75377  0.08346  Biso   1.000  Cu
  O80      1.0000 0.06080  0.68460  0.45880  Biso   1.000  O
  C81      1.0000 0.40860  0.17710  0.70890  Biso   1.000  C
  C82      1.0000 0.43150  0.19070  0.76280  Biso   1.000  C
  H31      1.0000 0.45720  0.21160  0.76150  Biso   1.000  H
  C83      1.0000 0.41680  0.17370  0.82010  Biso   1.000  C
  C84      1.0000 0.37520  0.14350  0.82100  Biso   1.000  C
  H32      1.0000 0.36030  0.13460  0.85800  Biso   1.000  H
  C85      1.0000 0.35750  0.12770  0.76550  Biso   1.000  C
  C86      1.0000 0.37450  0.14220  0.71040  Biso   1.000  C
  H33      1.0000 0.36390  0.12930  0.67410  Biso   1.000  H
  C87      1.0000 0.42930  0.19330  0.64980  Biso   1.000  C
  C88      1.0000 0.43450  0.19030  0.88200  Biso   1.000  C
  C89      1.0000 0.17460  0.05570  0.13170  Biso   1.000  C
  C90      1.0000 0.18360  0.06120  0.90060  Biso   1.000  C
  C91      1.0000 0.12610  0.10820  0.95960  Biso   1.000  C
  H34      1.0000 0.11890  0.12140  0.92250  Biso   1.000  H
  C92      1.0000 0.15910  0.07530  0.95930  Biso   1.000  C
  C93      1.0000 0.17680  0.05870  0.01340  Biso   1.000  C
  H35      1.0000 0.20080  0.03660  0.01300  Biso   1.000  H
  C94      1.0000 0.15880  0.07520  0.07020  Biso   1.000  C
  C95      1.0000 0.11700  0.10600  0.06970  Biso   1.000  C
  H36      1.0000 0.10030  0.11390  0.10620  Biso   1.000  H
  C96      1.0000 0.10180  0.12370  0.01390  Biso   1.000  C
  O81      1.0000 0.45670  0.22550  0.65090  Biso   1.000  O
  O82      1.0000 0.40620  0.17770  0.60190  Biso   1.000  O
  O83      1.0000 0.30900  0.06710  0.70880  Biso   1.000  O
  O84      1.0000 0.25570  0.11319  0.77310  Biso   1.000  O
  O85      1.0000 0.31420  0.06270  0.82040  Biso   1.000  O
  O86      1.0000 0.44840  0.23274  0.51370  Biso   1.000  O
  O87      1.0000 0.54080  0.27092  0.51240  Biso   1.000  O
  O88      1.0000 0.21420  0.02990  0.90120  Biso   1.000  O
  O89      1.0000 0.16840  0.07790  0.17620  Biso   1.000  O
  O90      1.0000 0.20290  0.02430  0.13030  Biso   1.000  O
  O91      1.0000 0.46680  0.22010  0.88090  Biso   1.000  O
  O92      1.0000 0.42490  0.16810  0.92530  Biso   1.000  O
  O93      1.0000 0.16060  0.07670  0.85130  Biso   1.000  O
  O94      1.0000 0.06100  0.18840  0.06820  Biso   1.000  O
  O95      1.0000 0.00300  0.14270  0.01750  Biso   1.000  O
  S11      1.0000 0.30499  0.08927  0.76680  Biso   1.000  S
  S12      1.0000 0.05353  0.16352  0.01320  Biso   1.000  S
  Cu21     1.0000 0.49192  0.25421  0.44505  Biso   1.000  Cu
  Cu22     1.0000 0.17653  0.07624  0.76319  Biso   1.000  Cu
  Cu23     1.0000 0.42233  0.17602  0.51391  Biso   1.000  Cu
  Cu24     1.0000 0.49400  0.25377  0.58346  Biso   1.000  Cu
  O96      1.0000 0.06080  0.18460  0.95880  Biso   1.000  O
  C97      1.0000 0.90860  0.67710  0.70890  Biso   1.000  C
  C98      1.0000 0.93150  0.69070  0.76280  Biso   1.000  C
  H37      1.0000 0.95720  0.71160  0.76150  Biso   1.000  H
  C99      1.0000 0.91680  0.67370  0.82010  Biso   1.000  C
  C100     1.0000 0.87520  0.64350  0.82100  Biso   1.000  C
  H38      1.0000 0.86030  0.63460  0.85800  Biso   1.000  H
  C101     1.0000 0.85750  0.62770  0.76550  Biso   1.000  C
  C102     1.0000 0.87450  0.64220  0.71040  Biso   1.000  C
  H39      1.0000 0.86390  0.62930  0.67410  Biso   1.000  H
  C103     1.0000 0.92930  0.69330  0.64980  Biso   1.000  C
  C104     1.0000 0.93450  0.69030  0.88200  Biso   1.000  C
  C105     1.0000 0.67460  0.55570  0.13170  Biso   1.000  C
  C106     1.0000 0.68360  0.56120  0.90060  Biso   1.000  C
  C107     1.0000 0.62610  0.60820  0.95960  Biso   1.000  C
  H40      1.0000 0.61890  0.62140  0.92250  Biso   1.000  H
  C108     1.0000 0.65910  0.57530  0.95930  Biso   1.000  C
  C109     1.0000 0.67680  0.55870  0.01340  Biso   1.000  C
  H41      1.0000 0.70080  0.53660  0.01300  Biso   1.000  H
  C110     1.0000 0.65880  0.57520  0.07020  Biso   1.000  C
  C111     1.0000 0.61700  0.60600  0.06970  Biso   1.000  C
  H42      1.0000 0.60030  0.61390  0.10620  Biso   1.000  H
  C112     1.0000 0.60180  0.62370  0.01390  Biso   1.000  C
  O97      1.0000 0.95670  0.72550  0.65090  Biso   1.000  O
  O98      1.0000 0.90620  0.67770  0.60190  Biso   1.000  O
  O99      1.0000 0.80900  0.56710  0.70880  Biso   1.000  O
  O100     1.0000 0.75570  0.61319  0.77310  Biso   1.000  O
  O101     1.0000 0.81420  0.56270  0.82040  Biso   1.000  O
  O102     1.0000 0.94840  0.73274  0.51370  Biso   1.000  O
  O103     1.0000 0.04080  0.77092  0.51240  Biso   1.000  O
  O104     1.0000 0.71420  0.52990  0.90120  Biso   1.000  O
  O105     1.0000 0.66840  0.57790  0.17620  Biso   1.000  O
  O106     1.0000 0.70290  0.52430  0.13030  Biso   1.000  O
  O107     1.0000 0.96680  0.72010  0.88090  Biso   1.000  O
  O108     1.0000 0.92490  0.66810  0.92530  Biso   1.000  O
  O109     1.0000 0.66060  0.57670  0.85130  Biso   1.000  O
  O110     1.0000 0.56100  0.68840  0.06820  Biso   1.000  O
  O111     1.0000 0.50300  0.64270  0.01750  Biso   1.000  O
  S13      1.0000 0.80499  0.58927  0.76680  Biso   1.000  S
  S14      1.0000 0.55353  0.66352  0.01320  Biso   1.000  S
  Cu25     1.0000 0.99192  0.75421  0.44505  Biso   1.000  Cu
  Cu26     1.0000 0.67653  0.57624  0.76319  Biso   1.000  Cu
  Cu27     1.0000 0.92233  0.67602  0.51391  Biso   1.000  Cu
  Cu28     1.0000 0.99400  0.75377  0.58346  Biso   1.000  Cu
  O112     1.0000 0.56080  0.68460  0.95880  Biso   1.000  O
  C113     1.0000 0.90860  0.17710  0.20890  Biso   1.000  C
  C114     1.0000 0.93150  0.19070  0.26280  Biso   1.000  C
  H43      1.0000 0.95720  0.21160  0.26150  Biso   1.000  H
  C115     1.0000 0.91680  0.17370  0.32010  Biso   1.000  C
  C116     1.0000 0.87520  0.14350  0.32100  Biso   1.000  C
  H44      1.0000 0.86030  0.13460  0.35800  Biso   1.000  H
  C117     1.0000 0.85750  0.12770  0.26550  Biso   1.000  C
  C118     1.0000 0.87450  0.14220  0.21040  Biso   1.000  C
  H45      1.0000 0.86390  0.12930  0.17410  Biso   1.000  H
  C119     1.0000 0.92930  0.19330  0.14980  Biso   1.000  C
  C120     1.0000 0.93450  0.19030  0.38200  Biso   1.000  C
  C121     1.0000 0.67460  0.05570  0.63170  Biso   1.000  C
  C122     1.0000 0.68360  0.06120  0.40060  Biso   1.000  C
  C123     1.0000 0.62610  0.10820  0.45960  Biso   1.000  C
  H46      1.0000 0.61890  0.12140  0.42250  Biso   1.000  H
  C124     1.0000 0.65910  0.07530  0.45930  Biso   1.000  C
  C125     1.0000 0.67680  0.05870  0.51340  Biso   1.000  C
  H47      1.0000 0.70080  0.03660  0.51300  Biso   1.000  H
  C126     1.0000 0.65880  0.07520  0.57020  Biso   1.000  C
  C127     1.0000 0.61700  0.10600  0.56970  Biso   1.000  C
  H48      1.0000 0.60030  0.11390  0.60620  Biso   1.000  H
  C128     1.0000 0.60180  0.12370  0.51390  Biso   1.000  C
  O113     1.0000 0.95670  0.22550  0.15090  Biso   1.000  O
  O114     1.0000 0.90620  0.17770  0.10190  Biso   1.000  O
  O115     1.0000 0.80900  0.06710  0.20880  Biso   1.000  O
  O116     1.0000 0.75570  0.11319  0.27310  Biso   1.000  O
  O117     1.0000 0.81420  0.06270  0.32040  Biso   1.000  O
  O118     1.0000 0.94840  0.23274  0.01370  Biso   1.000  O
  O119     1.0000 0.04080  0.27092  0.01240  Biso   1.000  O
  O120     1.0000 0.71420  0.02990  0.40120  Biso   1.000  O
  O121     1.0000 0.66840  0.07790  0.67620  Biso   1.000  O
  O122     1.0000 0.70290  0.02430  0.63030  Biso   1.000  O
  O123     1.0000 0.96680  0.22010  0.38090  Biso   1.000  O
  O124     1.0000 0.92490  0.16810  0.42530  Biso   1.000  O
  O125     1.0000 0.66060  0.07670  0.35130  Biso   1.000  O
  O126     1.0000 0.56100  0.18840  0.56820  Biso   1.000  O
  O127     1.0000 0.50300  0.14270  0.51750  Biso   1.000  O
  S15      1.0000 0.80499  0.08927  0.26680  Biso   1.000  S
  S16      1.0000 0.55353  0.16352  0.51320  Biso   1.000  S
  Cu29     1.0000 0.99192  0.25421  0.94505  Biso   1.000  Cu
  Cu30     1.0000 0.67653  0.07624  0.26319  Biso   1.000  Cu
  Cu31     1.0000 0.92233  0.17602  0.01391  Biso   1.000  Cu
  Cu32     1.0000 0.99400  0.25377  0.08346  Biso   1.000  Cu
  O128     1.0000 0.56080  0.18460  0.45880  Biso   1.000  O
  C129     1.0000 0.84140  0.92710  0.45890  Biso   1.000  C
  C130     1.0000 0.81850  0.94070  0.51280  Biso   1.000  C
  H49      1.0000 0.79280  0.96160  0.51150  Biso   1.000  H
  C131     1.0000 0.83320  0.92370  0.57010  Biso   1.000  C
  C132     1.0000 0.87480  0.89350  0.57100  Biso   1.000  C
  H50      1.0000 0.88970  0.88460  0.60800  Biso   1.000  H
  C133     1.0000 0.89250  0.87770  0.51550  Biso   1.000  C
  C134     1.0000 0.87550  0.89220  0.46040  Biso   1.000  C
  H51      1.0000 0.88610  0.87930  0.42410  Biso   1.000  H
  C135     1.0000 0.82070  0.94330  0.39980  Biso   1.000  C
  C136     1.0000 0.81550  0.94030  0.63200  Biso   1.000  C
  C137     1.0000 0.07540  0.80570  0.88170  Biso   1.000  C
  C138     1.0000 0.06640  0.81120  0.65060  Biso   1.000  C
  C139     1.0000 0.12390  0.85820  0.70960  Biso   1.000  C
  H52      1.0000 0.13110  0.87140  0.67250  Biso   1.000  H
  C140     1.0000 0.09090  0.82530  0.70930  Biso   1.000  C
  C141     1.0000 0.07320  0.80870  0.76340  Biso   1.000  C
  H53      1.0000 0.04920  0.78660  0.76300  Biso   1.000  H
  C142     1.0000 0.09120  0.82520  0.82020  Biso   1.000  C
  C143     1.0000 0.13300  0.85600  0.81970  Biso   1.000  C
  H54      1.0000 0.14970  0.86390  0.85620  Biso   1.000  H
  C144     1.0000 0.14820  0.87370  0.76390  Biso   1.000  C
  O129     1.0000 0.79330  0.97550  0.40090  Biso   1.000  O
  O130     1.0000 0.84380  0.92770  0.35190  Biso   1.000  O
  O131     1.0000 0.94100  0.81710  0.45880  Biso   1.000  O
  O132     1.0000 0.99430  0.86319  0.52310  Biso   1.000  O
  O133     1.0000 0.93580  0.81270  0.57040  Biso   1.000  O
  O134     1.0000 0.80160  0.98274  0.26370  Biso   1.000  O
  O135     1.0000 0.70920  0.02092  0.26240  Biso   1.000  O
  O136     1.0000 0.03580  0.77990  0.65120  Biso   1.000  O
  O137     1.0000 0.08160  0.82790  0.92620  Biso   1.000  O
  O138     1.0000 0.04710  0.77430  0.88030  Biso   1.000  O
  O139     1.0000 0.78320  0.97010  0.63090  Biso   1.000  O
  O140     1.0000 0.82510  0.91810  0.67530  Biso   1.000  O
  O141     1.0000 0.08940  0.82670  0.60130  Biso   1.000  O
  O142     1.0000 0.18900  0.93840  0.81820  Biso   1.000  O
  O143     1.0000 0.24700  0.89270  0.76750  Biso   1.000  O
  S17      1.0000 0.94501  0.83927  0.51680  Biso   1.000  S
  S18      1.0000 0.19647  0.91352  0.76320  Biso   1.000  S
  Cu33     1.0000 0.75808  0.00421  0.19505  Biso   1.000  Cu
  Cu34     1.0000 0.07347  0.82624  0.51319  Biso   1.000  Cu
  Cu35     1.0000 0.82767  0.92602  0.26391  Biso   1.000  Cu
  Cu36     1.0000 0.75600  0.00377  0.33346  Biso   1.000  Cu
  O144     1.0000 0.18920  0.93460  0.70880  Biso   1.000  O
  C145     1.0000 0.84140  0.42710  0.95890  Biso   1.000  C
  C146     1.0000 0.81850  0.44070  0.01280  Biso   1.000  C
  H55      1.0000 0.79280  0.46160  0.01150  Biso   1.000  H
  C147     1.0000 0.83320  0.42370  0.07010  Biso   1.000  C
  C148     1.0000 0.87480  0.39350  0.07100  Biso   1.000  C
  H56      1.0000 0.88970  0.38460  0.10800  Biso   1.000  H
  C149     1.0000 0.89250  0.37770  0.01550  Biso   1.000  C
  C150     1.0000 0.87550  0.39220  0.96040  Biso   1.000  C
  H57      1.0000 0.88610  0.37930  0.92410  Biso   1.000  H
  C151     1.0000 0.82070  0.44330  0.89980  Biso   1.000  C
  C152     1.0000 0.81550  0.44030  0.13200  Biso   1.000  C
  C153     1.0000 0.07540  0.30570  0.38170  Biso   1.000  C
  C154     1.0000 0.06640  0.31120  0.15060  Biso   1.000  C
  C155     1.0000 0.12390  0.35820  0.20960  Biso   1.000  C
  H58      1.0000 0.13110  0.37140  0.17250  Biso   1.000  H
  C156     1.0000 0.09090  0.32530  0.20930  Biso   1.000  C
  C157     1.0000 0.07320  0.30870  0.26340  Biso   1.000  C
  H59      1.0000 0.04920  0.28660  0.26300  Biso   1.000  H
  C158     1.0000 0.09120  0.32520  0.32020  Biso   1.000  C
  C159     1.0000 0.13300  0.35600  0.31970  Biso   1.000  C
  H60      1.0000 0.14970  0.36390  0.35620  Biso   1.000  H
  C160     1.0000 0.14820  0.37370  0.26390  Biso   1.000  C
  O145     1.0000 0.79330  0.47550  0.90090  Biso   1.000  O
  O146     1.0000 0.84380  0.42770  0.85190  Biso   1.000  O
  O147     1.0000 0.94100  0.31710  0.95880  Biso   1.000  O
  O148     1.0000 0.99430  0.36319  0.02310  Biso   1.000  O
  O149     1.0000 0.93580  0.31270  0.07040  Biso   1.000  O
  O150     1.0000 0.80160  0.48274  0.76370  Biso   1.000  O
  O151     1.0000 0.70920  0.52092  0.76240  Biso   1.000  O
  O152     1.0000 0.03580  0.27990  0.15120  Biso   1.000  O
  O153     1.0000 0.08160  0.32790  0.42620  Biso   1.000  O
  O154     1.0000 0.04710  0.27430  0.38030  Biso   1.000  O
  O155     1.0000 0.78320  0.47010  0.13090  Biso   1.000  O
  O156     1.0000 0.82510  0.41810  0.17530  Biso   1.000  O
  O157     1.0000 0.08940  0.32670  0.10130  Biso   1.000  O
  O158     1.0000 0.18900  0.43840  0.31820  Biso   1.000  O
  O159     1.0000 0.24700  0.39270  0.26750  Biso   1.000  O
  S19      1.0000 0.94501  0.33927  0.01680  Biso   1.000  S
  S20      1.0000 0.19647  0.41352  0.26320  Biso   1.000  S
  Cu37     1.0000 0.75808  0.50421  0.69505  Biso   1.000  Cu
  Cu38     1.0000 0.07347  0.32624  0.01319  Biso   1.000  Cu
  Cu39     1.0000 0.82767  0.42602  0.76391  Biso   1.000  Cu
  Cu40     1.0000 0.75600  0.50377  0.83346  Biso   1.000  Cu
  O160     1.0000 0.18920  0.43460  0.20880  Biso   1.000  O
  C161     1.0000 0.34140  0.92710  0.95890  Biso   1.000  C
  C162     1.0000 0.31850  0.94070  0.01280  Biso   1.000  C
  H61      1.0000 0.29280  0.96160  0.01150  Biso   1.000  H
  C163     1.0000 0.33320  0.92370  0.07010  Biso   1.000  C
  C164     1.0000 0.37480  0.89350  0.07100  Biso   1.000  C
  H62      1.0000 0.38970  0.88460  0.10800  Biso   1.000  H
  C165     1.0000 0.39250  0.87770  0.01550  Biso   1.000  C
  C166     1.0000 0.37550  0.89220  0.96040  Biso   1.000  C
  H63      1.0000 0.38610  0.87930  0.92410  Biso   1.000  H
  C167     1.0000 0.32070  0.94330  0.89980  Biso   1.000  C
  C168     1.0000 0.31550  0.94030  0.13200  Biso   1.000  C
  C169     1.0000 0.57540  0.80570  0.38170  Biso   1.000  C
  C170     1.0000 0.56640  0.81120  0.15060  Biso   1.000  C
  C171     1.0000 0.62390  0.85820  0.20960  Biso   1.000  C
  H64      1.0000 0.63110  0.87140  0.17250  Biso   1.000  H
  C172     1.0000 0.59090  0.82530  0.20930  Biso   1.000  C
  C173     1.0000 0.57320  0.80870  0.26340  Biso   1.000  C
  H65      1.0000 0.54920  0.78660  0.26300  Biso   1.000  H
  C174     1.0000 0.59120  0.82520  0.32020  Biso   1.000  C
  C175     1.0000 0.63300  0.85600  0.31970  Biso   1.000  C
  H66      1.0000 0.64970  0.86390  0.35620  Biso   1.000  H
  C176     1.0000 0.64820  0.87370  0.26390  Biso   1.000  C
  O161     1.0000 0.29330  0.97550  0.90090  Biso   1.000  O
  O162     1.0000 0.34380  0.92770  0.85190  Biso   1.000  O
  O163     1.0000 0.44100  0.81710  0.95880  Biso   1.000  O
  O164     1.0000 0.49430  0.86319  0.02310  Biso   1.000  O
  O165     1.0000 0.43580  0.81270  0.07040  Biso   1.000  O
  O166     1.0000 0.30160  0.98274  0.76370  Biso   1.000  O
  O167     1.0000 0.20920  0.02092  0.76240  Biso   1.000  O
  O168     1.0000 0.53580  0.77990  0.15120  Biso   1.000  O
  O169     1.0000 0.58160  0.82790  0.42620  Biso   1.000  O
  O170     1.0000 0.54710  0.77430  0.38030  Biso   1.000  O
  O171     1.0000 0.28320  0.97010  0.13090  Biso   1.000  O
  O172     1.0000 0.32510  0.91810  0.17530  Biso   1.000  O
  O173     1.0000 0.58940  0.82670  0.10130  Biso   1.000  O
  O174     1.0000 0.68900  0.93840  0.31820  Biso   1.000  O
  O175     1.0000 0.74700  0.89270  0.26750  Biso   1.000  O
  S21      1.0000 0.44501  0.83927  0.01680  Biso   1.000  S
  S22      1.0000 0.69647  0.91352  0.26320  Biso   1.000  S
  Cu41     1.0000 0.25808  0.00421  0.69505  Biso   1.000  Cu
  Cu42     1.0000 0.57347  0.82624  0.01319  Biso   1.000  Cu
  Cu43     1.0000 0.32767  0.92602  0.76391  Biso   1.000  Cu
  Cu44     1.0000 0.25600  0.00377  0.83346  Biso   1.000  Cu
  O176     1.0000 0.68920  0.93460  0.20880  Biso   1.000  O
  C177     1.0000 0.34140  0.42710  0.45890  Biso   1.000  C
  C178     1.0000 0.31850  0.44070  0.51280  Biso   1.000  C
  H67      1.0000 0.29280  0.46160  0.51150  Biso   1.000  H
  C179     1.0000 0.33320  0.42370  0.57010  Biso   1.000  C
  C180     1.0000 0.37480  0.39350  0.57100  Biso   1.000  C
  H68      1.0000 0.38970  0.38460  0.60800  Biso   1.000  H
  C181     1.0000 0.39250  0.37770  0.51550  Biso   1.000  C
  C182     1.0000 0.37550  0.39220  0.46040  Biso   1.000  C
  H69      1.0000 0.38610  0.37930  0.42410  Biso   1.000  H
  C183     1.0000 0.32070  0.44330  0.39980  Biso   1.000  C
  C184     1.0000 0.31550  0.44030  0.63200  Biso   1.000  C
  C185     1.0000 0.57540  0.30570  0.88170  Biso   1.000  C
  C186     1.0000 0.56640  0.31120  0.65060  Biso   1.000  C
  C187     1.0000 0.62390  0.35820  0.70960  Biso   1.000  C
  H70      1.0000 0.63110  0.37140  0.67250  Biso   1.000  H
  C188     1.0000 0.59090  0.32530  0.70930  Biso   1.000  C
  C189     1.0000 0.57320  0.30870  0.76340  Biso   1.000  C
  H71      1.0000 0.54920  0.28660  0.76300  Biso   1.000  H
  C190     1.0000 0.59120  0.32520  0.82020  Biso   1.000  C
  C191     1.0000 0.63300  0.35600  0.81970  Biso   1.000  C
  H72      1.0000 0.64970  0.36390  0.85620  Biso   1.000  H
  C192     1.0000 0.64820  0.37370  0.76390  Biso   1.000  C
  O177     1.0000 0.29330  0.47550  0.40090  Biso   1.000  O
  O178     1.0000 0.34380  0.42770  0.35190  Biso   1.000  O
  O179     1.0000 0.44100  0.31710  0.45880  Biso   1.000  O
  O180     1.0000 0.49430  0.36319  0.52310  Biso   1.000  O
  O181     1.0000 0.43580  0.31270  0.57040  Biso   1.000  O
  O182     1.0000 0.30160  0.48274  0.26370  Biso   1.000  O
  O183     1.0000 0.20920  0.52092  0.26240  Biso   1.000  O
  O184     1.0000 0.53580  0.27990  0.65120  Biso   1.000  O
  O185     1.0000 0.58160  0.32790  0.92620  Biso   1.000  O
  O186     1.0000 0.54710  0.27430  0.88030  Biso   1.000  O
  O187     1.0000 0.28320  0.47010  0.63090  Biso   1.000  O
  O188     1.0000 0.32510  0.41810  0.67530  Biso   1.000  O
  O189     1.0000 0.58940  0.32670  0.60130  Biso   1.000  O
  O190     1.0000 0.68900  0.43840  0.81820  Biso   1.000  O
  O191     1.0000 0.74700  0.39270  0.76750  Biso   1.000  O
  S23      1.0000 0.44501  0.33927  0.51680  Biso   1.000  S
  S24      1.0000 0.69647  0.41352  0.76320  Biso   1.000  S
  Cu45     1.0000 0.25808  0.50421  0.19505  Biso   1.000  Cu
  Cu46     1.0000 0.57347  0.32624  0.51319  Biso   1.000  Cu
  Cu47     1.0000 0.32767  0.42602  0.26391  Biso   1.000  Cu
  Cu48     1.0000 0.25600  0.50377  0.33346  Biso   1.000  Cu
  O192     1.0000 0.68920  0.43460  0.70880  Biso   1.000  O
  C193     1.0000 0.65860  0.57290  0.45890  Biso   1.000  C
  C194     1.0000 0.68150  0.55930  0.51280  Biso   1.000  C
  H73      1.0000 0.70720  0.53840  0.51150  Biso   1.000  H
  C195     1.0000 0.66680  0.57630  0.57010  Biso   1.000  C
  C196     1.0000 0.62520  0.60650  0.57100  Biso   1.000  C
  H74      1.0000 0.61030  0.61540  0.60800  Biso   1.000  H
  C197     1.0000 0.60750  0.62230  0.51550  Biso   1.000  C
  C198     1.0000 0.62450  0.60780  0.46040  Biso   1.000  C
  H75      1.0000 0.61390  0.62070  0.42410  Biso   1.000  H
  C199     1.0000 0.67930  0.55670  0.39980  Biso   1.000  C
  C200     1.0000 0.68450  0.55970  0.63200  Biso   1.000  C
  C201     1.0000 0.42460  0.69430  0.88170  Biso   1.000  C
  C202     1.0000 0.43360  0.68880  0.65060  Biso   1.000  C
  C203     1.0000 0.37610  0.64180  0.70960  Biso   1.000  C
  H76      1.0000 0.36890  0.62860  0.67250  Biso   1.000  H
  C204     1.0000 0.40910  0.67470  0.70930  Biso   1.000  C
  C205     1.0000 0.42680  0.69130  0.76340  Biso   1.000  C
  H77      1.0000 0.45080  0.71340  0.76300  Biso   1.000  H
  C206     1.0000 0.40880  0.67480  0.82020  Biso   1.000  C
  C207     1.0000 0.36700  0.64400  0.81970  Biso   1.000  C
  H78      1.0000 0.35030  0.63610  0.85620  Biso   1.000  H
  C208     1.0000 0.35180  0.62630  0.76390  Biso   1.000  C
  O193     1.0000 0.70670  0.52450  0.40090  Biso   1.000  O
  O194     1.0000 0.65620  0.57230  0.35190  Biso   1.000  O
  O195     1.0000 0.55900  0.68290  0.45880  Biso   1.000  O
  O196     1.0000 0.50570  0.63681  0.52310  Biso   1.000  O
  O197     1.0000 0.56420  0.68730  0.57040  Biso   1.000  O
  O198     1.0000 0.69840  0.51726  0.26370  Biso   1.000  O
  O199     1.0000 0.79080  0.47908  0.26240  Biso   1.000  O
  O200     1.0000 0.46420  0.72010  0.65120  Biso   1.000  O
  O201     1.0000 0.41840  0.67210  0.92620  Biso   1.000  O
  O202     1.0000 0.45290  0.72570  0.88030  Biso   1.000  O
  O203     1.0000 0.71680  0.52990  0.63090  Biso   1.000  O
  O204     1.0000 0.67490  0.58190  0.67530  Biso   1.000  O
  O205     1.0000 0.41060  0.67330  0.60130  Biso   1.000  O
  O206     1.0000 0.31100  0.56160  0.81820  Biso   1.000  O
  O207     1.0000 0.25300  0.60730  0.76750  Biso   1.000  O
  S25      1.0000 0.55499  0.66073  0.51680  Biso   1.000  S
  S26      1.0000 0.30353  0.58648  0.76320  Biso   1.000  S
  Cu49     1.0000 0.74192  0.49579  0.19505  Biso   1.000  Cu
  Cu50     1.0000 0.42653  0.67376  0.51319  Biso   1.000  Cu
  Cu51     1.0000 0.67233  0.57398  0.26391  Biso   1.000  Cu
  Cu52     1.0000 0.74400  0.49623  0.33346  Biso   1.000  Cu
  O208     1.0000 0.31080  0.56540  0.70880  Biso   1.000  O
  C209     1.0000 0.65860  0.07290  0.95890  Biso   1.000  C
  C210     1.0000 0.68150  0.05930  0.01280  Biso   1.000  C
  H79      1.0000 0.70720  0.03840  0.01150  Biso   1.000  H
  C211     1.0000 0.66680  0.07630  0.07010  Biso   1.000  C
  C212     1.0000 0.62520  0.10650  0.07100  Biso   1.000  C
  H80      1.0000 0.61030  0.11540  0.10800  Biso   1.000  H
  C213     1.0000 0.60750  0.12230  0.01550  Biso   1.000  C
  C214     1.0000 0.62450  0.10780  0.96040  Biso   1.000  C
  H81      1.0000 0.61390  0.12070  0.92410  Biso   1.000  H
  C215     1.0000 0.67930  0.05670  0.89980  Biso   1.000  C
  C216     1.0000 0.68450  0.05970  0.13200  Biso   1.000  C
  C217     1.0000 0.42460  0.19430  0.38170  Biso   1.000  C
  C218     1.0000 0.43360  0.18880  0.15060  Biso   1.000  C
  C219     1.0000 0.37610  0.14180  0.20960  Biso   1.000  C
  H82      1.0000 0.36890  0.12860  0.17250  Biso   1.000  H
  C220     1.0000 0.40910  0.17470  0.20930  Biso   1.000  C
  C221     1.0000 0.42680  0.19130  0.26340  Biso   1.000  C
  H83      1.0000 0.45080  0.21340  0.26300  Biso   1.000  H
  C222     1.0000 0.40880  0.17480  0.32020  Biso   1.000  C
  C223     1.0000 0.36700  0.14400  0.31970  Biso   1.000  C
  H84      1.0000 0.35030  0.13610  0.35620  Biso   1.000  H
  C224     1.0000 0.35180  0.12630  0.26390  Biso   1.000  C
  O209     1.0000 0.70670  0.02450  0.90090  Biso   1.000  O
  O210     1.0000 0.65620  0.07230  0.85190  Biso   1.000  O
  O211     1.0000 0.55900  0.18290  0.95880  Biso   1.000  O
  O212     1.0000 0.50570  0.13681  0.02310  Biso   1.000  O
  O213     1.0000 0.56420  0.18730  0.07040  Biso   1.000  O
  O214     1.0000 0.69840  0.01726  0.76370  Biso   1.000  O
  O215     1.0000 0.79080  0.97908  0.76240  Biso   1.000  O
  O216     1.0000 0.46420  0.22010  0.15120  Biso   1.000  O
  O217     1.0000 0.41840  0.17210  0.42620  Biso   1.000  O
  O218     1.0000 0.45290  0.22570  0.38030  Biso   1.000  O
  O219     1.0000 0.71680  0.02990  0.13090  Biso   1.000  O
  O220     1.0000 0.67490  0.08190  0.17530  Biso   1.000  O
  O221     1.0000 0.41060  0.17330  0.10130  Biso   1.000  O
  O222     1.0000 0.31100  0.06160  0.31820  Biso   1.000  O
  O223     1.0000 0.25300  0.10730  0.26750  Biso   1.000  O
  S27      1.0000 0.55499  0.16073  0.01680  Biso   1.000  S
  S28      1.0000 0.30353  0.08648  0.26320  Biso   1.000  S
  Cu53     1.0000 0.74192  0.99579  0.69505  Biso   1.000  Cu
  Cu54     1.0000 0.42653  0.17376  0.01319  Biso   1.000  Cu
  Cu55     1.0000 0.67233  0.07398  0.76391  Biso   1.000  Cu
  Cu56     1.0000 0.74400  0.99623  0.83346  Biso   1.000  Cu
  O224     1.0000 0.31080  0.06540  0.20880  Biso   1.000  O
  C225     1.0000 0.15860  0.57290  0.95890  Biso   1.000  C
  C226     1.0000 0.18150  0.55930  0.01280  Biso   1.000  C
  H85      1.0000 0.20720  0.53840  0.01150  Biso   1.000  H
  C227     1.0000 0.16680  0.57630  0.07010  Biso   1.000  C
  C228     1.0000 0.12520  0.60650  0.07100  Biso   1.000  C
  H86      1.0000 0.11030  0.61540  0.10800  Biso   1.000  H
  C229     1.0000 0.10750  0.62230  0.01550  Biso   1.000  C
  C230     1.0000 0.12450  0.60780  0.96040  Biso   1.000  C
  H87      1.0000 0.11390  0.62070  0.92410  Biso   1.000  H
  C231     1.0000 0.17930  0.55670  0.89980  Biso   1.000  C
  C232     1.0000 0.18450  0.55970  0.13200  Biso   1.000  C
  C233     1.0000 0.92460  0.69430  0.38170  Biso   1.000  C
  C234     1.0000 0.93360  0.68880  0.15060  Biso   1.000  C
  C235     1.0000 0.87610  0.64180  0.20960  Biso   1.000  C
  H88      1.0000 0.86890  0.62860  0.17250  Biso   1.000  H
  C236     1.0000 0.90910  0.67470  0.20930  Biso   1.000  C
  C237     1.0000 0.92680  0.69130  0.26340  Biso   1.000  C
  H89      1.0000 0.95080  0.71340  0.26300  Biso   1.000  H
  C238     1.0000 0.90880  0.67480  0.32020  Biso   1.000  C
  C239     1.0000 0.86700  0.64400  0.31970  Biso   1.000  C
  H90      1.0000 0.85030  0.63610  0.35620  Biso   1.000  H
  C240     1.0000 0.85180  0.62630  0.26390  Biso   1.000  C
  O225     1.0000 0.20670  0.52450  0.90090  Biso   1.000  O
  O226     1.0000 0.15620  0.57230  0.85190  Biso   1.000  O
  O227     1.0000 0.05900  0.68290  0.95880  Biso   1.000  O
  O228     1.0000 0.00570  0.63681  0.02310  Biso   1.000  O
  O229     1.0000 0.06420  0.68730  0.07040  Biso   1.000  O
  O230     1.0000 0.19840  0.51726  0.76370  Biso   1.000  O
  O231     1.0000 0.29080  0.47908  0.76240  Biso   1.000  O
  O232     1.0000 0.96420  0.72010  0.15120  Biso   1.000  O
  O233     1.0000 0.91840  0.67210  0.42620  Biso   1.000  O
  O234     1.0000 0.95290  0.72570  0.38030  Biso   1.000  O
  O235     1.0000 0.21680  0.52990  0.13090  Biso   1.000  O
  O236     1.0000 0.17490  0.58190  0.17530  Biso   1.000  O
  O237     1.0000 0.91060  0.67330  0.10130  Biso   1.000  O
  O238     1.0000 0.81100  0.56160  0.31820  Biso   1.000  O
  O239     1.0000 0.75300  0.60730  0.26750  Biso   1.000  O
  S29      1.0000 0.05499  0.66073  0.01680  Biso   1.000  S
  S30      1.0000 0.80353  0.58648  0.26320  Biso   1.000  S
  Cu57     1.0000 0.24192  0.49579  0.69505  Biso   1.000  Cu
  Cu58     1.0000 0.92653  0.67376  0.01319  Biso   1.000  Cu
  Cu59     1.0000 0.17233  0.57398  0.76391  Biso   1.000  Cu
  Cu60     1.0000 0.24400  0.49623  0.83346  Biso   1.000  Cu
  O240     1.0000 0.81080  0.56540  0.20880  Biso   1.000  O
  C241     1.0000 0.15860  0.07290  0.45890  Biso   1.000  C
  C242     1.0000 0.18150  0.05930  0.51280  Biso   1.000  C
  H91      1.0000 0.20720  0.03840  0.51150  Biso   1.000  H
  C243     1.0000 0.16680  0.07630  0.57010  Biso   1.000  C
  C244     1.0000 0.12520  0.10650  0.57100  Biso   1.000  C
  H92      1.0000 0.11030  0.11540  0.60800  Biso   1.000  H
  C245     1.0000 0.10750  0.12230  0.51550  Biso   1.000  C
  C246     1.0000 0.12450  0.10780  0.46040  Biso   1.000  C
  H93      1.0000 0.11390  0.12070  0.42410  Biso   1.000  H
  C247     1.0000 0.17930  0.05670  0.39980  Biso   1.000  C
  C248     1.0000 0.18450  0.05970  0.63200  Biso   1.000  C
  C249     1.0000 0.92460  0.19430  0.88170  Biso   1.000  C
  C250     1.0000 0.93360  0.18880  0.65060  Biso   1.000  C
  C251     1.0000 0.87610  0.14180  0.70960  Biso   1.000  C
  H94      1.0000 0.86890  0.12860  0.67250  Biso   1.000  H
  C252     1.0000 0.90910  0.17470  0.70930  Biso   1.000  C
  C253     1.0000 0.92680  0.19130  0.76340  Biso   1.000  C
  H95      1.0000 0.95080  0.21340  0.76300  Biso   1.000  H
  C254     1.0000 0.90880  0.17480  0.82020  Biso   1.000  C
  C255     1.0000 0.86700  0.14400  0.81970  Biso   1.000  C
  H96      1.0000 0.85030  0.13610  0.85620  Biso   1.000  H
  C256     1.0000 0.85180  0.12630  0.76390  Biso   1.000  C
  O241     1.0000 0.20670  0.02450  0.40090  Biso   1.000  O
  O242     1.0000 0.15620  0.07230  0.35190  Biso   1.000  O
  O243     1.0000 0.05900  0.18290  0.45880  Biso   1.000  O
  O244     1.0000 0.00570  0.13681  0.52310  Biso   1.000  O
  O245     1.0000 0.06420  0.18730  0.57040  Biso   1.000  O
  O246     1.0000 0.19840  0.01726  0.26370  Biso   1.000  O
  O247     1.0000 0.29080  0.97908  0.26240  Biso   1.000  O
  O248     1.0000 0.96420  0.22010  0.65120  Biso   1.000  O
  O249     1.0000 0.91840  0.17210  0.92620  Biso   1.000  O
  O250     1.0000 0.95290  0.22570  0.88030  Biso   1.000  O
  O251     1.0000 0.21680  0.02990  0.63090  Biso   1.000  O
  O252     1.0000 0.17490  0.08190  0.67530  Biso   1.000  O
  O253     1.0000 0.91060  0.17330  0.60130  Biso   1.000  O
  O254     1.0000 0.81100  0.06160  0.81820  Biso   1.000  O
  O255     1.0000 0.75300  0.10730  0.76750  Biso   1.000  O
  S31      1.0000 0.05499  0.16073  0.51680  Biso   1.000  S
  S32      1.0000 0.80353  0.08648  0.76320  Biso   1.000  S
  Cu61     1.0000 0.24192  0.99579  0.19505  Biso   1.000  Cu
  Cu62     1.0000 0.92653  0.17376  0.51319  Biso   1.000  Cu
  Cu63     1.0000 0.17233  0.07398  0.26391  Biso   1.000  Cu
  Cu64     1.0000 0.24400  0.99623  0.33346  Biso   1.000  Cu
  O256     1.0000 0.81080  0.06540  0.70880  Biso   1.000  O
