data_image0
_cell_length_a       26.0338
_cell_length_b       26.3415
_cell_length_c       27.5327
_cell_angle_alpha    90
_cell_angle_beta     97.836
_cell_angle_gamma    90

_symmetry_space_group_name_H-M    "P 1"
_symmetry_int_tables_number       1

loop_
  _symmetry_equiv_pos_as_xyz
  'x, y, z'

loop_
  _atom_site_label
  _atom_site_occupancy
  _atom_site_fract_x
  _atom_site_fract_y
  _atom_site_fract_z
  _atom_site_thermal_displace_type
  _atom_site_B_iso_or_equiv
  _atom_site_type_symbol
  C1       1.0000 0.79067  0.31630  0.14808  Biso   1.000  C
  C2       1.0000 0.83598  0.34219  0.13135  Biso   1.000  C
  C3       1.0000 0.86380  0.32030  0.09780  Biso   1.000  C
  H1       1.0000 0.85470  0.28730  0.08580  Biso   1.000  H
  C4       1.0000 0.90480  0.34550  0.08130  Biso   1.000  C
  H2       1.0000 0.92350  0.33000  0.05790  Biso   1.000  H
  C5       1.0000 0.91840  0.39411  0.09934  Biso   1.000  C
  C6       1.0000 0.89090  0.41562  0.13403  Biso   1.000  C
  H3       1.0000 0.90030  0.44810  0.14720  Biso   1.000  H
  C7       1.0000 0.84967  0.38955  0.14933  Biso   1.000  C
  H4       1.0000 0.83060  0.40470  0.17260  Biso   1.000  H
  C8       1.0000 0.98910  0.41690  0.04985  Biso   1.000  C
  C9       1.0000 0.10244  0.17350  0.64298  Biso   1.000  C
  C10      1.0000 0.06710  0.14610  0.60518  Biso   1.000  C
  C11      1.0000 0.08160  0.09950  0.58818  Biso   1.000  C
  H5       1.0000 0.11180  0.08310  0.60420  Biso   1.000  H
  C12      1.0000 0.05270  0.07630  0.54820  Biso   1.000  C
  H6       1.0000 0.06310  0.04430  0.53690  Biso   1.000  H
  C13      1.0000 0.00890  0.10000  0.52481  Biso   1.000  C
  C14      1.0000 0.99210  0.14570  0.54385  Biso   1.000  C
  H7       1.0000 0.96070  0.16100  0.52940  Biso   1.000  H
  C15      1.0000 0.02130  0.16810  0.58336  Biso   1.000  C
  H8       1.0000 0.01000  0.19920  0.59590  Biso   1.000  H
  C16      1.0000 0.15520  0.65954  0.12388  Biso   1.000  C
  C17      1.0000 0.13790  0.61452  0.09253  Biso   1.000  C
  C18      1.0000 0.09070  0.59205  0.09730  Biso   1.000  C
  H9       1.0000 0.06970  0.60600  0.11960  Biso   1.000  H
  C19      1.0000 0.07360  0.54980  0.07020  Biso   1.000  C
  H10      1.0000 0.04080  0.53530  0.07350  Biso   1.000  H
  C20      1.0000 0.10450  0.52835  0.03793  Biso   1.000  C
  C21      1.0000 0.15031  0.55338  0.03080  Biso   1.000  C
  H11      1.0000 0.17010  0.54140  0.00660  Biso   1.000  H
  C22      1.0000 0.16672  0.59469  0.05825  Biso   1.000  C
  H12      1.0000 0.19870  0.61030  0.05380  Biso   1.000  H
  C23      1.0000 0.05310  0.45050  0.01350  Biso   1.000  C
  C24      1.0000 0.18880  0.84250  0.30050  Biso   1.000  C
  C25      1.0000 0.16360  0.87610  0.33398  Biso   1.000  C
  C26      1.0000 0.13940  0.91900  0.31777  Biso   1.000  C
  H13      1.0000 0.13890  0.92870  0.28450  Biso   1.000  H
  C27      1.0000 0.11510  0.94950  0.34880  Biso   1.000  C
  H14      1.0000 0.09820  0.97980  0.33660  Biso   1.000  H
  C28      1.0000 0.11540  0.93630  0.39743  Biso   1.000  C
  C29      1.0000 0.13940  0.89370  0.41409  Biso   1.000  C
  H15      1.0000 0.14090  0.88500  0.44770  Biso   1.000  H
  C30      1.0000 0.16220  0.86160  0.38260  Biso   1.000  C
  H16      1.0000 0.17680  0.83010  0.39420  Biso   1.000  H
  C31      1.0000 0.79410  0.15335  0.23780  Biso   1.000  C
  C32      1.0000 0.83405  0.11690  0.25880  Biso   1.000  C
  C33      1.0000 0.83860  0.10640  0.30890  Biso   1.000  C
  H17      1.0000 0.81510  0.12170  0.32800  Biso   1.000  H
  C34      1.0000 0.87670  0.07430  0.33120  Biso   1.000  C
  H18      1.0000 0.87850  0.06710  0.36520  Biso   1.000  H
  C35      1.0000 0.91260  0.05240  0.30386  Biso   1.000  C
  C36      1.0000 0.90610  0.06060  0.25363  Biso   1.000  C
  H19      1.0000 0.92820  0.04390  0.23410  Biso   1.000  H
  C37      1.0000 0.86732  0.09310  0.23120  Biso   1.000  C
  H20      1.0000 0.86400  0.09890  0.19690  Biso   1.000  H
  C38      1.0000 0.97960  0.02150  0.37037  Biso   1.000  C
  C39      1.0000 0.99430  0.05000  0.44730  Biso   1.000  C
  C40      1.0000 0.04910  0.99530  0.42000  Biso   1.000  C
  C41      1.0000 0.11366  0.29700  0.78977  Biso   1.000  C
  C42      1.0000 0.08581  0.30774  0.83232  Biso   1.000  C
  C43      1.0000 0.03424  0.29279  0.83358  Biso   1.000  C
  H21      1.0000 0.01590  0.27530  0.80640  Biso   1.000  H
  C44      1.0000 0.00985  0.30327  0.87403  Biso   1.000  C
  H22      1.0000 0.97490  0.29310  0.87440  Biso   1.000  H
  C45      1.0000 0.03641  0.32870  0.91418  Biso   1.000  C
  C46      1.0000 0.08818  0.34330  0.91343  Biso   1.000  C
  H23      1.0000 0.10680  0.36050  0.94060  Biso   1.000  H
  C47      1.0000 0.11173  0.33239  0.87261  Biso   1.000  C
  H24      1.0000 0.14680  0.34210  0.87230  Biso   1.000  H
  C48      1.0000 0.01710  0.37660  0.98723  Biso   1.000  C
  N1       1.0000 0.95866  0.42313  0.08632  Biso   1.000  N
  H25      1.0000 0.96600  0.45030  0.10460  Biso   1.000  H
  N2       1.0000 0.98465  0.37625  0.02170  Biso   1.000  N
  N3       1.0000 0.02281  0.45594  0.04836  Biso   1.000  N
  N4       1.0000 0.98010  0.08270  0.48123  Biso   1.000  N
  H26      1.0000 0.94840  0.09480  0.47490  Biso   1.000  H
  N5       1.0000 0.09078  0.48556  0.00907  Biso   1.000  N
  H27      1.0000 0.10890  0.48050  0.98480  Biso   1.000  H
  N6       1.0000 0.09280  0.96690  0.43019  Biso   1.000  N
  H28      1.0000 0.10840  0.96780  0.46060  Biso   1.000  H
  N7       1.0000 0.95316  0.02150  0.32369  Biso   1.000  N
  H29      1.0000 0.96340  0.99880  0.30360  Biso   1.000  H
  N8       1.0000 0.96283  0.05060  0.40452  Biso   1.000  N
  N9       1.0000 0.03740  0.02300  0.45787  Biso   1.000  N
  N10      1.0000 0.02229  0.99370  0.37452  Biso   1.000  N
  N11      1.0000 0.01075  0.33690  0.95536  Biso   1.000  N
  H30      1.0000 0.98810  0.31370  0.96110  Biso   1.000  H
  N12      1.0000 0.05206  0.41236  0.98129  Biso   1.000  N
  O1       1.0000 0.78214  0.26989  0.13624  Biso   1.000  O
  O2       1.0000 0.76512  0.34184  0.17451  Biso   1.000  O
  O3       1.0000 0.14664  0.15311  0.65657  Biso   1.000  O
  O4       1.0000 0.08780  0.21461  0.65957  Biso   1.000  O
  O5       1.0000 0.12604  0.67298  0.15422  Biso   1.000  O
  O6       1.0000 0.19813  0.67925  0.11908  Biso   1.000  O
  O7       1.0000 0.19764  0.86259  0.26061  Biso   1.000  O
  O8       1.0000 0.19660  0.79704  0.31232  Biso   1.000  O
  O9       1.0000 0.79574  0.16968  0.19460  Biso   1.000  O
  O10      1.0000 0.75912  0.16502  0.26228  Biso   1.000  O
  O11      1.0000 0.08759  0.27886  0.75094  Biso   1.000  O
  O12      1.0000 0.16055  0.30856  0.79306  Biso   1.000  O
  O13      1.0000 0.70014  0.25091  0.21252  Biso   1.000  O
  Zn1      1.0000 0.74273  0.21856  0.16981  Biso   1.000  Zn
  Zn2      1.0000 0.70441  0.32245  0.20383  Biso   1.000  Zn
  Zn3      1.0000 0.72724  0.23276  0.28301  Biso   1.000  Zn
  Zn4      1.0000 0.62854  0.23228  0.19771  Biso   1.000  Zn
  C49      1.0000 0.29067  0.81630  0.14808  Biso   1.000  C
  C50      1.0000 0.33598  0.84219  0.13135  Biso   1.000  C
  C51      1.0000 0.36380  0.82030  0.09780  Biso   1.000  C
  H31      1.0000 0.35470  0.78730  0.08580  Biso   1.000  H
  C52      1.0000 0.40480  0.84550  0.08130  Biso   1.000  C
  H32      1.0000 0.42350  0.83000  0.05790  Biso   1.000  H
  C53      1.0000 0.41840  0.89411  0.09934  Biso   1.000  C
  C54      1.0000 0.39090  0.91562  0.13403  Biso   1.000  C
  H33      1.0000 0.40030  0.94810  0.14720  Biso   1.000  H
  C55      1.0000 0.34967  0.88955  0.14933  Biso   1.000  C
  H34      1.0000 0.33060  0.90470  0.17260  Biso   1.000  H
  C56      1.0000 0.48910  0.91690  0.04985  Biso   1.000  C
  C57      1.0000 0.60244  0.67350  0.64298  Biso   1.000  C
  C58      1.0000 0.56710  0.64610  0.60518  Biso   1.000  C
  C59      1.0000 0.58160  0.59950  0.58818  Biso   1.000  C
  H35      1.0000 0.61180  0.58310  0.60420  Biso   1.000  H
  C60      1.0000 0.55270  0.57630  0.54820  Biso   1.000  C
  H36      1.0000 0.56310  0.54430  0.53690  Biso   1.000  H
  C61      1.0000 0.50890  0.60000  0.52481  Biso   1.000  C
  C62      1.0000 0.49210  0.64570  0.54385  Biso   1.000  C
  H37      1.0000 0.46070  0.66100  0.52940  Biso   1.000  H
  C63      1.0000 0.52130  0.66810  0.58336  Biso   1.000  C
  H38      1.0000 0.51000  0.69920  0.59590  Biso   1.000  H
  C64      1.0000 0.65520  0.15954  0.12388  Biso   1.000  C
  C65      1.0000 0.63790  0.11452  0.09253  Biso   1.000  C
  C66      1.0000 0.59070  0.09205  0.09730  Biso   1.000  C
  H39      1.0000 0.56970  0.10600  0.11960  Biso   1.000  H
  C67      1.0000 0.57360  0.04980  0.07020  Biso   1.000  C
  H40      1.0000 0.54080  0.03530  0.07350  Biso   1.000  H
  C68      1.0000 0.60450  0.02835  0.03793  Biso   1.000  C
  C69      1.0000 0.65031  0.05338  0.03080  Biso   1.000  C
  H41      1.0000 0.67010  0.04140  0.00660  Biso   1.000  H
  C70      1.0000 0.66672  0.09469  0.05825  Biso   1.000  C
  H42      1.0000 0.69870  0.11030  0.05380  Biso   1.000  H
  C71      1.0000 0.55310  0.95050  0.01350  Biso   1.000  C
  C72      1.0000 0.68880  0.34250  0.30050  Biso   1.000  C
  C73      1.0000 0.66360  0.37610  0.33398  Biso   1.000  C
  C74      1.0000 0.63940  0.41900  0.31777  Biso   1.000  C
  H43      1.0000 0.63890  0.42870  0.28450  Biso   1.000  H
  C75      1.0000 0.61510  0.44950  0.34880  Biso   1.000  C
  H44      1.0000 0.59820  0.47980  0.33660  Biso   1.000  H
  C76      1.0000 0.61540  0.43630  0.39743  Biso   1.000  C
  C77      1.0000 0.63940  0.39370  0.41409  Biso   1.000  C
  H45      1.0000 0.64090  0.38500  0.44770  Biso   1.000  H
  C78      1.0000 0.66220  0.36160  0.38260  Biso   1.000  C
  H46      1.0000 0.67680  0.33010  0.39420  Biso   1.000  H
  C79      1.0000 0.29410  0.65335  0.23780  Biso   1.000  C
  C80      1.0000 0.33405  0.61690  0.25880  Biso   1.000  C
  C81      1.0000 0.33860  0.60640  0.30890  Biso   1.000  C
  H47      1.0000 0.31510  0.62170  0.32800  Biso   1.000  H
  C82      1.0000 0.37670  0.57430  0.33120  Biso   1.000  C
  H48      1.0000 0.37850  0.56710  0.36520  Biso   1.000  H
  C83      1.0000 0.41260  0.55240  0.30386  Biso   1.000  C
  C84      1.0000 0.40610  0.56060  0.25363  Biso   1.000  C
  H49      1.0000 0.42820  0.54390  0.23410  Biso   1.000  H
  C85      1.0000 0.36732  0.59310  0.23120  Biso   1.000  C
  H50      1.0000 0.36400  0.59890  0.19690  Biso   1.000  H
  C86      1.0000 0.47960  0.52150  0.37037  Biso   1.000  C
  C87      1.0000 0.49430  0.55000  0.44730  Biso   1.000  C
  C88      1.0000 0.54910  0.49530  0.42000  Biso   1.000  C
  C89      1.0000 0.61366  0.79700  0.78977  Biso   1.000  C
  C90      1.0000 0.58581  0.80774  0.83232  Biso   1.000  C
  C91      1.0000 0.53424  0.79279  0.83358  Biso   1.000  C
  H51      1.0000 0.51590  0.77530  0.80640  Biso   1.000  H
  C92      1.0000 0.50985  0.80327  0.87403  Biso   1.000  C
  H52      1.0000 0.47490  0.79310  0.87440  Biso   1.000  H
  C93      1.0000 0.53641  0.82870  0.91418  Biso   1.000  C
  C94      1.0000 0.58818  0.84330  0.91343  Biso   1.000  C
  H53      1.0000 0.60680  0.86050  0.94060  Biso   1.000  H
  C95      1.0000 0.61173  0.83239  0.87261  Biso   1.000  C
  H54      1.0000 0.64680  0.84210  0.87230  Biso   1.000  H
  C96      1.0000 0.51710  0.87660  0.98723  Biso   1.000  C
  N13      1.0000 0.45866  0.92313  0.08632  Biso   1.000  N
  H55      1.0000 0.46600  0.95030  0.10460  Biso   1.000  H
  N14      1.0000 0.48465  0.87625  0.02170  Biso   1.000  N
  N15      1.0000 0.52281  0.95594  0.04836  Biso   1.000  N
  N16      1.0000 0.48010  0.58270  0.48123  Biso   1.000  N
  H56      1.0000 0.44840  0.59480  0.47490  Biso   1.000  H
  N17      1.0000 0.59078  0.98556  0.00907  Biso   1.000  N
  H57      1.0000 0.60890  0.98050  0.98480  Biso   1.000  H
  N18      1.0000 0.59280  0.46690  0.43019  Biso   1.000  N
  H58      1.0000 0.60840  0.46780  0.46060  Biso   1.000  H
  N19      1.0000 0.45316  0.52150  0.32369  Biso   1.000  N
  H59      1.0000 0.46340  0.49880  0.30360  Biso   1.000  H
  N20      1.0000 0.46283  0.55060  0.40452  Biso   1.000  N
  N21      1.0000 0.53740  0.52300  0.45787  Biso   1.000  N
  N22      1.0000 0.52229  0.49370  0.37452  Biso   1.000  N
  N23      1.0000 0.51075  0.83690  0.95536  Biso   1.000  N
  H60      1.0000 0.48810  0.81370  0.96110  Biso   1.000  H
  N24      1.0000 0.55206  0.91236  0.98129  Biso   1.000  N
  O14      1.0000 0.28214  0.76989  0.13624  Biso   1.000  O
  O15      1.0000 0.26512  0.84184  0.17451  Biso   1.000  O
  O16      1.0000 0.64664  0.65311  0.65657  Biso   1.000  O
  O17      1.0000 0.58780  0.71461  0.65957  Biso   1.000  O
  O18      1.0000 0.62604  0.17298  0.15422  Biso   1.000  O
  O19      1.0000 0.69813  0.17925  0.11908  Biso   1.000  O
  O20      1.0000 0.69764  0.36259  0.26061  Biso   1.000  O
  O21      1.0000 0.69660  0.29704  0.31232  Biso   1.000  O
  O22      1.0000 0.29574  0.66968  0.19460  Biso   1.000  O
  O23      1.0000 0.25912  0.66502  0.26228  Biso   1.000  O
  O24      1.0000 0.58759  0.77886  0.75094  Biso   1.000  O
  O25      1.0000 0.66055  0.80856  0.79306  Biso   1.000  O
  O26      1.0000 0.20014  0.75091  0.21252  Biso   1.000  O
  Zn5      1.0000 0.24273  0.71856  0.16981  Biso   1.000  Zn
  Zn6      1.0000 0.20441  0.82245  0.20383  Biso   1.000  Zn
  Zn7      1.0000 0.22724  0.73276  0.28301  Biso   1.000  Zn
  Zn8      1.0000 0.12854  0.73228  0.19771  Biso   1.000  Zn
  C97      1.0000 0.79067  0.68370  0.64808  Biso   1.000  C
  C98      1.0000 0.83598  0.65781  0.63135  Biso   1.000  C
  C99      1.0000 0.86380  0.67970  0.59780  Biso   1.000  C
  H61      1.0000 0.85470  0.71270  0.58580  Biso   1.000  H
  C100     1.0000 0.90480  0.65450  0.58130  Biso   1.000  C
  H62      1.0000 0.92350  0.67000  0.55790  Biso   1.000  H
  C101     1.0000 0.91840  0.60589  0.59934  Biso   1.000  C
  C102     1.0000 0.89090  0.58438  0.63403  Biso   1.000  C
  H63      1.0000 0.90030  0.55190  0.64720  Biso   1.000  H
  C103     1.0000 0.84967  0.61045  0.64933  Biso   1.000  C
  H64      1.0000 0.83060  0.59530  0.67260  Biso   1.000  H
  C104     1.0000 0.98910  0.58310  0.54985  Biso   1.000  C
  C105     1.0000 0.10244  0.82650  0.14298  Biso   1.000  C
  C106     1.0000 0.06710  0.85390  0.10518  Biso   1.000  C
  C107     1.0000 0.08160  0.90050  0.08818  Biso   1.000  C
  H65      1.0000 0.11180  0.91690  0.10420  Biso   1.000  H
  C108     1.0000 0.05270  0.92370  0.04820  Biso   1.000  C
  H66      1.0000 0.06310  0.95570  0.03690  Biso   1.000  H
  C109     1.0000 0.00890  0.90000  0.02481  Biso   1.000  C
  C110     1.0000 0.99210  0.85430  0.04385  Biso   1.000  C
  H67      1.0000 0.96070  0.83900  0.02940  Biso   1.000  H
  C111     1.0000 0.02130  0.83190  0.08336  Biso   1.000  C
  H68      1.0000 0.01000  0.80080  0.09590  Biso   1.000  H
  C112     1.0000 0.15520  0.34046  0.62388  Biso   1.000  C
  C113     1.0000 0.13790  0.38548  0.59253  Biso   1.000  C
  C114     1.0000 0.09070  0.40795  0.59730  Biso   1.000  C
  H69      1.0000 0.06970  0.39400  0.61960  Biso   1.000  H
  C115     1.0000 0.07360  0.45020  0.57020  Biso   1.000  C
  H70      1.0000 0.04080  0.46470  0.57350  Biso   1.000  H
  C116     1.0000 0.10450  0.47165  0.53793  Biso   1.000  C
  C117     1.0000 0.15031  0.44662  0.53080  Biso   1.000  C
  H71      1.0000 0.17010  0.45860  0.50660  Biso   1.000  H
  C118     1.0000 0.16672  0.40531  0.55825  Biso   1.000  C
  H72      1.0000 0.19870  0.38970  0.55380  Biso   1.000  H
  C119     1.0000 0.05310  0.54950  0.51350  Biso   1.000  C
  C120     1.0000 0.18880  0.15750  0.80050  Biso   1.000  C
  C121     1.0000 0.16360  0.12390  0.83398  Biso   1.000  C
  C122     1.0000 0.13940  0.08100  0.81777  Biso   1.000  C
  H73      1.0000 0.13890  0.07130  0.78450  Biso   1.000  H
  C123     1.0000 0.11510  0.05050  0.84880  Biso   1.000  C
  H74      1.0000 0.09820  0.02020  0.83660  Biso   1.000  H
  C124     1.0000 0.11540  0.06370  0.89743  Biso   1.000  C
  C125     1.0000 0.13940  0.10630  0.91409  Biso   1.000  C
  H75      1.0000 0.14090  0.11500  0.94770  Biso   1.000  H
  C126     1.0000 0.16220  0.13840  0.88260  Biso   1.000  C
  H76      1.0000 0.17680  0.16990  0.89420  Biso   1.000  H
  C127     1.0000 0.79410  0.84665  0.73780  Biso   1.000  C
  C128     1.0000 0.83405  0.88310  0.75880  Biso   1.000  C
  C129     1.0000 0.83860  0.89360  0.80890  Biso   1.000  C
  H77      1.0000 0.81510  0.87830  0.82800  Biso   1.000  H
  C130     1.0000 0.87670  0.92570  0.83120  Biso   1.000  C
  H78      1.0000 0.87850  0.93290  0.86520  Biso   1.000  H
  C131     1.0000 0.91260  0.94760  0.80386  Biso   1.000  C
  C132     1.0000 0.90610  0.93940  0.75363  Biso   1.000  C
  H79      1.0000 0.92820  0.95610  0.73410  Biso   1.000  H
  C133     1.0000 0.86732  0.90690  0.73120  Biso   1.000  C
  H80      1.0000 0.86400  0.90110  0.69690  Biso   1.000  H
  C134     1.0000 0.97960  0.97850  0.87037  Biso   1.000  C
  C135     1.0000 0.99430  0.95000  0.94730  Biso   1.000  C
  C136     1.0000 0.04910  0.00470  0.92000  Biso   1.000  C
  C137     1.0000 0.11366  0.70300  0.28977  Biso   1.000  C
  C138     1.0000 0.08581  0.69226  0.33232  Biso   1.000  C
  C139     1.0000 0.03424  0.70721  0.33358  Biso   1.000  C
  H81      1.0000 0.01590  0.72470  0.30640  Biso   1.000  H
  C140     1.0000 0.00985  0.69673  0.37403  Biso   1.000  C
  H82      1.0000 0.97490  0.70690  0.37440  Biso   1.000  H
  C141     1.0000 0.03641  0.67130  0.41418  Biso   1.000  C
  C142     1.0000 0.08818  0.65670  0.41343  Biso   1.000  C
  H83      1.0000 0.10680  0.63950  0.44060  Biso   1.000  H
  C143     1.0000 0.11173  0.66761  0.37261  Biso   1.000  C
  H84      1.0000 0.14680  0.65790  0.37230  Biso   1.000  H
  C144     1.0000 0.01710  0.62340  0.48723  Biso   1.000  C
  N25      1.0000 0.95866  0.57687  0.58632  Biso   1.000  N
  H85      1.0000 0.96600  0.54970  0.60460  Biso   1.000  H
  N26      1.0000 0.98465  0.62375  0.52170  Biso   1.000  N
  N27      1.0000 0.02281  0.54406  0.54836  Biso   1.000  N
  N28      1.0000 0.98010  0.91730  0.98123  Biso   1.000  N
  H86      1.0000 0.94840  0.90520  0.97490  Biso   1.000  H
  N29      1.0000 0.09078  0.51444  0.50907  Biso   1.000  N
  H87      1.0000 0.10890  0.51950  0.48480  Biso   1.000  H
  N30      1.0000 0.09280  0.03310  0.93019  Biso   1.000  N
  H88      1.0000 0.10840  0.03220  0.96060  Biso   1.000  H
  N31      1.0000 0.95316  0.97850  0.82369  Biso   1.000  N
  H89      1.0000 0.96340  0.00120  0.80360  Biso   1.000  H
  N32      1.0000 0.96283  0.94940  0.90452  Biso   1.000  N
  N33      1.0000 0.03740  0.97700  0.95787  Biso   1.000  N
  N34      1.0000 0.02229  0.00630  0.87452  Biso   1.000  N
  N35      1.0000 0.01075  0.66310  0.45536  Biso   1.000  N
  H90      1.0000 0.98810  0.68630  0.46110  Biso   1.000  H
  N36      1.0000 0.05206  0.58764  0.48129  Biso   1.000  N
  O27      1.0000 0.78214  0.73011  0.63624  Biso   1.000  O
  O28      1.0000 0.76512  0.65816  0.67451  Biso   1.000  O
  O29      1.0000 0.14664  0.84689  0.15657  Biso   1.000  O
  O30      1.0000 0.08780  0.78539  0.15957  Biso   1.000  O
  O31      1.0000 0.12604  0.32702  0.65422  Biso   1.000  O
  O32      1.0000 0.19813  0.32075  0.61908  Biso   1.000  O
  O33      1.0000 0.19764  0.13741  0.76061  Biso   1.000  O
  O34      1.0000 0.19660  0.20296  0.81232  Biso   1.000  O
  O35      1.0000 0.79574  0.83032  0.69460  Biso   1.000  O
  O36      1.0000 0.75912  0.83498  0.76228  Biso   1.000  O
  O37      1.0000 0.08759  0.72114  0.25094  Biso   1.000  O
  O38      1.0000 0.16055  0.69144  0.29306  Biso   1.000  O
  O39      1.0000 0.70014  0.74909  0.71252  Biso   1.000  O
  Zn9      1.0000 0.74273  0.78144  0.66981  Biso   1.000  Zn
  Zn10     1.0000 0.70441  0.67755  0.70383  Biso   1.000  Zn
  Zn11     1.0000 0.72724  0.76724  0.78301  Biso   1.000  Zn
  Zn12     1.0000 0.62854  0.76772  0.69771  Biso   1.000  Zn
  C145     1.0000 0.29067  0.18370  0.64808  Biso   1.000  C
  C146     1.0000 0.33598  0.15781  0.63135  Biso   1.000  C
  C147     1.0000 0.36380  0.17970  0.59780  Biso   1.000  C
  H91      1.0000 0.35470  0.21270  0.58580  Biso   1.000  H
  C148     1.0000 0.40480  0.15450  0.58130  Biso   1.000  C
  H92      1.0000 0.42350  0.17000  0.55790  Biso   1.000  H
  C149     1.0000 0.41840  0.10589  0.59934  Biso   1.000  C
  C150     1.0000 0.39090  0.08438  0.63403  Biso   1.000  C
  H93      1.0000 0.40030  0.05190  0.64720  Biso   1.000  H
  C151     1.0000 0.34967  0.11045  0.64933  Biso   1.000  C
  H94      1.0000 0.33060  0.09530  0.67260  Biso   1.000  H
  C152     1.0000 0.48910  0.08310  0.54985  Biso   1.000  C
  C153     1.0000 0.60244  0.32650  0.14298  Biso   1.000  C
  C154     1.0000 0.56710  0.35390  0.10518  Biso   1.000  C
  C155     1.0000 0.58160  0.40050  0.08818  Biso   1.000  C
  H95      1.0000 0.61180  0.41690  0.10420  Biso   1.000  H
  C156     1.0000 0.55270  0.42370  0.04820  Biso   1.000  C
  H96      1.0000 0.56310  0.45570  0.03690  Biso   1.000  H
  C157     1.0000 0.50890  0.40000  0.02481  Biso   1.000  C
  C158     1.0000 0.49210  0.35430  0.04385  Biso   1.000  C
  H97      1.0000 0.46070  0.33900  0.02940  Biso   1.000  H
  C159     1.0000 0.52130  0.33190  0.08336  Biso   1.000  C
  H98      1.0000 0.51000  0.30080  0.09590  Biso   1.000  H
  C160     1.0000 0.65520  0.84046  0.62388  Biso   1.000  C
  C161     1.0000 0.63790  0.88548  0.59253  Biso   1.000  C
  C162     1.0000 0.59070  0.90795  0.59730  Biso   1.000  C
  H99      1.0000 0.56970  0.89400  0.61960  Biso   1.000  H
  C163     1.0000 0.57360  0.95020  0.57020  Biso   1.000  C
  H100     1.0000 0.54080  0.96470  0.57350  Biso   1.000  H
  C164     1.0000 0.60450  0.97165  0.53793  Biso   1.000  C
  C165     1.0000 0.65031  0.94662  0.53080  Biso   1.000  C
  H101     1.0000 0.67010  0.95860  0.50660  Biso   1.000  H
  C166     1.0000 0.66672  0.90531  0.55825  Biso   1.000  C
  H102     1.0000 0.69870  0.88970  0.55380  Biso   1.000  H
  C167     1.0000 0.55310  0.04950  0.51350  Biso   1.000  C
  C168     1.0000 0.68880  0.65750  0.80050  Biso   1.000  C
  C169     1.0000 0.66360  0.62390  0.83398  Biso   1.000  C
  C170     1.0000 0.63940  0.58100  0.81777  Biso   1.000  C
  H103     1.0000 0.63890  0.57130  0.78450  Biso   1.000  H
  C171     1.0000 0.61510  0.55050  0.84880  Biso   1.000  C
  H104     1.0000 0.59820  0.52020  0.83660  Biso   1.000  H
  C172     1.0000 0.61540  0.56370  0.89743  Biso   1.000  C
  C173     1.0000 0.63940  0.60630  0.91409  Biso   1.000  C
  H105     1.0000 0.64090  0.61500  0.94770  Biso   1.000  H
  C174     1.0000 0.66220  0.63840  0.88260  Biso   1.000  C
  H106     1.0000 0.67680  0.66990  0.89420  Biso   1.000  H
  C175     1.0000 0.29410  0.34665  0.73780  Biso   1.000  C
  C176     1.0000 0.33405  0.38310  0.75880  Biso   1.000  C
  C177     1.0000 0.33860  0.39360  0.80890  Biso   1.000  C
  H107     1.0000 0.31510  0.37830  0.82800  Biso   1.000  H
  C178     1.0000 0.37670  0.42570  0.83120  Biso   1.000  C
  H108     1.0000 0.37850  0.43290  0.86520  Biso   1.000  H
  C179     1.0000 0.41260  0.44760  0.80386  Biso   1.000  C
  C180     1.0000 0.40610  0.43940  0.75363  Biso   1.000  C
  H109     1.0000 0.42820  0.45610  0.73410  Biso   1.000  H
  C181     1.0000 0.36732  0.40690  0.73120  Biso   1.000  C
  H110     1.0000 0.36400  0.40110  0.69690  Biso   1.000  H
  C182     1.0000 0.47960  0.47850  0.87037  Biso   1.000  C
  C183     1.0000 0.49430  0.45000  0.94730  Biso   1.000  C
  C184     1.0000 0.54910  0.50470  0.92000  Biso   1.000  C
  C185     1.0000 0.61366  0.20300  0.28977  Biso   1.000  C
  C186     1.0000 0.58581  0.19226  0.33232  Biso   1.000  C
  C187     1.0000 0.53424  0.20721  0.33358  Biso   1.000  C
  H111     1.0000 0.51590  0.22470  0.30640  Biso   1.000  H
  C188     1.0000 0.50985  0.19673  0.37403  Biso   1.000  C
  H112     1.0000 0.47490  0.20690  0.37440  Biso   1.000  H
  C189     1.0000 0.53641  0.17130  0.41418  Biso   1.000  C
  C190     1.0000 0.58818  0.15670  0.41343  Biso   1.000  C
  H113     1.0000 0.60680  0.13950  0.44060  Biso   1.000  H
  C191     1.0000 0.61173  0.16761  0.37261  Biso   1.000  C
  H114     1.0000 0.64680  0.15790  0.37230  Biso   1.000  H
  C192     1.0000 0.51710  0.12340  0.48723  Biso   1.000  C
  N37      1.0000 0.45866  0.07687  0.58632  Biso   1.000  N
  H115     1.0000 0.46600  0.04970  0.60460  Biso   1.000  H
  N38      1.0000 0.48465  0.12375  0.52170  Biso   1.000  N
  N39      1.0000 0.52281  0.04406  0.54836  Biso   1.000  N
  N40      1.0000 0.48010  0.41730  0.98123  Biso   1.000  N
  H116     1.0000 0.44840  0.40520  0.97490  Biso   1.000  H
  N41      1.0000 0.59078  0.01444  0.50907  Biso   1.000  N
  H117     1.0000 0.60890  0.01950  0.48480  Biso   1.000  H
  N42      1.0000 0.59280  0.53310  0.93019  Biso   1.000  N
  H118     1.0000 0.60840  0.53220  0.96060  Biso   1.000  H
  N43      1.0000 0.45316  0.47850  0.82369  Biso   1.000  N
  H119     1.0000 0.46340  0.50120  0.80360  Biso   1.000  H
  N44      1.0000 0.46283  0.44940  0.90452  Biso   1.000  N
  N45      1.0000 0.53740  0.47700  0.95787  Biso   1.000  N
  N46      1.0000 0.52229  0.50630  0.87452  Biso   1.000  N
  N47      1.0000 0.51075  0.16310  0.45536  Biso   1.000  N
  H120     1.0000 0.48810  0.18630  0.46110  Biso   1.000  H
  N48      1.0000 0.55206  0.08764  0.48129  Biso   1.000  N
  O40      1.0000 0.28214  0.23011  0.63624  Biso   1.000  O
  O41      1.0000 0.26512  0.15816  0.67451  Biso   1.000  O
  O42      1.0000 0.64664  0.34689  0.15657  Biso   1.000  O
  O43      1.0000 0.58780  0.28539  0.15957  Biso   1.000  O
  O44      1.0000 0.62604  0.82702  0.65422  Biso   1.000  O
  O45      1.0000 0.69813  0.82075  0.61908  Biso   1.000  O
  O46      1.0000 0.69764  0.63741  0.76061  Biso   1.000  O
  O47      1.0000 0.69660  0.70296  0.81232  Biso   1.000  O
  O48      1.0000 0.29574  0.33032  0.69460  Biso   1.000  O
  O49      1.0000 0.25912  0.33498  0.76228  Biso   1.000  O
  O50      1.0000 0.58759  0.22114  0.25094  Biso   1.000  O
  O51      1.0000 0.66055  0.19144  0.29306  Biso   1.000  O
  O52      1.0000 0.20014  0.24909  0.71252  Biso   1.000  O
  Zn13     1.0000 0.24273  0.28144  0.66981  Biso   1.000  Zn
  Zn14     1.0000 0.20441  0.17755  0.70383  Biso   1.000  Zn
  Zn15     1.0000 0.22724  0.26724  0.78301  Biso   1.000  Zn
  Zn16     1.0000 0.12854  0.26772  0.69771  Biso   1.000  Zn
  C193     1.0000 0.20933  0.31630  0.35192  Biso   1.000  C
  C194     1.0000 0.16402  0.34219  0.36865  Biso   1.000  C
  C195     1.0000 0.13620  0.32030  0.40220  Biso   1.000  C
  H121     1.0000 0.14530  0.28730  0.41420  Biso   1.000  H
  C196     1.0000 0.09520  0.34550  0.41870  Biso   1.000  C
  H122     1.0000 0.07650  0.33000  0.44210  Biso   1.000  H
  C197     1.0000 0.08160  0.39411  0.40066  Biso   1.000  C
  C198     1.0000 0.10910  0.41562  0.36597  Biso   1.000  C
  H123     1.0000 0.09970  0.44810  0.35280  Biso   1.000  H
  C199     1.0000 0.15033  0.38955  0.35067  Biso   1.000  C
  H124     1.0000 0.16940  0.40470  0.32740  Biso   1.000  H
  C200     1.0000 0.01090  0.41690  0.45015  Biso   1.000  C
  C201     1.0000 0.89756  0.17350  0.85702  Biso   1.000  C
  C202     1.0000 0.93290  0.14610  0.89482  Biso   1.000  C
  C203     1.0000 0.91840  0.09950  0.91182  Biso   1.000  C
  H125     1.0000 0.88820  0.08310  0.89580  Biso   1.000  H
  C204     1.0000 0.94730  0.07630  0.95180  Biso   1.000  C
  H126     1.0000 0.93690  0.04430  0.96310  Biso   1.000  H
  C205     1.0000 0.99110  0.10000  0.97519  Biso   1.000  C
  C206     1.0000 0.00790  0.14570  0.95615  Biso   1.000  C
  H127     1.0000 0.03930  0.16100  0.97060  Biso   1.000  H
  C207     1.0000 0.97870  0.16810  0.91664  Biso   1.000  C
  H128     1.0000 0.99000  0.19920  0.90410  Biso   1.000  H
  C208     1.0000 0.84480  0.65954  0.37612  Biso   1.000  C
  C209     1.0000 0.86210  0.61452  0.40747  Biso   1.000  C
  C210     1.0000 0.90930  0.59205  0.40270  Biso   1.000  C
  H129     1.0000 0.93030  0.60600  0.38040  Biso   1.000  H
  C211     1.0000 0.92640  0.54980  0.42980  Biso   1.000  C
  H130     1.0000 0.95920  0.53530  0.42650  Biso   1.000  H
  C212     1.0000 0.89550  0.52835  0.46207  Biso   1.000  C
  C213     1.0000 0.84969  0.55338  0.46920  Biso   1.000  C
  H131     1.0000 0.82990  0.54140  0.49340  Biso   1.000  H
  C214     1.0000 0.83328  0.59469  0.44175  Biso   1.000  C
  H132     1.0000 0.80130  0.61030  0.44620  Biso   1.000  H
  C215     1.0000 0.94690  0.45050  0.48650  Biso   1.000  C
  C216     1.0000 0.81120  0.84250  0.19950  Biso   1.000  C
  C217     1.0000 0.83640  0.87610  0.16602  Biso   1.000  C
  C218     1.0000 0.86060  0.91900  0.18223  Biso   1.000  C
  H133     1.0000 0.86110  0.92870  0.21550  Biso   1.000  H
  C219     1.0000 0.88490  0.94950  0.15120  Biso   1.000  C
  H134     1.0000 0.90180  0.97980  0.16340  Biso   1.000  H
  C220     1.0000 0.88460  0.93630  0.10257  Biso   1.000  C
  C221     1.0000 0.86060  0.89370  0.08591  Biso   1.000  C
  H135     1.0000 0.85910  0.88500  0.05230  Biso   1.000  H
  C222     1.0000 0.83780  0.86160  0.11740  Biso   1.000  C
  H136     1.0000 0.82320  0.83010  0.10580  Biso   1.000  H
  C223     1.0000 0.20590  0.15335  0.26220  Biso   1.000  C
  C224     1.0000 0.16595  0.11690  0.24120  Biso   1.000  C
  C225     1.0000 0.16140  0.10640  0.19110  Biso   1.000  C
  H137     1.0000 0.18490  0.12170  0.17200  Biso   1.000  H
  C226     1.0000 0.12330  0.07430  0.16880  Biso   1.000  C
  H138     1.0000 0.12150  0.06710  0.13480  Biso   1.000  H
  C227     1.0000 0.08740  0.05240  0.19614  Biso   1.000  C
  C228     1.0000 0.09390  0.06060  0.24637  Biso   1.000  C
  H139     1.0000 0.07180  0.04390  0.26590  Biso   1.000  H
  C229     1.0000 0.13268  0.09310  0.26880  Biso   1.000  C
  H140     1.0000 0.13600  0.09890  0.30310  Biso   1.000  H
  C230     1.0000 0.02040  0.02150  0.12963  Biso   1.000  C
  C231     1.0000 0.00570  0.05000  0.05270  Biso   1.000  C
  C232     1.0000 0.95090  0.99530  0.08000  Biso   1.000  C
  C233     1.0000 0.88634  0.29700  0.71023  Biso   1.000  C
  C234     1.0000 0.91419  0.30774  0.66768  Biso   1.000  C
  C235     1.0000 0.96576  0.29279  0.66642  Biso   1.000  C
  H141     1.0000 0.98410  0.27530  0.69360  Biso   1.000  H
  C236     1.0000 0.99015  0.30327  0.62597  Biso   1.000  C
  H142     1.0000 0.02510  0.29310  0.62560  Biso   1.000  H
  C237     1.0000 0.96359  0.32870  0.58582  Biso   1.000  C
  C238     1.0000 0.91182  0.34330  0.58657  Biso   1.000  C
  H143     1.0000 0.89320  0.36050  0.55940  Biso   1.000  H
  C239     1.0000 0.88827  0.33239  0.62739  Biso   1.000  C
  H144     1.0000 0.85320  0.34210  0.62770  Biso   1.000  H
  C240     1.0000 0.98290  0.37660  0.51277  Biso   1.000  C
  N49      1.0000 0.04134  0.42313  0.41368  Biso   1.000  N
  H145     1.0000 0.03400  0.45030  0.39540  Biso   1.000  H
  N50      1.0000 0.01535  0.37625  0.47830  Biso   1.000  N
  N51      1.0000 0.97719  0.45594  0.45164  Biso   1.000  N
  N52      1.0000 0.01990  0.08270  0.01877  Biso   1.000  N
  H146     1.0000 0.05160  0.09480  0.02510  Biso   1.000  H
  N53      1.0000 0.90922  0.48556  0.49093  Biso   1.000  N
  H147     1.0000 0.89110  0.48050  0.51520  Biso   1.000  H
  N54      1.0000 0.90720  0.96690  0.06981  Biso   1.000  N
  H148     1.0000 0.89160  0.96780  0.03940  Biso   1.000  H
  N55      1.0000 0.04684  0.02150  0.17631  Biso   1.000  N
  H149     1.0000 0.03660  0.99880  0.19640  Biso   1.000  H
  N56      1.0000 0.03717  0.05060  0.09548  Biso   1.000  N
  N57      1.0000 0.96260  0.02300  0.04213  Biso   1.000  N
  N58      1.0000 0.97771  0.99370  0.12548  Biso   1.000  N
  N59      1.0000 0.98925  0.33690  0.54464  Biso   1.000  N
  H150     1.0000 0.01190  0.31370  0.53890  Biso   1.000  H
  N60      1.0000 0.94794  0.41236  0.51871  Biso   1.000  N
  O53      1.0000 0.21786  0.26989  0.36376  Biso   1.000  O
  O54      1.0000 0.23488  0.34184  0.32549  Biso   1.000  O
  O55      1.0000 0.85336  0.15311  0.84343  Biso   1.000  O
  O56      1.0000 0.91220  0.21461  0.84043  Biso   1.000  O
  O57      1.0000 0.87396  0.67298  0.34578  Biso   1.000  O
  O58      1.0000 0.80187  0.67925  0.38092  Biso   1.000  O
  O59      1.0000 0.80236  0.86259  0.23939  Biso   1.000  O
  O60      1.0000 0.80340  0.79704  0.18768  Biso   1.000  O
  O61      1.0000 0.20426  0.16968  0.30540  Biso   1.000  O
  O62      1.0000 0.24088  0.16502  0.23772  Biso   1.000  O
  O63      1.0000 0.91241  0.27886  0.74906  Biso   1.000  O
  O64      1.0000 0.83945  0.30856  0.70694  Biso   1.000  O
  O65      1.0000 0.29986  0.25091  0.28748  Biso   1.000  O
  Zn17     1.0000 0.25727  0.21856  0.33019  Biso   1.000  Zn
  Zn18     1.0000 0.29559  0.32245  0.29617  Biso   1.000  Zn
  Zn19     1.0000 0.27276  0.23276  0.21699  Biso   1.000  Zn
  Zn20     1.0000 0.37146  0.23228  0.30229  Biso   1.000  Zn
  C241     1.0000 0.70933  0.81630  0.35192  Biso   1.000  C
  C242     1.0000 0.66402  0.84219  0.36865  Biso   1.000  C
  C243     1.0000 0.63620  0.82030  0.40220  Biso   1.000  C
  H151     1.0000 0.64530  0.78730  0.41420  Biso   1.000  H
  C244     1.0000 0.59520  0.84550  0.41870  Biso   1.000  C
  H152     1.0000 0.57650  0.83000  0.44210  Biso   1.000  H
  C245     1.0000 0.58160  0.89411  0.40066  Biso   1.000  C
  C246     1.0000 0.60910  0.91562  0.36597  Biso   1.000  C
  H153     1.0000 0.59970  0.94810  0.35280  Biso   1.000  H
  C247     1.0000 0.65033  0.88955  0.35067  Biso   1.000  C
  H154     1.0000 0.66940  0.90470  0.32740  Biso   1.000  H
  C248     1.0000 0.51090  0.91690  0.45015  Biso   1.000  C
  C249     1.0000 0.39756  0.67350  0.85702  Biso   1.000  C
  C250     1.0000 0.43290  0.64610  0.89482  Biso   1.000  C
  C251     1.0000 0.41840  0.59950  0.91182  Biso   1.000  C
  H155     1.0000 0.38820  0.58310  0.89580  Biso   1.000  H
  C252     1.0000 0.44730  0.57630  0.95180  Biso   1.000  C
  H156     1.0000 0.43690  0.54430  0.96310  Biso   1.000  H
  C253     1.0000 0.49110  0.60000  0.97519  Biso   1.000  C
  C254     1.0000 0.50790  0.64570  0.95615  Biso   1.000  C
  H157     1.0000 0.53930  0.66100  0.97060  Biso   1.000  H
  C255     1.0000 0.47870  0.66810  0.91664  Biso   1.000  C
  H158     1.0000 0.49000  0.69920  0.90410  Biso   1.000  H
  C256     1.0000 0.34480  0.15954  0.37612  Biso   1.000  C
  C257     1.0000 0.36210  0.11452  0.40747  Biso   1.000  C
  C258     1.0000 0.40930  0.09205  0.40270  Biso   1.000  C
  H159     1.0000 0.43030  0.10600  0.38040  Biso   1.000  H
  C259     1.0000 0.42640  0.04980  0.42980  Biso   1.000  C
  H160     1.0000 0.45920  0.03530  0.42650  Biso   1.000  H
  C260     1.0000 0.39550  0.02835  0.46207  Biso   1.000  C
  C261     1.0000 0.34969  0.05338  0.46920  Biso   1.000  C
  H161     1.0000 0.32990  0.04140  0.49340  Biso   1.000  H
  C262     1.0000 0.33328  0.09469  0.44175  Biso   1.000  C
  H162     1.0000 0.30130  0.11030  0.44620  Biso   1.000  H
  C263     1.0000 0.44690  0.95050  0.48650  Biso   1.000  C
  C264     1.0000 0.31120  0.34250  0.19950  Biso   1.000  C
  C265     1.0000 0.33640  0.37610  0.16602  Biso   1.000  C
  C266     1.0000 0.36060  0.41900  0.18223  Biso   1.000  C
  H163     1.0000 0.36110  0.42870  0.21550  Biso   1.000  H
  C267     1.0000 0.38490  0.44950  0.15120  Biso   1.000  C
  H164     1.0000 0.40180  0.47980  0.16340  Biso   1.000  H
  C268     1.0000 0.38460  0.43630  0.10257  Biso   1.000  C
  C269     1.0000 0.36060  0.39370  0.08591  Biso   1.000  C
  H165     1.0000 0.35910  0.38500  0.05230  Biso   1.000  H
  C270     1.0000 0.33780  0.36160  0.11740  Biso   1.000  C
  H166     1.0000 0.32320  0.33010  0.10580  Biso   1.000  H
  C271     1.0000 0.70590  0.65335  0.26220  Biso   1.000  C
  C272     1.0000 0.66595  0.61690  0.24120  Biso   1.000  C
  C273     1.0000 0.66140  0.60640  0.19110  Biso   1.000  C
  H167     1.0000 0.68490  0.62170  0.17200  Biso   1.000  H
  C274     1.0000 0.62330  0.57430  0.16880  Biso   1.000  C
  H168     1.0000 0.62150  0.56710  0.13480  Biso   1.000  H
  C275     1.0000 0.58740  0.55240  0.19614  Biso   1.000  C
  C276     1.0000 0.59390  0.56060  0.24637  Biso   1.000  C
  H169     1.0000 0.57180  0.54390  0.26590  Biso   1.000  H
  C277     1.0000 0.63268  0.59310  0.26880  Biso   1.000  C
  H170     1.0000 0.63600  0.59890  0.30310  Biso   1.000  H
  C278     1.0000 0.52040  0.52150  0.12963  Biso   1.000  C
  C279     1.0000 0.50570  0.55000  0.05270  Biso   1.000  C
  C280     1.0000 0.45090  0.49530  0.08000  Biso   1.000  C
  C281     1.0000 0.38634  0.79700  0.71023  Biso   1.000  C
  C282     1.0000 0.41419  0.80774  0.66768  Biso   1.000  C
  C283     1.0000 0.46576  0.79279  0.66642  Biso   1.000  C
  H171     1.0000 0.48410  0.77530  0.69360  Biso   1.000  H
  C284     1.0000 0.49015  0.80327  0.62597  Biso   1.000  C
  H172     1.0000 0.52510  0.79310  0.62560  Biso   1.000  H
  C285     1.0000 0.46359  0.82870  0.58582  Biso   1.000  C
  C286     1.0000 0.41182  0.84330  0.58657  Biso   1.000  C
  H173     1.0000 0.39320  0.86050  0.55940  Biso   1.000  H
  C287     1.0000 0.38827  0.83239  0.62739  Biso   1.000  C
  H174     1.0000 0.35320  0.84210  0.62770  Biso   1.000  H
  C288     1.0000 0.48290  0.87660  0.51277  Biso   1.000  C
  N61      1.0000 0.54134  0.92313  0.41368  Biso   1.000  N
  H175     1.0000 0.53400  0.95030  0.39540  Biso   1.000  H
  N62      1.0000 0.51535  0.87625  0.47830  Biso   1.000  N
  N63      1.0000 0.47719  0.95594  0.45164  Biso   1.000  N
  N64      1.0000 0.51990  0.58270  0.01877  Biso   1.000  N
  H176     1.0000 0.55160  0.59480  0.02510  Biso   1.000  H
  N65      1.0000 0.40922  0.98556  0.49093  Biso   1.000  N
  H177     1.0000 0.39110  0.98050  0.51520  Biso   1.000  H
  N66      1.0000 0.40720  0.46690  0.06981  Biso   1.000  N
  H178     1.0000 0.39160  0.46780  0.03940  Biso   1.000  H
  N67      1.0000 0.54684  0.52150  0.17631  Biso   1.000  N
  H179     1.0000 0.53660  0.49880  0.19640  Biso   1.000  H
  N68      1.0000 0.53717  0.55060  0.09548  Biso   1.000  N
  N69      1.0000 0.46260  0.52300  0.04213  Biso   1.000  N
  N70      1.0000 0.47771  0.49370  0.12548  Biso   1.000  N
  N71      1.0000 0.48925  0.83690  0.54464  Biso   1.000  N
  H180     1.0000 0.51190  0.81370  0.53890  Biso   1.000  H
  N72      1.0000 0.44794  0.91236  0.51871  Biso   1.000  N
  O66      1.0000 0.71786  0.76989  0.36376  Biso   1.000  O
  O67      1.0000 0.73488  0.84184  0.32549  Biso   1.000  O
  O68      1.0000 0.35336  0.65311  0.84343  Biso   1.000  O
  O69      1.0000 0.41220  0.71461  0.84043  Biso   1.000  O
  O70      1.0000 0.37396  0.17298  0.34578  Biso   1.000  O
  O71      1.0000 0.30187  0.17925  0.38092  Biso   1.000  O
  O72      1.0000 0.30236  0.36259  0.23939  Biso   1.000  O
  O73      1.0000 0.30340  0.29704  0.18768  Biso   1.000  O
  O74      1.0000 0.70426  0.66968  0.30540  Biso   1.000  O
  O75      1.0000 0.74088  0.66502  0.23772  Biso   1.000  O
  O76      1.0000 0.41241  0.77886  0.74906  Biso   1.000  O
  O77      1.0000 0.33945  0.80856  0.70694  Biso   1.000  O
  O78      1.0000 0.79986  0.75091  0.28748  Biso   1.000  O
  Zn21     1.0000 0.75727  0.71856  0.33019  Biso   1.000  Zn
  Zn22     1.0000 0.79559  0.82245  0.29617  Biso   1.000  Zn
  Zn23     1.0000 0.77276  0.73276  0.21699  Biso   1.000  Zn
  Zn24     1.0000 0.87146  0.73228  0.30229  Biso   1.000  Zn
  C289     1.0000 0.20933  0.68370  0.85192  Biso   1.000  C
  C290     1.0000 0.16402  0.65781  0.86865  Biso   1.000  C
  C291     1.0000 0.13620  0.67970  0.90220  Biso   1.000  C
  H181     1.0000 0.14530  0.71270  0.91420  Biso   1.000  H
  C292     1.0000 0.09520  0.65450  0.91870  Biso   1.000  C
  H182     1.0000 0.07650  0.67000  0.94210  Biso   1.000  H
  C293     1.0000 0.08160  0.60589  0.90066  Biso   1.000  C
  C294     1.0000 0.10910  0.58438  0.86597  Biso   1.000  C
  H183     1.0000 0.09970  0.55190  0.85280  Biso   1.000  H
  C295     1.0000 0.15033  0.61045  0.85067  Biso   1.000  C
  H184     1.0000 0.16940  0.59530  0.82740  Biso   1.000  H
  C296     1.0000 0.01090  0.58310  0.95015  Biso   1.000  C
  C297     1.0000 0.89756  0.82650  0.35702  Biso   1.000  C
  C298     1.0000 0.93290  0.85390  0.39482  Biso   1.000  C
  C299     1.0000 0.91840  0.90050  0.41182  Biso   1.000  C
  H185     1.0000 0.88820  0.91690  0.39580  Biso   1.000  H
  C300     1.0000 0.94730  0.92370  0.45180  Biso   1.000  C
  H186     1.0000 0.93690  0.95570  0.46310  Biso   1.000  H
  C301     1.0000 0.99110  0.90000  0.47519  Biso   1.000  C
  C302     1.0000 0.00790  0.85430  0.45615  Biso   1.000  C
  H187     1.0000 0.03930  0.83900  0.47060  Biso   1.000  H
  C303     1.0000 0.97870  0.83190  0.41664  Biso   1.000  C
  H188     1.0000 0.99000  0.80080  0.40410  Biso   1.000  H
  C304     1.0000 0.84480  0.34046  0.87612  Biso   1.000  C
  C305     1.0000 0.86210  0.38548  0.90747  Biso   1.000  C
  C306     1.0000 0.90930  0.40795  0.90270  Biso   1.000  C
  H189     1.0000 0.93030  0.39400  0.88040  Biso   1.000  H
  C307     1.0000 0.92640  0.45020  0.92980  Biso   1.000  C
  H190     1.0000 0.95920  0.46470  0.92650  Biso   1.000  H
  C308     1.0000 0.89550  0.47165  0.96207  Biso   1.000  C
  C309     1.0000 0.84969  0.44662  0.96920  Biso   1.000  C
  H191     1.0000 0.82990  0.45860  0.99340  Biso   1.000  H
  C310     1.0000 0.83328  0.40531  0.94175  Biso   1.000  C
  H192     1.0000 0.80130  0.38970  0.94620  Biso   1.000  H
  C311     1.0000 0.94690  0.54950  0.98650  Biso   1.000  C
  C312     1.0000 0.81120  0.15750  0.69950  Biso   1.000  C
  C313     1.0000 0.83640  0.12390  0.66602  Biso   1.000  C
  C314     1.0000 0.86060  0.08100  0.68223  Biso   1.000  C
  H193     1.0000 0.86110  0.07130  0.71550  Biso   1.000  H
  C315     1.0000 0.88490  0.05050  0.65120  Biso   1.000  C
  H194     1.0000 0.90180  0.02020  0.66340  Biso   1.000  H
  C316     1.0000 0.88460  0.06370  0.60257  Biso   1.000  C
  C317     1.0000 0.86060  0.10630  0.58591  Biso   1.000  C
  H195     1.0000 0.85910  0.11500  0.55230  Biso   1.000  H
  C318     1.0000 0.83780  0.13840  0.61740  Biso   1.000  C
  H196     1.0000 0.82320  0.16990  0.60580  Biso   1.000  H
  C319     1.0000 0.20590  0.84665  0.76220  Biso   1.000  C
  C320     1.0000 0.16595  0.88310  0.74120  Biso   1.000  C
  C321     1.0000 0.16140  0.89360  0.69110  Biso   1.000  C
  H197     1.0000 0.18490  0.87830  0.67200  Biso   1.000  H
  C322     1.0000 0.12330  0.92570  0.66880  Biso   1.000  C
  H198     1.0000 0.12150  0.93290  0.63480  Biso   1.000  H
  C323     1.0000 0.08740  0.94760  0.69614  Biso   1.000  C
  C324     1.0000 0.09390  0.93940  0.74637  Biso   1.000  C
  H199     1.0000 0.07180  0.95610  0.76590  Biso   1.000  H
  C325     1.0000 0.13268  0.90690  0.76880  Biso   1.000  C
  H200     1.0000 0.13600  0.90110  0.80310  Biso   1.000  H
  C326     1.0000 0.02040  0.97850  0.62963  Biso   1.000  C
  C327     1.0000 0.00570  0.95000  0.55270  Biso   1.000  C
  C328     1.0000 0.95090  0.00470  0.58000  Biso   1.000  C
  C329     1.0000 0.88634  0.70300  0.21023  Biso   1.000  C
  C330     1.0000 0.91419  0.69226  0.16768  Biso   1.000  C
  C331     1.0000 0.96576  0.70721  0.16642  Biso   1.000  C
  H201     1.0000 0.98410  0.72470  0.19360  Biso   1.000  H
  C332     1.0000 0.99015  0.69673  0.12597  Biso   1.000  C
  H202     1.0000 0.02510  0.70690  0.12560  Biso   1.000  H
  C333     1.0000 0.96359  0.67130  0.08582  Biso   1.000  C
  C334     1.0000 0.91182  0.65670  0.08657  Biso   1.000  C
  H203     1.0000 0.89320  0.63950  0.05940  Biso   1.000  H
  C335     1.0000 0.88827  0.66761  0.12739  Biso   1.000  C
  H204     1.0000 0.85320  0.65790  0.12770  Biso   1.000  H
  C336     1.0000 0.98290  0.62340  0.01277  Biso   1.000  C
  N73      1.0000 0.04134  0.57687  0.91368  Biso   1.000  N
  H205     1.0000 0.03400  0.54970  0.89540  Biso   1.000  H
  N74      1.0000 0.01535  0.62375  0.97830  Biso   1.000  N
  N75      1.0000 0.97719  0.54406  0.95164  Biso   1.000  N
  N76      1.0000 0.01990  0.91730  0.51877  Biso   1.000  N
  H206     1.0000 0.05160  0.90520  0.52510  Biso   1.000  H
  N77      1.0000 0.90922  0.51444  0.99093  Biso   1.000  N
  H207     1.0000 0.89110  0.51950  0.01520  Biso   1.000  H
  N78      1.0000 0.90720  0.03310  0.56981  Biso   1.000  N
  H208     1.0000 0.89160  0.03220  0.53940  Biso   1.000  H
  N79      1.0000 0.04684  0.97850  0.67631  Biso   1.000  N
  H209     1.0000 0.03660  0.00120  0.69640  Biso   1.000  H
  N80      1.0000 0.03717  0.94940  0.59548  Biso   1.000  N
  N81      1.0000 0.96260  0.97700  0.54213  Biso   1.000  N
  N82      1.0000 0.97771  0.00630  0.62548  Biso   1.000  N
  N83      1.0000 0.98925  0.66310  0.04464  Biso   1.000  N
  H210     1.0000 0.01190  0.68630  0.03890  Biso   1.000  H
  N84      1.0000 0.94794  0.58764  0.01871  Biso   1.000  N
  O79      1.0000 0.21786  0.73011  0.86376  Biso   1.000  O
  O80      1.0000 0.23488  0.65816  0.82549  Biso   1.000  O
  O81      1.0000 0.85336  0.84689  0.34343  Biso   1.000  O
  O82      1.0000 0.91220  0.78539  0.34043  Biso   1.000  O
  O83      1.0000 0.87396  0.32702  0.84578  Biso   1.000  O
  O84      1.0000 0.80187  0.32075  0.88092  Biso   1.000  O
  O85      1.0000 0.80236  0.13741  0.73939  Biso   1.000  O
  O86      1.0000 0.80340  0.20296  0.68768  Biso   1.000  O
  O87      1.0000 0.20426  0.83032  0.80540  Biso   1.000  O
  O88      1.0000 0.24088  0.83498  0.73772  Biso   1.000  O
  O89      1.0000 0.91241  0.72114  0.24906  Biso   1.000  O
  O90      1.0000 0.83945  0.69144  0.20694  Biso   1.000  O
  O91      1.0000 0.29986  0.74909  0.78748  Biso   1.000  O
  Zn25     1.0000 0.25727  0.78144  0.83019  Biso   1.000  Zn
  Zn26     1.0000 0.29559  0.67755  0.79617  Biso   1.000  Zn
  Zn27     1.0000 0.27276  0.76724  0.71699  Biso   1.000  Zn
  Zn28     1.0000 0.37146  0.76772  0.80229  Biso   1.000  Zn
  C337     1.0000 0.70933  0.18370  0.85192  Biso   1.000  C
  C338     1.0000 0.66402  0.15781  0.86865  Biso   1.000  C
  C339     1.0000 0.63620  0.17970  0.90220  Biso   1.000  C
  H211     1.0000 0.64530  0.21270  0.91420  Biso   1.000  H
  C340     1.0000 0.59520  0.15450  0.91870  Biso   1.000  C
  H212     1.0000 0.57650  0.17000  0.94210  Biso   1.000  H
  C341     1.0000 0.58160  0.10589  0.90066  Biso   1.000  C
  C342     1.0000 0.60910  0.08438  0.86597  Biso   1.000  C
  H213     1.0000 0.59970  0.05190  0.85280  Biso   1.000  H
  C343     1.0000 0.65033  0.11045  0.85067  Biso   1.000  C
  H214     1.0000 0.66940  0.09530  0.82740  Biso   1.000  H
  C344     1.0000 0.51090  0.08310  0.95015  Biso   1.000  C
  C345     1.0000 0.39756  0.32650  0.35702  Biso   1.000  C
  C346     1.0000 0.43290  0.35390  0.39482  Biso   1.000  C
  C347     1.0000 0.41840  0.40050  0.41182  Biso   1.000  C
  H215     1.0000 0.38820  0.41690  0.39580  Biso   1.000  H
  C348     1.0000 0.44730  0.42370  0.45180  Biso   1.000  C
  H216     1.0000 0.43690  0.45570  0.46310  Biso   1.000  H
  C349     1.0000 0.49110  0.40000  0.47519  Biso   1.000  C
  C350     1.0000 0.50790  0.35430  0.45615  Biso   1.000  C
  H217     1.0000 0.53930  0.33900  0.47060  Biso   1.000  H
  C351     1.0000 0.47870  0.33190  0.41664  Biso   1.000  C
  H218     1.0000 0.49000  0.30080  0.40410  Biso   1.000  H
  C352     1.0000 0.34480  0.84046  0.87612  Biso   1.000  C
  C353     1.0000 0.36210  0.88548  0.90747  Biso   1.000  C
  C354     1.0000 0.40930  0.90795  0.90270  Biso   1.000  C
  H219     1.0000 0.43030  0.89400  0.88040  Biso   1.000  H
  C355     1.0000 0.42640  0.95020  0.92980  Biso   1.000  C
  H220     1.0000 0.45920  0.96470  0.92650  Biso   1.000  H
  C356     1.0000 0.39550  0.97165  0.96207  Biso   1.000  C
  C357     1.0000 0.34969  0.94662  0.96920  Biso   1.000  C
  H221     1.0000 0.32990  0.95860  0.99340  Biso   1.000  H
  C358     1.0000 0.33328  0.90531  0.94175  Biso   1.000  C
  H222     1.0000 0.30130  0.88970  0.94620  Biso   1.000  H
  C359     1.0000 0.44690  0.04950  0.98650  Biso   1.000  C
  C360     1.0000 0.31120  0.65750  0.69950  Biso   1.000  C
  C361     1.0000 0.33640  0.62390  0.66602  Biso   1.000  C
  C362     1.0000 0.36060  0.58100  0.68223  Biso   1.000  C
  H223     1.0000 0.36110  0.57130  0.71550  Biso   1.000  H
  C363     1.0000 0.38490  0.55050  0.65120  Biso   1.000  C
  H224     1.0000 0.40180  0.52020  0.66340  Biso   1.000  H
  C364     1.0000 0.38460  0.56370  0.60257  Biso   1.000  C
  C365     1.0000 0.36060  0.60630  0.58591  Biso   1.000  C
  H225     1.0000 0.35910  0.61500  0.55230  Biso   1.000  H
  C366     1.0000 0.33780  0.63840  0.61740  Biso   1.000  C
  H226     1.0000 0.32320  0.66990  0.60580  Biso   1.000  H
  C367     1.0000 0.70590  0.34665  0.76220  Biso   1.000  C
  C368     1.0000 0.66595  0.38310  0.74120  Biso   1.000  C
  C369     1.0000 0.66140  0.39360  0.69110  Biso   1.000  C
  H227     1.0000 0.68490  0.37830  0.67200  Biso   1.000  H
  C370     1.0000 0.62330  0.42570  0.66880  Biso   1.000  C
  H228     1.0000 0.62150  0.43290  0.63480  Biso   1.000  H
  C371     1.0000 0.58740  0.44760  0.69614  Biso   1.000  C
  C372     1.0000 0.59390  0.43940  0.74637  Biso   1.000  C
  H229     1.0000 0.57180  0.45610  0.76590  Biso   1.000  H
  C373     1.0000 0.63268  0.40690  0.76880  Biso   1.000  C
  H230     1.0000 0.63600  0.40110  0.80310  Biso   1.000  H
  C374     1.0000 0.52040  0.47850  0.62963  Biso   1.000  C
  C375     1.0000 0.50570  0.45000  0.55270  Biso   1.000  C
  C376     1.0000 0.45090  0.50470  0.58000  Biso   1.000  C
  C377     1.0000 0.38634  0.20300  0.21023  Biso   1.000  C
  C378     1.0000 0.41419  0.19226  0.16768  Biso   1.000  C
  C379     1.0000 0.46576  0.20721  0.16642  Biso   1.000  C
  H231     1.0000 0.48410  0.22470  0.19360  Biso   1.000  H
  C380     1.0000 0.49015  0.19673  0.12597  Biso   1.000  C
  H232     1.0000 0.52510  0.20690  0.12560  Biso   1.000  H
  C381     1.0000 0.46359  0.17130  0.08582  Biso   1.000  C
  C382     1.0000 0.41182  0.15670  0.08657  Biso   1.000  C
  H233     1.0000 0.39320  0.13950  0.05940  Biso   1.000  H
  C383     1.0000 0.38827  0.16761  0.12739  Biso   1.000  C
  H234     1.0000 0.35320  0.15790  0.12770  Biso   1.000  H
  C384     1.0000 0.48290  0.12340  0.01277  Biso   1.000  C
  N85      1.0000 0.54134  0.07687  0.91368  Biso   1.000  N
  H235     1.0000 0.53400  0.04970  0.89540  Biso   1.000  H
  N86      1.0000 0.51535  0.12375  0.97830  Biso   1.000  N
  N87      1.0000 0.47719  0.04406  0.95164  Biso   1.000  N
  N88      1.0000 0.51990  0.41730  0.51877  Biso   1.000  N
  H236     1.0000 0.55160  0.40520  0.52510  Biso   1.000  H
  N89      1.0000 0.40922  0.01444  0.99093  Biso   1.000  N
  H237     1.0000 0.39110  0.01950  0.01520  Biso   1.000  H
  N90      1.0000 0.40720  0.53310  0.56981  Biso   1.000  N
  H238     1.0000 0.39160  0.53220  0.53940  Biso   1.000  H
  N91      1.0000 0.54684  0.47850  0.67631  Biso   1.000  N
  H239     1.0000 0.53660  0.50120  0.69640  Biso   1.000  H
  N92      1.0000 0.53717  0.44940  0.59548  Biso   1.000  N
  N93      1.0000 0.46260  0.47700  0.54213  Biso   1.000  N
  N94      1.0000 0.47771  0.50630  0.62548  Biso   1.000  N
  N95      1.0000 0.48925  0.16310  0.04464  Biso   1.000  N
  H240     1.0000 0.51190  0.18630  0.03890  Biso   1.000  H
  N96      1.0000 0.44794  0.08764  0.01871  Biso   1.000  N
  O92      1.0000 0.71786  0.23011  0.86376  Biso   1.000  O
  O93      1.0000 0.73488  0.15816  0.82549  Biso   1.000  O
  O94      1.0000 0.35336  0.34689  0.34343  Biso   1.000  O
  O95      1.0000 0.41220  0.28539  0.34043  Biso   1.000  O
  O96      1.0000 0.37396  0.82702  0.84578  Biso   1.000  O
  O97      1.0000 0.30187  0.82075  0.88092  Biso   1.000  O
  O98      1.0000 0.30236  0.63741  0.73939  Biso   1.000  O
  O99      1.0000 0.30340  0.70296  0.68768  Biso   1.000  O
  O100     1.0000 0.70426  0.33032  0.80540  Biso   1.000  O
  O101     1.0000 0.74088  0.33498  0.73772  Biso   1.000  O
  O102     1.0000 0.41241  0.22114  0.24906  Biso   1.000  O
  O103     1.0000 0.33945  0.19144  0.20694  Biso   1.000  O
  O104     1.0000 0.79986  0.24909  0.78748  Biso   1.000  O
  Zn29     1.0000 0.75727  0.28144  0.83019  Biso   1.000  Zn
  Zn30     1.0000 0.79559  0.17755  0.79617  Biso   1.000  Zn
  Zn31     1.0000 0.77276  0.26724  0.71699  Biso   1.000  Zn
  Zn32     1.0000 0.87146  0.26772  0.80229  Biso   1.000  Zn
