data_image0
_cell_length_a       21.498
_cell_length_b       36.91
_cell_length_c       20.059
_cell_angle_alpha    90
_cell_angle_beta     106.852
_cell_angle_gamma    90

_symmetry_space_group_name_H-M    "P 1"
_symmetry_int_tables_number       1

loop_
  _symmetry_equiv_pos_as_xyz
  'x, y, z'

loop_
  _atom_site_label
  _atom_site_occupancy
  _atom_site_fract_x
  _atom_site_fract_y
  _atom_site_fract_z
  _atom_site_thermal_displace_type
  _atom_site_B_iso_or_equiv
  _atom_site_type_symbol
  Co1      1.0000 0.35708  0.03840  0.04073  Biso   1.000  Co
  Co2      1.0000 0.19038  0.03894  0.92905  Biso   1.000  Co
  Co3      1.0000 0.30017  0.06009  0.86095  Biso   1.000  Co
  Co4      1.0000 0.30594  0.12278  0.09394  Biso   1.000  Co
  Co5      1.0000 0.22177  0.04333  0.09676  Biso   1.000  Co
  C1       1.0000 0.25600  0.98839  0.84340  Biso   1.000  C
  C2       1.0000 0.25740  0.94977  0.82150  Biso   1.000  C
  C3       1.0000 0.30650  0.93729  0.79570  Biso   1.000  C
  H1       1.0000 0.34030  0.95320  0.79240  Biso   1.000  H
  C4       1.0000 0.30640  0.90113  0.77430  Biso   1.000  C
  H2       1.0000 0.34050  0.89240  0.75740  Biso   1.000  H
  C5       1.0000 0.25710  0.87824  0.77760  Biso   1.000  C
  C6       1.0000 0.20860  0.89117  0.80380  Biso   1.000  C
  H3       1.0000 0.17380  0.87560  0.80520  Biso   1.000  H
  C7       1.0000 0.20960  0.92562  0.82760  Biso   1.000  C
  H4       1.0000 0.17740  0.93330  0.84850  Biso   1.000  H
  C8       1.0000 0.25410  0.84148  0.75300  Biso   1.000  C
  C9       1.0000 0.25000  0.81063  0.73320  Biso   1.000  C
  C10      1.0000 0.24290  0.77322  0.71510  Biso   1.000  C
  C11      1.0000 0.29810  0.75209  0.72160  Biso   1.000  C
  H5       1.0000 0.34000  0.76270  0.73770  Biso   1.000  H
  C12      1.0000 0.29170  0.71475  0.70410  Biso   1.000  C
  C13      1.0000 0.23040  0.69964  0.68290  Biso   1.000  C
  H6       1.0000 0.22590  0.67440  0.67340  Biso   1.000  H
  C14      1.0000 0.18190  0.75740  0.69100  Biso   1.000  C
  H7       1.0000 0.14430  0.77200  0.68530  Biso   1.000  H
  C15      1.0000 0.34670  0.69319  0.70450  Biso   1.000  C
  C16      1.0000 0.38930  0.67370  0.69860  Biso   1.000  C
  C17      1.0000 0.43760  0.64880  0.69070  Biso   1.000  C
  C18      1.0000 0.42030  0.61220  0.67670  Biso   1.000  C
  H8       1.0000 0.37960  0.60330  0.67910  Biso   1.000  H
  C19      1.0000 0.41280  0.11255  0.03270  Biso   1.000  C
  C20      1.0000 0.47210  0.13568  0.03800  Biso   1.000  C
  C21      1.0000 0.46820  0.17243  0.04150  Biso   1.000  C
  H9       1.0000 0.42740  0.18380  0.03610  Biso   1.000  H
  C22      1.0000 0.52460  0.19333  0.05320  Biso   1.000  C
  H10      1.0000 0.52150  0.21900  0.05480  Biso   1.000  H
  C23      1.0000 0.58470  0.17742  0.06230  Biso   1.000  C
  C24      1.0000 0.58740  0.14093  0.05740  Biso   1.000  C
  H11      1.0000 0.62780  0.12930  0.06230  Biso   1.000  H
  C25      1.0000 0.53060  0.12043  0.04500  Biso   1.000  C
  H12      1.0000 0.53340  0.09480  0.04150  Biso   1.000  H
  C26      1.0000 0.64220  0.19887  0.07700  Biso   1.000  C
  C27      1.0000 0.69230  0.21575  0.09490  Biso   1.000  C
  C28      1.0000 0.75340  0.23404  0.12030  Biso   1.000  C
  C29      1.0000 0.75690  0.27115  0.13140  Biso   1.000  C
  H13      1.0000 0.71830  0.28530  0.11870  Biso   1.000  H
  C30      1.0000 0.81700  0.28789  0.16130  Biso   1.000  C
  C31      1.0000 0.87440  0.26834  0.17770  Biso   1.000  C
  H14      1.0000 0.91510  0.28000  0.19690  Biso   1.000  H
  C32      1.0000 0.87080  0.23014  0.16470  Biso   1.000  C
  C33      1.0000 0.81060  0.21376  0.13800  Biso   1.000  C
  H15      1.0000 0.80830  0.18820  0.13170  Biso   1.000  H
  C34      1.0000 0.81840  0.32599  0.17700  Biso   1.000  C
  C35      1.0000 0.81990  0.35608  0.19980  Biso   1.000  C
  C36      1.0000 0.81910  0.38990  0.23290  Biso   1.000  C
  C37      1.0000 0.92930  0.21007  0.17680  Biso   1.000  C
  C38      1.0000 0.97820  0.19269  0.18160  Biso   1.000  C
  C39      1.0000 0.25630  0.98015  0.02720  Biso   1.000  C
  C40      1.0000 0.23680  0.94136  0.02230  Biso   1.000  C
  C41      1.0000 0.28380  0.91516  0.03380  Biso   1.000  C
  H16      1.0000 0.32800  0.92210  0.04240  Biso   1.000  H
  C42      1.0000 0.26830  0.87960  0.03310  Biso   1.000  C
  H17      1.0000 0.30210  0.86210  0.04430  Biso   1.000  H
  C43      1.0000 0.20430  0.86806  0.01650  Biso   1.000  C
  C44      1.0000 0.15560  0.89468  0.00330  Biso   1.000  C
  H18      1.0000 0.11120  0.88790  0.99210  Biso   1.000  H
  C45      1.0000 0.17280  0.93096  0.00650  Biso   1.000  C
  H19      1.0000 0.13970  0.94890  0.99780  Biso   1.000  H
  C46      1.0000 0.18870  0.83012  0.01500  Biso   1.000  C
  C47      1.0000 0.18290  0.79835  0.01460  Biso   1.000  C
  C48      1.0000 0.17980  0.75965  0.01660  Biso   1.000  C
  C49      1.0000 0.23630  0.73942  0.04540  Biso   1.000  C
  H20      1.0000 0.27640  0.75160  0.06490  Biso   1.000  H
  C50      1.0000 0.23460  0.70206  0.04590  Biso   1.000  C
  C51      1.0000 0.17590  0.68386  0.01320  Biso   1.000  C
  H21      1.0000 0.17490  0.65810  0.01140  Biso   1.000  H
  C52      1.0000 0.11920  0.70377  0.98320  Biso   1.000  C
  C53      1.0000 0.11990  0.74073  0.98480  Biso   1.000  C
  H22      1.0000 0.08100  0.75400  0.96490  Biso   1.000  H
  C54      1.0000 0.82870  0.58787  0.69780  Biso   1.000  C
  C55      1.0000 0.87730  0.60962  0.75280  Biso   1.000  C
  C56      1.0000 0.93560  0.61946  0.74220  Biso   1.000  C
  H23      1.0000 0.94400  0.61280  0.69990  Biso   1.000  H
  C57      1.0000 0.98090  0.63833  0.79050  Biso   1.000  C
  H24      1.0000 0.02100  0.64440  0.78220  Biso   1.000  H
  C58      1.0000 0.96940  0.64880  0.85150  Biso   1.000  C
  C59      1.0000 0.91050  0.64010  0.86320  Biso   1.000  C
  H25      1.0000 0.90170  0.64790  0.90470  Biso   1.000  H
  C60      1.0000 0.86420  0.61970  0.81400  Biso   1.000  C
  H26      1.0000 0.82440  0.61300  0.82240  Biso   1.000  H
  C61      1.0000 0.01940  0.66878  0.90410  Biso   1.000  C
  C62      1.0000 0.06060  0.68485  0.94180  Biso   1.000  C
  C63      1.0000 0.82910  0.60791  0.50530  Biso   1.000  C
  C64      1.0000 0.89000  0.62852  0.54020  Biso   1.000  C
  C65      1.0000 0.95020  0.61173  0.55190  Biso   1.000  C
  H27      1.0000 0.95280  0.58700  0.54000  Biso   1.000  H
  C66      1.0000 0.00510  0.63111  0.58030  Biso   1.000  C
  H28      1.0000 0.04600  0.61930  0.58900  Biso   1.000  H
  C67      1.0000 0.00400  0.66783  0.59740  Biso   1.000  C
  C68      1.0000 0.94440  0.68392  0.58670  Biso   1.000  C
  H29      1.0000 0.94160  0.70860  0.59920  Biso   1.000  H
  C69      1.0000 0.88850  0.66410  0.55760  Biso   1.000  C
  H30      1.0000 0.84750  0.67570  0.54950  Biso   1.000  H
  C70      1.0000 0.06210  0.68834  0.62630  Biso   1.000  C
  C71      1.0000 0.11240  0.70429  0.64970  Biso   1.000  C
  C72      1.0000 0.17470  0.72097  0.67520  Biso   1.000  C
  C73      1.0000 0.58270  0.60825  0.27980  Biso   1.000  C
  C74      1.0000 0.51680  0.62193  0.23350  Biso   1.000  C
  C75      1.0000 0.48500  0.64740  0.25850  Biso   1.000  C
  H31      1.0000 0.50280  0.65620  0.30460  Biso   1.000  H
  C76      1.0000 0.42530  0.66110  0.21680  Biso   1.000  C
  H32      1.0000 0.40290  0.67860  0.23580  Biso   1.000  H
  C77      1.0000 0.39960  0.65015  0.15210  Biso   1.000  C
  C78      1.0000 0.33960  0.66651  0.10920  Biso   1.000  C
  C79      1.0000 0.29120  0.68198  0.07850  Biso   1.000  C
  C80      1.0000 0.80250  0.48910  0.33620  Biso   1.000  C
  C81      1.0000 0.80830  0.45430  0.29960  Biso   1.000  C
  C82      1.0000 0.86520  0.43970  0.30240  Biso   1.000  C
  H33      1.0000 0.90340  0.45120  0.33060  Biso   1.000  H
  C83      1.0000 0.87200  0.40940  0.26720  Biso   1.000  C
  H34      1.0000 0.91400  0.40170  0.26650  Biso   1.000  H
  C84      1.0000 0.76590  0.40150  0.23750  Biso   1.000  C
  H35      1.0000 0.72890  0.38630  0.22150  Biso   1.000  H
  C85      1.0000 0.75700  0.43650  0.26540  Biso   1.000  C
  H36      1.0000 0.71470  0.44620  0.25900  Biso   1.000  H
  C86      1.0000 0.03430  0.17210  0.18300  Biso   1.000  C
  C87      1.0000 0.09040  0.18550  0.19850  Biso   1.000  C
  H37      1.0000 0.09610  0.20990  0.21460  Biso   1.000  H
  C88      1.0000 0.14800  0.16520  0.19310  Biso   1.000  C
  H38      1.0000 0.18830  0.17750  0.20040  Biso   1.000  H
  C89      1.0000 0.08600  0.12010  0.15930  Biso   1.000  C
  H39      1.0000 0.08010  0.09640  0.13990  Biso   1.000  H
  C90      1.0000 0.03100  0.13920  0.16490  Biso   1.000  C
  H40      1.0000 0.99030  0.12710  0.15480  Biso   1.000  H
  C91      1.0000 0.49640  0.66210  0.68360  Biso   1.000  C
  H41      1.0000 0.50700  0.68710  0.68930  Biso   1.000  H
  C92      1.0000 0.46510  0.58930  0.65900  Biso   1.000  C
  H42      1.0000 0.45420  0.56470  0.64810  Biso   1.000  H
  C93      1.0000 0.48810  0.60830  0.16890  Biso   1.000  C
  H43      1.0000 0.50870  0.58910  0.15180  Biso   1.000  H
  C94      1.0000 0.42960  0.62190  0.12730  Biso   1.000  C
  H44      1.0000 0.41010  0.61210  0.08230  Biso   1.000  H
  C95      1.0000 0.57220  0.57610  0.63610  Biso   1.000  C
  C96      1.0000 0.52440  0.60220  0.65720  Biso   1.000  C
  C97      1.0000 0.53890  0.63720  0.66760  Biso   1.000  C
  H45      1.0000 0.57960  0.64560  0.66400  Biso   1.000  H
  C98      1.0000 0.20060  0.11280  0.17020  Biso   1.000  C
  C99      1.0000 0.14460  0.13340  0.17960  Biso   1.000  C
  O1       1.0000 0.28454  0.05965  0.95280  Biso   1.000  O
  O2       1.0000 0.30530  0.06599  0.10030  Biso   1.000  O
  O3       1.0000 0.31420  0.98828  0.04120  Biso   1.000  O
  O4       1.0000 0.42239  0.07898  0.04040  Biso   1.000  O
  O5       1.0000 0.21030  0.00421  0.01400  Biso   1.000  O
  O6       1.0000 0.83310  0.57430  0.49700  Biso   1.000  O
  O7       1.0000 0.21280  0.99779  0.87020  Biso   1.000  O
  O8       1.0000 0.84447  0.57686  0.64790  Biso   1.000  O
  O9       1.0000 0.29900  0.00921  0.83200  Biso   1.000  O
  O10      1.0000 0.62690  0.58782  0.64890  Biso   1.000  O
  O11      1.0000 0.77270  0.58319  0.70820  Biso   1.000  O
  O12      1.0000 0.60830  0.62659  0.33070  Biso   1.000  O
  O13      1.0000 0.24780  0.12994  0.16190  Biso   1.000  O
  O14      1.0000 0.77700  0.62568  0.48840  Biso   1.000  O
  O15      1.0000 0.35759  0.12752  0.02000  Biso   1.000  O
  O16      1.0000 0.85210  0.50472  0.37740  Biso   1.000  O
  O17      1.0000 0.19460  0.07946  0.16490  Biso   1.000  O
  O18      1.0000 0.74370  0.50339  0.32350  Biso   1.000  O
  O19      1.0000 0.60600  0.58041  0.25830  Biso   1.000  O
  O20      1.0000 0.55130  0.54640  0.61240  Biso   1.000  O
  Co6      1.0000 0.64292  0.53840  0.45927  Biso   1.000  Co
  Co7      1.0000 0.80962  0.53894  0.57095  Biso   1.000  Co
  Co8      1.0000 0.69983  0.56009  0.63905  Biso   1.000  Co
  Co9      1.0000 0.69406  0.62278  0.40606  Biso   1.000  Co
  Co10     1.0000 0.77823  0.54333  0.40324  Biso   1.000  Co
  C100     1.0000 0.74400  0.48839  0.65660  Biso   1.000  C
  C101     1.0000 0.74260  0.44977  0.67850  Biso   1.000  C
  C102     1.0000 0.69350  0.43729  0.70430  Biso   1.000  C
  H46      1.0000 0.65970  0.45320  0.70760  Biso   1.000  H
  C103     1.0000 0.69360  0.40113  0.72570  Biso   1.000  C
  H47      1.0000 0.65950  0.39240  0.74260  Biso   1.000  H
  C104     1.0000 0.74290  0.37824  0.72240  Biso   1.000  C
  C105     1.0000 0.79140  0.39117  0.69620  Biso   1.000  C
  H48      1.0000 0.82620  0.37560  0.69480  Biso   1.000  H
  C106     1.0000 0.79040  0.42562  0.67240  Biso   1.000  C
  H49      1.0000 0.82260  0.43330  0.65150  Biso   1.000  H
  C107     1.0000 0.74590  0.34148  0.74700  Biso   1.000  C
  C108     1.0000 0.75000  0.31063  0.76680  Biso   1.000  C
  C109     1.0000 0.75710  0.27322  0.78490  Biso   1.000  C
  C110     1.0000 0.70190  0.25209  0.77840  Biso   1.000  C
  H50      1.0000 0.66000  0.26270  0.76230  Biso   1.000  H
  C111     1.0000 0.70830  0.21475  0.79590  Biso   1.000  C
  C112     1.0000 0.76960  0.19964  0.81710  Biso   1.000  C
  H51      1.0000 0.77410  0.17440  0.82660  Biso   1.000  H
  C113     1.0000 0.81810  0.25740  0.80900  Biso   1.000  C
  H52      1.0000 0.85570  0.27200  0.81470  Biso   1.000  H
  C114     1.0000 0.65330  0.19319  0.79550  Biso   1.000  C
  C115     1.0000 0.61070  0.17370  0.80140  Biso   1.000  C
  C116     1.0000 0.56240  0.14880  0.80930  Biso   1.000  C
  C117     1.0000 0.57970  0.11220  0.82330  Biso   1.000  C
  H53      1.0000 0.62040  0.10330  0.82090  Biso   1.000  H
  C118     1.0000 0.58720  0.61255  0.46730  Biso   1.000  C
  C119     1.0000 0.52790  0.63568  0.46200  Biso   1.000  C
  C120     1.0000 0.53180  0.67243  0.45850  Biso   1.000  C
  H54      1.0000 0.57260  0.68380  0.46390  Biso   1.000  H
  C121     1.0000 0.47540  0.69333  0.44680  Biso   1.000  C
  H55      1.0000 0.47850  0.71900  0.44520  Biso   1.000  H
  C122     1.0000 0.41530  0.67742  0.43770  Biso   1.000  C
  C123     1.0000 0.41260  0.64093  0.44260  Biso   1.000  C
  H56      1.0000 0.37220  0.62930  0.43770  Biso   1.000  H
  C124     1.0000 0.46940  0.62043  0.45500  Biso   1.000  C
  H57      1.0000 0.46660  0.59480  0.45850  Biso   1.000  H
  C125     1.0000 0.35780  0.69887  0.42300  Biso   1.000  C
  C126     1.0000 0.30770  0.71575  0.40510  Biso   1.000  C
  C127     1.0000 0.24660  0.73404  0.37970  Biso   1.000  C
  C128     1.0000 0.24310  0.77115  0.36860  Biso   1.000  C
  H58      1.0000 0.28170  0.78530  0.38130  Biso   1.000  H
  C129     1.0000 0.18300  0.78789  0.33870  Biso   1.000  C
  C130     1.0000 0.12560  0.76834  0.32230  Biso   1.000  C
  H59      1.0000 0.08490  0.78000  0.30310  Biso   1.000  H
  C131     1.0000 0.12920  0.73014  0.33530  Biso   1.000  C
  C132     1.0000 0.18940  0.71376  0.36200  Biso   1.000  C
  H60      1.0000 0.19170  0.68820  0.36830  Biso   1.000  H
  C133     1.0000 0.18160  0.82599  0.32300  Biso   1.000  C
  C134     1.0000 0.18010  0.85608  0.30020  Biso   1.000  C
  C135     1.0000 0.18090  0.88990  0.26710  Biso   1.000  C
  C136     1.0000 0.07070  0.71007  0.32320  Biso   1.000  C
  C137     1.0000 0.02180  0.69269  0.31840  Biso   1.000  C
  C138     1.0000 0.74370  0.48015  0.47280  Biso   1.000  C
  C139     1.0000 0.76320  0.44136  0.47770  Biso   1.000  C
  C140     1.0000 0.71620  0.41516  0.46620  Biso   1.000  C
  H61      1.0000 0.67200  0.42210  0.45760  Biso   1.000  H
  C141     1.0000 0.73170  0.37960  0.46690  Biso   1.000  C
  H62      1.0000 0.69790  0.36210  0.45570  Biso   1.000  H
  C142     1.0000 0.79570  0.36806  0.48350  Biso   1.000  C
  C143     1.0000 0.84440  0.39468  0.49670  Biso   1.000  C
  H63      1.0000 0.88880  0.38790  0.50790  Biso   1.000  H
  C144     1.0000 0.82720  0.43096  0.49350  Biso   1.000  C
  H64      1.0000 0.86030  0.44890  0.50220  Biso   1.000  H
  C145     1.0000 0.81130  0.33012  0.48500  Biso   1.000  C
  C146     1.0000 0.81710  0.29835  0.48540  Biso   1.000  C
  C147     1.0000 0.82020  0.25965  0.48340  Biso   1.000  C
  C148     1.0000 0.76370  0.23942  0.45460  Biso   1.000  C
  H65      1.0000 0.72360  0.25160  0.43510  Biso   1.000  H
  C149     1.0000 0.76540  0.20206  0.45410  Biso   1.000  C
  C150     1.0000 0.82410  0.18386  0.48680  Biso   1.000  C
  H66      1.0000 0.82510  0.15810  0.48860  Biso   1.000  H
  C151     1.0000 0.88080  0.20377  0.51680  Biso   1.000  C
  C152     1.0000 0.88010  0.24073  0.51520  Biso   1.000  C
  H67      1.0000 0.91900  0.25400  0.53510  Biso   1.000  H
  C153     1.0000 0.17130  0.08787  0.80220  Biso   1.000  C
  C154     1.0000 0.12270  0.10962  0.74720  Biso   1.000  C
  C155     1.0000 0.06440  0.11946  0.75780  Biso   1.000  C
  H68      1.0000 0.05600  0.11280  0.80010  Biso   1.000  H
  C156     1.0000 0.01910  0.13833  0.70950  Biso   1.000  C
  H69      1.0000 0.97900  0.14440  0.71780  Biso   1.000  H
  C157     1.0000 0.03060  0.14880  0.64850  Biso   1.000  C
  C158     1.0000 0.08950  0.14010  0.63680  Biso   1.000  C
  H70      1.0000 0.09830  0.14790  0.59530  Biso   1.000  H
  C159     1.0000 0.13580  0.11970  0.68600  Biso   1.000  C
  H71      1.0000 0.17560  0.11300  0.67760  Biso   1.000  H
  C160     1.0000 0.98060  0.16878  0.59590  Biso   1.000  C
  C161     1.0000 0.93940  0.18485  0.55820  Biso   1.000  C
  C162     1.0000 0.17090  0.10791  0.99470  Biso   1.000  C
  C163     1.0000 0.11000  0.12852  0.95980  Biso   1.000  C
  C164     1.0000 0.04980  0.11173  0.94810  Biso   1.000  C
  H72      1.0000 0.04720  0.08700  0.96000  Biso   1.000  H
  C165     1.0000 0.99490  0.13111  0.91970  Biso   1.000  C
  H73      1.0000 0.95400  0.11930  0.91100  Biso   1.000  H
  C166     1.0000 0.99600  0.16783  0.90260  Biso   1.000  C
  C167     1.0000 0.05560  0.18392  0.91330  Biso   1.000  C
  H74      1.0000 0.05840  0.20860  0.90080  Biso   1.000  H
  C168     1.0000 0.11150  0.16410  0.94240  Biso   1.000  C
  H75      1.0000 0.15250  0.17570  0.95050  Biso   1.000  H
  C169     1.0000 0.93790  0.18834  0.87370  Biso   1.000  C
  C170     1.0000 0.88760  0.20429  0.85030  Biso   1.000  C
  C171     1.0000 0.82530  0.22097  0.82480  Biso   1.000  C
  C172     1.0000 0.41730  0.10825  0.22020  Biso   1.000  C
  C173     1.0000 0.48320  0.12193  0.26650  Biso   1.000  C
  C174     1.0000 0.51500  0.14740  0.24150  Biso   1.000  C
  H76      1.0000 0.49720  0.15620  0.19540  Biso   1.000  H
  C175     1.0000 0.57470  0.16110  0.28320  Biso   1.000  C
  H77      1.0000 0.59710  0.17860  0.26420  Biso   1.000  H
  C176     1.0000 0.60040  0.15015  0.34790  Biso   1.000  C
  C177     1.0000 0.66040  0.16651  0.39080  Biso   1.000  C
  C178     1.0000 0.70880  0.18198  0.42150  Biso   1.000  C
  C179     1.0000 0.19750  0.98910  0.16380  Biso   1.000  C
  C180     1.0000 0.19170  0.95430  0.20040  Biso   1.000  C
  C181     1.0000 0.13480  0.93970  0.19760  Biso   1.000  C
  H78      1.0000 0.09660  0.95120  0.16940  Biso   1.000  H
  C182     1.0000 0.12800  0.90940  0.23280  Biso   1.000  C
  H79      1.0000 0.08600  0.90170  0.23350  Biso   1.000  H
  C183     1.0000 0.23410  0.90150  0.26250  Biso   1.000  C
  H80      1.0000 0.27110  0.88630  0.27850  Biso   1.000  H
  C184     1.0000 0.24300  0.93650  0.23460  Biso   1.000  C
  H81      1.0000 0.28530  0.94620  0.24100  Biso   1.000  H
  C185     1.0000 0.96570  0.67210  0.31700  Biso   1.000  C
  C186     1.0000 0.90960  0.68550  0.30150  Biso   1.000  C
  H82      1.0000 0.90390  0.70990  0.28540  Biso   1.000  H
  C187     1.0000 0.85200  0.66520  0.30690  Biso   1.000  C
  H83      1.0000 0.81170  0.67750  0.29960  Biso   1.000  H
  C188     1.0000 0.91400  0.62010  0.34070  Biso   1.000  C
  H84      1.0000 0.91990  0.59640  0.36010  Biso   1.000  H
  C189     1.0000 0.96900  0.63920  0.33510  Biso   1.000  C
  H85      1.0000 0.00970  0.62710  0.34520  Biso   1.000  H
  C190     1.0000 0.50360  0.16210  0.81640  Biso   1.000  C
  H86      1.0000 0.49300  0.18710  0.81070  Biso   1.000  H
  C191     1.0000 0.53490  0.08930  0.84100  Biso   1.000  C
  H87      1.0000 0.54580  0.06470  0.85190  Biso   1.000  H
  C192     1.0000 0.51190  0.10830  0.33110  Biso   1.000  C
  H88      1.0000 0.49130  0.08910  0.34820  Biso   1.000  H
  C193     1.0000 0.57040  0.12190  0.37270  Biso   1.000  C
  H89      1.0000 0.58990  0.11210  0.41770  Biso   1.000  H
  C194     1.0000 0.42780  0.07610  0.86390  Biso   1.000  C
  C195     1.0000 0.47560  0.10220  0.84280  Biso   1.000  C
  C196     1.0000 0.46110  0.13720  0.83240  Biso   1.000  C
  H90      1.0000 0.42040  0.14560  0.83600  Biso   1.000  H
  C197     1.0000 0.79940  0.61280  0.32980  Biso   1.000  C
  C198     1.0000 0.85540  0.63340  0.32040  Biso   1.000  C
  O21      1.0000 0.71546  0.55965  0.54720  Biso   1.000  O
  O22      1.0000 0.69470  0.56599  0.39970  Biso   1.000  O
  O23      1.0000 0.68580  0.48828  0.45880  Biso   1.000  O
  O24      1.0000 0.57761  0.57898  0.45960  Biso   1.000  O
  O25      1.0000 0.78970  0.50421  0.48600  Biso   1.000  O
  O26      1.0000 0.16690  0.07430  0.00300  Biso   1.000  O
  O27      1.0000 0.78720  0.49779  0.62980  Biso   1.000  O
  O28      1.0000 0.15553  0.07686  0.85210  Biso   1.000  O
  O29      1.0000 0.70100  0.50921  0.66800  Biso   1.000  O
  O30      1.0000 0.37310  0.08782  0.85110  Biso   1.000  O
  O31      1.0000 0.22730  0.08319  0.79180  Biso   1.000  O
  O32      1.0000 0.39170  0.12659  0.16930  Biso   1.000  O
  O33      1.0000 0.75220  0.62994  0.33810  Biso   1.000  O
  O34      1.0000 0.22300  0.12568  0.01160  Biso   1.000  O
  O35      1.0000 0.64241  0.62752  0.48000  Biso   1.000  O
  O36      1.0000 0.14790  0.00472  0.12260  Biso   1.000  O
  O37      1.0000 0.80540  0.57946  0.33510  Biso   1.000  O
  O38      1.0000 0.25630  0.00339  0.17650  Biso   1.000  O
  O39      1.0000 0.39400  0.08041  0.24170  Biso   1.000  O
  O40      1.0000 0.44870  0.04640  0.88760  Biso   1.000  O
  Co11     1.0000 0.64292  0.96160  0.95927  Biso   1.000  Co
  Co12     1.0000 0.80962  0.96107  0.07095  Biso   1.000  Co
  Co13     1.0000 0.69983  0.93991  0.13905  Biso   1.000  Co
  Co14     1.0000 0.69406  0.87722  0.90606  Biso   1.000  Co
  Co15     1.0000 0.77823  0.95667  0.90324  Biso   1.000  Co
  C199     1.0000 0.74400  0.01161  0.15660  Biso   1.000  C
  C200     1.0000 0.74260  0.05023  0.17850  Biso   1.000  C
  C201     1.0000 0.69350  0.06271  0.20430  Biso   1.000  C
  H91      1.0000 0.65970  0.04680  0.20760  Biso   1.000  H
  C202     1.0000 0.69360  0.09887  0.22570  Biso   1.000  C
  H92      1.0000 0.65950  0.10760  0.24260  Biso   1.000  H
  C203     1.0000 0.74290  0.12176  0.22240  Biso   1.000  C
  C204     1.0000 0.79140  0.10883  0.19620  Biso   1.000  C
  H93      1.0000 0.82620  0.12440  0.19480  Biso   1.000  H
  C205     1.0000 0.79040  0.07438  0.17240  Biso   1.000  C
  H94      1.0000 0.82260  0.06670  0.15150  Biso   1.000  H
  C206     1.0000 0.74590  0.15852  0.24700  Biso   1.000  C
  C207     1.0000 0.75000  0.18937  0.26680  Biso   1.000  C
  C208     1.0000 0.75710  0.22678  0.28490  Biso   1.000  C
  C209     1.0000 0.70190  0.24791  0.27840  Biso   1.000  C
  H95      1.0000 0.66000  0.23730  0.26230  Biso   1.000  H
  C210     1.0000 0.70830  0.28525  0.29590  Biso   1.000  C
  C211     1.0000 0.76960  0.30036  0.31710  Biso   1.000  C
  H96      1.0000 0.77410  0.32560  0.32660  Biso   1.000  H
  C212     1.0000 0.81810  0.24260  0.30900  Biso   1.000  C
  H97      1.0000 0.85570  0.22800  0.31470  Biso   1.000  H
  C213     1.0000 0.65330  0.30681  0.29550  Biso   1.000  C
  C214     1.0000 0.61070  0.32630  0.30140  Biso   1.000  C
  C215     1.0000 0.56240  0.35120  0.30930  Biso   1.000  C
  C216     1.0000 0.57970  0.38780  0.32330  Biso   1.000  C
  H98      1.0000 0.62040  0.39670  0.32090  Biso   1.000  H
  C217     1.0000 0.58720  0.88745  0.96730  Biso   1.000  C
  C218     1.0000 0.52790  0.86432  0.96200  Biso   1.000  C
  C219     1.0000 0.53180  0.82757  0.95850  Biso   1.000  C
  H99      1.0000 0.57260  0.81620  0.96390  Biso   1.000  H
  C220     1.0000 0.47540  0.80667  0.94680  Biso   1.000  C
  H100     1.0000 0.47850  0.78100  0.94520  Biso   1.000  H
  C221     1.0000 0.41530  0.82258  0.93770  Biso   1.000  C
  C222     1.0000 0.41260  0.85907  0.94260  Biso   1.000  C
  H101     1.0000 0.37220  0.87070  0.93770  Biso   1.000  H
  C223     1.0000 0.46940  0.87957  0.95500  Biso   1.000  C
  H102     1.0000 0.46660  0.90520  0.95850  Biso   1.000  H
  C224     1.0000 0.35780  0.80113  0.92300  Biso   1.000  C
  C225     1.0000 0.30770  0.78425  0.90510  Biso   1.000  C
  C226     1.0000 0.24660  0.76596  0.87970  Biso   1.000  C
  C227     1.0000 0.24310  0.72885  0.86860  Biso   1.000  C
  H103     1.0000 0.28170  0.71470  0.88130  Biso   1.000  H
  C228     1.0000 0.18300  0.71211  0.83870  Biso   1.000  C
  C229     1.0000 0.12560  0.73166  0.82230  Biso   1.000  C
  H104     1.0000 0.08490  0.72000  0.80310  Biso   1.000  H
  C230     1.0000 0.12920  0.76986  0.83530  Biso   1.000  C
  C231     1.0000 0.18940  0.78624  0.86200  Biso   1.000  C
  H105     1.0000 0.19170  0.81180  0.86830  Biso   1.000  H
  C232     1.0000 0.18160  0.67401  0.82300  Biso   1.000  C
  C233     1.0000 0.18010  0.64392  0.80020  Biso   1.000  C
  C234     1.0000 0.18090  0.61010  0.76710  Biso   1.000  C
  C235     1.0000 0.07070  0.78993  0.82320  Biso   1.000  C
  C236     1.0000 0.02180  0.80731  0.81840  Biso   1.000  C
  C237     1.0000 0.74370  0.01985  0.97280  Biso   1.000  C
  C238     1.0000 0.76320  0.05864  0.97770  Biso   1.000  C
  C239     1.0000 0.71620  0.08484  0.96620  Biso   1.000  C
  H106     1.0000 0.67200  0.07790  0.95760  Biso   1.000  H
  C240     1.0000 0.73170  0.12040  0.96690  Biso   1.000  C
  H107     1.0000 0.69790  0.13790  0.95570  Biso   1.000  H
  C241     1.0000 0.79570  0.13194  0.98350  Biso   1.000  C
  C242     1.0000 0.84440  0.10532  0.99670  Biso   1.000  C
  H108     1.0000 0.88880  0.11210  0.00790  Biso   1.000  H
  C243     1.0000 0.82720  0.06904  0.99350  Biso   1.000  C
  H109     1.0000 0.86030  0.05110  0.00220  Biso   1.000  H
  C244     1.0000 0.81130  0.16988  0.98500  Biso   1.000  C
  C245     1.0000 0.81710  0.20165  0.98540  Biso   1.000  C
  C246     1.0000 0.82020  0.24035  0.98340  Biso   1.000  C
  C247     1.0000 0.76370  0.26058  0.95460  Biso   1.000  C
  H110     1.0000 0.72360  0.24840  0.93510  Biso   1.000  H
  C248     1.0000 0.76540  0.29794  0.95410  Biso   1.000  C
  C249     1.0000 0.82410  0.31614  0.98680  Biso   1.000  C
  H111     1.0000 0.82510  0.34190  0.98860  Biso   1.000  H
  C250     1.0000 0.88080  0.29623  0.01680  Biso   1.000  C
  C251     1.0000 0.88010  0.25927  0.01520  Biso   1.000  C
  H112     1.0000 0.91900  0.24600  0.03510  Biso   1.000  H
  C252     1.0000 0.17130  0.41213  0.30220  Biso   1.000  C
  C253     1.0000 0.12270  0.39038  0.24720  Biso   1.000  C
  C254     1.0000 0.06440  0.38054  0.25780  Biso   1.000  C
  H113     1.0000 0.05600  0.38720  0.30010  Biso   1.000  H
  C255     1.0000 0.01910  0.36167  0.20950  Biso   1.000  C
  H114     1.0000 0.97900  0.35560  0.21780  Biso   1.000  H
  C256     1.0000 0.03060  0.35120  0.14850  Biso   1.000  C
  C257     1.0000 0.08950  0.35990  0.13680  Biso   1.000  C
  H115     1.0000 0.09830  0.35210  0.09530  Biso   1.000  H
  C258     1.0000 0.13580  0.38030  0.18600  Biso   1.000  C
  H116     1.0000 0.17560  0.38700  0.17760  Biso   1.000  H
  C259     1.0000 0.98060  0.33122  0.09590  Biso   1.000  C
  C260     1.0000 0.93940  0.31515  0.05820  Biso   1.000  C
  C261     1.0000 0.17090  0.39209  0.49470  Biso   1.000  C
  C262     1.0000 0.11000  0.37148  0.45980  Biso   1.000  C
  C263     1.0000 0.04980  0.38827  0.44810  Biso   1.000  C
  H117     1.0000 0.04720  0.41300  0.46000  Biso   1.000  H
  C264     1.0000 0.99490  0.36889  0.41970  Biso   1.000  C
  H118     1.0000 0.95400  0.38070  0.41100  Biso   1.000  H
  C265     1.0000 0.99600  0.33217  0.40260  Biso   1.000  C
  C266     1.0000 0.05560  0.31608  0.41330  Biso   1.000  C
  H119     1.0000 0.05840  0.29140  0.40080  Biso   1.000  H
  C267     1.0000 0.11150  0.33590  0.44240  Biso   1.000  C
  H120     1.0000 0.15250  0.32430  0.45050  Biso   1.000  H
  C268     1.0000 0.93790  0.31166  0.37370  Biso   1.000  C
  C269     1.0000 0.88760  0.29571  0.35030  Biso   1.000  C
  C270     1.0000 0.82530  0.27903  0.32480  Biso   1.000  C
  C271     1.0000 0.41730  0.39175  0.72020  Biso   1.000  C
  C272     1.0000 0.48320  0.37807  0.76650  Biso   1.000  C
  C273     1.0000 0.51500  0.35260  0.74150  Biso   1.000  C
  H121     1.0000 0.49720  0.34380  0.69540  Biso   1.000  H
  C274     1.0000 0.57470  0.33890  0.78320  Biso   1.000  C
  H122     1.0000 0.59710  0.32140  0.76420  Biso   1.000  H
  C275     1.0000 0.60040  0.34985  0.84790  Biso   1.000  C
  C276     1.0000 0.66040  0.33349  0.89080  Biso   1.000  C
  C277     1.0000 0.70880  0.31802  0.92150  Biso   1.000  C
  C278     1.0000 0.19750  0.51090  0.66380  Biso   1.000  C
  C279     1.0000 0.19170  0.54570  0.70040  Biso   1.000  C
  C280     1.0000 0.13480  0.56030  0.69760  Biso   1.000  C
  H123     1.0000 0.09660  0.54880  0.66940  Biso   1.000  H
  C281     1.0000 0.12800  0.59060  0.73280  Biso   1.000  C
  H124     1.0000 0.08600  0.59830  0.73350  Biso   1.000  H
  C282     1.0000 0.23410  0.59850  0.76250  Biso   1.000  C
  H125     1.0000 0.27110  0.61370  0.77850  Biso   1.000  H
  C283     1.0000 0.24300  0.56350  0.73460  Biso   1.000  C
  H126     1.0000 0.28530  0.55380  0.74100  Biso   1.000  H
  C284     1.0000 0.96570  0.82790  0.81700  Biso   1.000  C
  C285     1.0000 0.90960  0.81450  0.80150  Biso   1.000  C
  H127     1.0000 0.90390  0.79010  0.78540  Biso   1.000  H
  C286     1.0000 0.85200  0.83480  0.80690  Biso   1.000  C
  H128     1.0000 0.81170  0.82250  0.79960  Biso   1.000  H
  C287     1.0000 0.91400  0.87990  0.84070  Biso   1.000  C
  H129     1.0000 0.91990  0.90360  0.86010  Biso   1.000  H
  C288     1.0000 0.96900  0.86080  0.83510  Biso   1.000  C
  H130     1.0000 0.00970  0.87290  0.84520  Biso   1.000  H
  C289     1.0000 0.50360  0.33790  0.31640  Biso   1.000  C
  H131     1.0000 0.49300  0.31290  0.31070  Biso   1.000  H
  C290     1.0000 0.53490  0.41070  0.34100  Biso   1.000  C
  H132     1.0000 0.54580  0.43530  0.35190  Biso   1.000  H
  C291     1.0000 0.51190  0.39170  0.83110  Biso   1.000  C
  H133     1.0000 0.49130  0.41090  0.84820  Biso   1.000  H
  C292     1.0000 0.57040  0.37810  0.87270  Biso   1.000  C
  H134     1.0000 0.58990  0.38790  0.91770  Biso   1.000  H
  C293     1.0000 0.42780  0.42390  0.36390  Biso   1.000  C
  C294     1.0000 0.47560  0.39780  0.34280  Biso   1.000  C
  C295     1.0000 0.46110  0.36280  0.33240  Biso   1.000  C
  H135     1.0000 0.42040  0.35440  0.33600  Biso   1.000  H
  C296     1.0000 0.79940  0.88720  0.82980  Biso   1.000  C
  C297     1.0000 0.85540  0.86660  0.82040  Biso   1.000  C
  O41      1.0000 0.71546  0.94035  0.04720  Biso   1.000  O
  O42      1.0000 0.69470  0.93401  0.89970  Biso   1.000  O
  O43      1.0000 0.68580  0.01172  0.95880  Biso   1.000  O
  O44      1.0000 0.57761  0.92102  0.95960  Biso   1.000  O
  O45      1.0000 0.78970  0.99579  0.98600  Biso   1.000  O
  O46      1.0000 0.16690  0.42570  0.50300  Biso   1.000  O
  O47      1.0000 0.78720  0.00221  0.12980  Biso   1.000  O
  O48      1.0000 0.15553  0.42314  0.35210  Biso   1.000  O
  O49      1.0000 0.70100  0.99079  0.16800  Biso   1.000  O
  O50      1.0000 0.37310  0.41218  0.35110  Biso   1.000  O
  O51      1.0000 0.22730  0.41681  0.29180  Biso   1.000  O
  O52      1.0000 0.39170  0.37341  0.66930  Biso   1.000  O
  O53      1.0000 0.75220  0.87006  0.83810  Biso   1.000  O
  O54      1.0000 0.22300  0.37432  0.51160  Biso   1.000  O
  O55      1.0000 0.64241  0.87248  0.98000  Biso   1.000  O
  O56      1.0000 0.14790  0.49528  0.62260  Biso   1.000  O
  O57      1.0000 0.80540  0.92054  0.83510  Biso   1.000  O
  O58      1.0000 0.25630  0.49661  0.67650  Biso   1.000  O
  O59      1.0000 0.39400  0.41959  0.74170  Biso   1.000  O
  O60      1.0000 0.44870  0.45360  0.38760  Biso   1.000  O
  Co16     1.0000 0.35708  0.46160  0.54073  Biso   1.000  Co
  Co17     1.0000 0.19038  0.46107  0.42905  Biso   1.000  Co
  Co18     1.0000 0.30017  0.43991  0.36095  Biso   1.000  Co
  Co19     1.0000 0.30594  0.37722  0.59394  Biso   1.000  Co
  Co20     1.0000 0.22177  0.45667  0.59676  Biso   1.000  Co
  C298     1.0000 0.25600  0.51161  0.34340  Biso   1.000  C
  C299     1.0000 0.25740  0.55023  0.32150  Biso   1.000  C
  C300     1.0000 0.30650  0.56271  0.29570  Biso   1.000  C
  H136     1.0000 0.34030  0.54680  0.29240  Biso   1.000  H
  C301     1.0000 0.30640  0.59887  0.27430  Biso   1.000  C
  H137     1.0000 0.34050  0.60760  0.25740  Biso   1.000  H
  C302     1.0000 0.25710  0.62176  0.27760  Biso   1.000  C
  C303     1.0000 0.20860  0.60883  0.30380  Biso   1.000  C
  H138     1.0000 0.17380  0.62440  0.30520  Biso   1.000  H
  C304     1.0000 0.20960  0.57438  0.32760  Biso   1.000  C
  H139     1.0000 0.17740  0.56670  0.34850  Biso   1.000  H
  C305     1.0000 0.25410  0.65852  0.25300  Biso   1.000  C
  C306     1.0000 0.25000  0.68937  0.23320  Biso   1.000  C
  C307     1.0000 0.24290  0.72678  0.21510  Biso   1.000  C
  C308     1.0000 0.29810  0.74791  0.22160  Biso   1.000  C
  H140     1.0000 0.34000  0.73730  0.23770  Biso   1.000  H
  C309     1.0000 0.29170  0.78525  0.20410  Biso   1.000  C
  C310     1.0000 0.23040  0.80036  0.18290  Biso   1.000  C
  H141     1.0000 0.22590  0.82560  0.17340  Biso   1.000  H
  C311     1.0000 0.18190  0.74260  0.19100  Biso   1.000  C
  H142     1.0000 0.14430  0.72800  0.18530  Biso   1.000  H
  C312     1.0000 0.34670  0.80681  0.20450  Biso   1.000  C
  C313     1.0000 0.38930  0.82630  0.19860  Biso   1.000  C
  C314     1.0000 0.43760  0.85120  0.19070  Biso   1.000  C
  C315     1.0000 0.42030  0.88780  0.17670  Biso   1.000  C
  H143     1.0000 0.37960  0.89670  0.17910  Biso   1.000  H
  C316     1.0000 0.41280  0.38745  0.53270  Biso   1.000  C
  C317     1.0000 0.47210  0.36432  0.53800  Biso   1.000  C
  C318     1.0000 0.46820  0.32757  0.54150  Biso   1.000  C
  H144     1.0000 0.42740  0.31620  0.53610  Biso   1.000  H
  C319     1.0000 0.52460  0.30667  0.55320  Biso   1.000  C
  H145     1.0000 0.52150  0.28100  0.55480  Biso   1.000  H
  C320     1.0000 0.58470  0.32258  0.56230  Biso   1.000  C
  C321     1.0000 0.58740  0.35907  0.55740  Biso   1.000  C
  H146     1.0000 0.62780  0.37070  0.56230  Biso   1.000  H
  C322     1.0000 0.53060  0.37957  0.54500  Biso   1.000  C
  H147     1.0000 0.53340  0.40520  0.54150  Biso   1.000  H
  C323     1.0000 0.64220  0.30113  0.57700  Biso   1.000  C
  C324     1.0000 0.69230  0.28425  0.59490  Biso   1.000  C
  C325     1.0000 0.75340  0.26596  0.62030  Biso   1.000  C
  C326     1.0000 0.75690  0.22885  0.63140  Biso   1.000  C
  H148     1.0000 0.71830  0.21470  0.61870  Biso   1.000  H
  C327     1.0000 0.81700  0.21211  0.66130  Biso   1.000  C
  C328     1.0000 0.87440  0.23166  0.67770  Biso   1.000  C
  H149     1.0000 0.91510  0.22000  0.69690  Biso   1.000  H
  C329     1.0000 0.87080  0.26986  0.66470  Biso   1.000  C
  C330     1.0000 0.81060  0.28624  0.63800  Biso   1.000  C
  H150     1.0000 0.80830  0.31180  0.63170  Biso   1.000  H
  C331     1.0000 0.81840  0.17401  0.67700  Biso   1.000  C
  C332     1.0000 0.81990  0.14392  0.69980  Biso   1.000  C
  C333     1.0000 0.81910  0.11010  0.73290  Biso   1.000  C
  C334     1.0000 0.92930  0.28993  0.67680  Biso   1.000  C
  C335     1.0000 0.97820  0.30731  0.68160  Biso   1.000  C
  C336     1.0000 0.25630  0.51985  0.52720  Biso   1.000  C
  C337     1.0000 0.23680  0.55864  0.52230  Biso   1.000  C
  C338     1.0000 0.28380  0.58484  0.53380  Biso   1.000  C
  H151     1.0000 0.32800  0.57790  0.54240  Biso   1.000  H
  C339     1.0000 0.26830  0.62040  0.53310  Biso   1.000  C
  H152     1.0000 0.30210  0.63790  0.54430  Biso   1.000  H
  C340     1.0000 0.20430  0.63194  0.51650  Biso   1.000  C
  C341     1.0000 0.15560  0.60532  0.50330  Biso   1.000  C
  H153     1.0000 0.11120  0.61210  0.49210  Biso   1.000  H
  C342     1.0000 0.17280  0.56904  0.50650  Biso   1.000  C
  H154     1.0000 0.13970  0.55110  0.49780  Biso   1.000  H
  C343     1.0000 0.18870  0.66988  0.51500  Biso   1.000  C
  C344     1.0000 0.18290  0.70165  0.51460  Biso   1.000  C
  C345     1.0000 0.17980  0.74035  0.51660  Biso   1.000  C
  C346     1.0000 0.23630  0.76058  0.54540  Biso   1.000  C
  H155     1.0000 0.27640  0.74840  0.56490  Biso   1.000  H
  C347     1.0000 0.23460  0.79794  0.54590  Biso   1.000  C
  C348     1.0000 0.17590  0.81614  0.51320  Biso   1.000  C
  H156     1.0000 0.17490  0.84190  0.51140  Biso   1.000  H
  C349     1.0000 0.11920  0.79623  0.48320  Biso   1.000  C
  C350     1.0000 0.11990  0.75927  0.48480  Biso   1.000  C
  H157     1.0000 0.08100  0.74600  0.46490  Biso   1.000  H
  C351     1.0000 0.82870  0.91213  0.19780  Biso   1.000  C
  C352     1.0000 0.87730  0.89038  0.25280  Biso   1.000  C
  C353     1.0000 0.93560  0.88054  0.24220  Biso   1.000  C
  H158     1.0000 0.94400  0.88720  0.19990  Biso   1.000  H
  C354     1.0000 0.98090  0.86167  0.29050  Biso   1.000  C
  H159     1.0000 0.02100  0.85560  0.28220  Biso   1.000  H
  C355     1.0000 0.96940  0.85120  0.35150  Biso   1.000  C
  C356     1.0000 0.91050  0.85990  0.36320  Biso   1.000  C
  H160     1.0000 0.90170  0.85210  0.40470  Biso   1.000  H
  C357     1.0000 0.86420  0.88030  0.31400  Biso   1.000  C
  H161     1.0000 0.82440  0.88700  0.32240  Biso   1.000  H
  C358     1.0000 0.01940  0.83122  0.40410  Biso   1.000  C
  C359     1.0000 0.06060  0.81515  0.44180  Biso   1.000  C
  C360     1.0000 0.82910  0.89209  0.00530  Biso   1.000  C
  C361     1.0000 0.89000  0.87148  0.04020  Biso   1.000  C
  C362     1.0000 0.95020  0.88827  0.05190  Biso   1.000  C
  H162     1.0000 0.95280  0.91300  0.04000  Biso   1.000  H
  C363     1.0000 0.00510  0.86889  0.08030  Biso   1.000  C
  H163     1.0000 0.04600  0.88070  0.08900  Biso   1.000  H
  C364     1.0000 0.00400  0.83217  0.09740  Biso   1.000  C
  C365     1.0000 0.94440  0.81608  0.08670  Biso   1.000  C
  H164     1.0000 0.94160  0.79140  0.09920  Biso   1.000  H
  C366     1.0000 0.88850  0.83590  0.05760  Biso   1.000  C
  H165     1.0000 0.84750  0.82430  0.04950  Biso   1.000  H
  C367     1.0000 0.06210  0.81166  0.12630  Biso   1.000  C
  C368     1.0000 0.11240  0.79571  0.14970  Biso   1.000  C
  C369     1.0000 0.17470  0.77903  0.17520  Biso   1.000  C
  C370     1.0000 0.58270  0.89175  0.77980  Biso   1.000  C
  C371     1.0000 0.51680  0.87807  0.73350  Biso   1.000  C
  C372     1.0000 0.48500  0.85260  0.75850  Biso   1.000  C
  H166     1.0000 0.50280  0.84380  0.80460  Biso   1.000  H
  C373     1.0000 0.42530  0.83890  0.71680  Biso   1.000  C
  H167     1.0000 0.40290  0.82140  0.73580  Biso   1.000  H
  C374     1.0000 0.39960  0.84985  0.65210  Biso   1.000  C
  C375     1.0000 0.33960  0.83349  0.60920  Biso   1.000  C
  C376     1.0000 0.29120  0.81802  0.57850  Biso   1.000  C
  C377     1.0000 0.80250  0.01090  0.83620  Biso   1.000  C
  C378     1.0000 0.80830  0.04570  0.79960  Biso   1.000  C
  C379     1.0000 0.86520  0.06030  0.80240  Biso   1.000  C
  H168     1.0000 0.90340  0.04880  0.83060  Biso   1.000  H
  C380     1.0000 0.87200  0.09060  0.76720  Biso   1.000  C
  H169     1.0000 0.91400  0.09830  0.76650  Biso   1.000  H
  C381     1.0000 0.76590  0.09850  0.73750  Biso   1.000  C
  H170     1.0000 0.72890  0.11370  0.72150  Biso   1.000  H
  C382     1.0000 0.75700  0.06350  0.76540  Biso   1.000  C
  H171     1.0000 0.71470  0.05380  0.75900  Biso   1.000  H
  C383     1.0000 0.03430  0.32790  0.68300  Biso   1.000  C
  C384     1.0000 0.09040  0.31450  0.69850  Biso   1.000  C
  H172     1.0000 0.09610  0.29010  0.71460  Biso   1.000  H
  C385     1.0000 0.14800  0.33480  0.69310  Biso   1.000  C
  H173     1.0000 0.18830  0.32250  0.70040  Biso   1.000  H
  C386     1.0000 0.08600  0.37990  0.65930  Biso   1.000  C
  H174     1.0000 0.08010  0.40360  0.63990  Biso   1.000  H
  C387     1.0000 0.03100  0.36080  0.66490  Biso   1.000  C
  H175     1.0000 0.99030  0.37290  0.65480  Biso   1.000  H
  C388     1.0000 0.49640  0.83790  0.18360  Biso   1.000  C
  H176     1.0000 0.50700  0.81290  0.18930  Biso   1.000  H
  C389     1.0000 0.46510  0.91070  0.15900  Biso   1.000  C
  H177     1.0000 0.45420  0.93530  0.14810  Biso   1.000  H
  C390     1.0000 0.48810  0.89170  0.66890  Biso   1.000  C
  H178     1.0000 0.50870  0.91090  0.65180  Biso   1.000  H
  C391     1.0000 0.42960  0.87810  0.62730  Biso   1.000  C
  H179     1.0000 0.41010  0.88790  0.58230  Biso   1.000  H
  C392     1.0000 0.57220  0.92390  0.13610  Biso   1.000  C
  C393     1.0000 0.52440  0.89780  0.15720  Biso   1.000  C
  C394     1.0000 0.53890  0.86280  0.16760  Biso   1.000  C
  H180     1.0000 0.57960  0.85440  0.16400  Biso   1.000  H
  C395     1.0000 0.20060  0.38720  0.67020  Biso   1.000  C
  C396     1.0000 0.14460  0.36660  0.67960  Biso   1.000  C
  O61      1.0000 0.28454  0.44035  0.45280  Biso   1.000  O
  O62      1.0000 0.30530  0.43401  0.60030  Biso   1.000  O
  O63      1.0000 0.31420  0.51172  0.54120  Biso   1.000  O
  O64      1.0000 0.42239  0.42102  0.54040  Biso   1.000  O
  O65      1.0000 0.21030  0.49579  0.51400  Biso   1.000  O
  O66      1.0000 0.83310  0.92570  0.99700  Biso   1.000  O
  O67      1.0000 0.21280  0.50221  0.37020  Biso   1.000  O
  O68      1.0000 0.84447  0.92314  0.14790  Biso   1.000  O
  O69      1.0000 0.29900  0.49079  0.33200  Biso   1.000  O
  O70      1.0000 0.62690  0.91218  0.14890  Biso   1.000  O
  O71      1.0000 0.77270  0.91681  0.20820  Biso   1.000  O
  O72      1.0000 0.60830  0.87341  0.83070  Biso   1.000  O
  O73      1.0000 0.24780  0.37006  0.66190  Biso   1.000  O
  O74      1.0000 0.77700  0.87432  0.98840  Biso   1.000  O
  O75      1.0000 0.35759  0.37248  0.52000  Biso   1.000  O
  O76      1.0000 0.85210  0.99528  0.87740  Biso   1.000  O
  O77      1.0000 0.19460  0.42054  0.66490  Biso   1.000  O
  O78      1.0000 0.74370  0.99661  0.82350  Biso   1.000  O
  O79      1.0000 0.60600  0.91959  0.75830  Biso   1.000  O
  O80      1.0000 0.55130  0.95360  0.11240  Biso   1.000  O
