data_image0
_cell_length_a       25.056
_cell_length_b       36.884
_cell_length_c       19.669
_cell_angle_alpha    90
_cell_angle_beta     123.272
_cell_angle_gamma    90

_symmetry_space_group_name_H-M    "P 1"
_symmetry_int_tables_number       1

loop_
  _symmetry_equiv_pos_as_xyz
  'x, y, z'

loop_
  _atom_site_label
  _atom_site_occupancy
  _atom_site_fract_x
  _atom_site_fract_y
  _atom_site_fract_z
  _atom_site_thermal_displace_type
  _atom_site_B_iso_or_equiv
  _atom_site_type_symbol
  Co1      1.0000 0.59880  0.21395  0.75703  Biso   1.000  Co
  Co2      1.0000 0.50174  0.17635  0.58080  Biso   1.000  Co
  O1       1.0000 0.49531  0.22727  0.54152  Biso   1.000  O
  O2       1.0000 0.56700  0.25160  0.66395  Biso   1.000  O
  O3       1.0000 0.04758  0.65103  0.06380  Biso   1.000  O
  O4       1.0000 0.08360  0.65498  0.98990  Biso   1.000  O
  O5       1.0000 0.85946  0.67818  0.64253  Biso   1.000  O
  O6       1.0000 0.91402  0.62625  0.68420  Biso   1.000  O
  O7       1.0000 0.08310  0.65746  0.60298  Biso   1.000  O
  O8       1.0000 0.15088  0.68313  0.72381  Biso   1.000  O
  O9       1.0000 0.55182  0.24561  0.80058  Biso   1.000  O
  O10      1.0000 0.51278  0.18554  0.68706  Biso   1.000  O
  C1       1.0000 0.52646  0.25368  0.58830  Biso   1.000  C
  C2       1.0000 0.51399  0.29049  0.54970  Biso   1.000  C
  C3       1.0000 0.47210  0.29545  0.46810  Biso   1.000  C
  H1       1.0000 0.45040  0.27510  0.43440  Biso   1.000  H
  C4       1.0000 0.46080  0.32957  0.43350  Biso   1.000  C
  H2       1.0000 0.43170  0.33230  0.37650  Biso   1.000  H
  C5       1.0000 0.49087  0.35932  0.48020  Biso   1.000  C
  C6       1.0000 0.53510  0.35444  0.56460  Biso   1.000  C
  H3       1.0000 0.55760  0.37470  0.59820  Biso   1.000  H
  C7       1.0000 0.54570  0.32017  0.59810  Biso   1.000  C
  H4       1.0000 0.57510  0.31700  0.65490  Biso   1.000  H
  C8       1.0000 0.48076  0.39566  0.44740  Biso   1.000  C
  C9       1.0000 0.47521  0.42659  0.42640  Biso   1.000  C
  C10      1.0000 0.47267  0.46479  0.40923  Biso   1.000  C
  C11      1.0000 0.41438  0.48309  0.36700  Biso   1.000  C
  H5       1.0000 0.37560  0.47020  0.34600  Biso   1.000  H
  C12      1.0000 0.41353  0.52040  0.35583  Biso   1.000  C
  C13      1.0000 0.47055  0.53912  0.38710  Biso   1.000  C
  H6       1.0000 0.46970  0.56460  0.37970  Biso   1.000  H
  C14      1.0000 0.52867  0.52120  0.42890  Biso   1.000  C
  C15      1.0000 0.52938  0.48367  0.43960  Biso   1.000  C
  H7       1.0000 0.56890  0.47100  0.46780  Biso   1.000  H
  C16      1.0000 0.35468  0.54018  0.30920  Biso   1.000  C
  C17      1.0000 0.30858  0.55857  0.26910  Biso   1.000  C
  C18      1.0000 0.25290  0.58058  0.21620  Biso   1.000  C
  C19      1.0000 0.20770  0.58753  0.23390  Biso   1.000  C
  H8       1.0000 0.21240  0.57790  0.28170  Biso   1.000  H
  C20      1.0000 0.15490  0.60893  0.18060  Biso   1.000  C
  H9       1.0000 0.12450  0.61440  0.19360  Biso   1.000  H
  C21      1.0000 0.14620  0.62210  0.11070  Biso   1.000  C
  C22      1.0000 0.19000  0.61390  0.09270  Biso   1.000  C
  H10      1.0000 0.18390  0.62250  0.04330  Biso   1.000  H
  C23      1.0000 0.24300  0.59342  0.14480  Biso   1.000  C
  H11      1.0000 0.27310  0.58810  0.13100  Biso   1.000  H
  C24      1.0000 0.08860  0.64475  0.05150  Biso   1.000  C
  C25      1.0000 0.58712  0.54118  0.46120  Biso   1.000  C
  C26      1.0000 0.63396  0.55938  0.48780  Biso   1.000  C
  C27      1.0000 0.69072  0.58118  0.52250  Biso   1.000  C
  C28      1.0000 0.68840  0.61798  0.52080  Biso   1.000  C
  H12      1.0000 0.64820  0.62990  0.49370  Biso   1.000  H
  C29      1.0000 0.74420  0.63855  0.55830  Biso   1.000  C
  H13      1.0000 0.74110  0.66420  0.55570  Biso   1.000  H
  C30      1.0000 0.80280  0.62292  0.59860  Biso   1.000  C
  C31      1.0000 0.80440  0.58561  0.59760  Biso   1.000  C
  H14      1.0000 0.84440  0.57350  0.62470  Biso   1.000  H
  C32      1.0000 0.74930  0.56579  0.55830  Biso   1.000  C
  H15      1.0000 0.75220  0.54020  0.55580  Biso   1.000  H
  C33      1.0000 0.86290  0.64425  0.64440  Biso   1.000  C
  C34      1.0000 0.44278  0.32132  0.70510  Biso   1.000  C
  H16      1.0000 0.40360  0.30850  0.67420  Biso   1.000  H
  C35      1.0000 0.44257  0.35895  0.70520  Biso   1.000  C
  H17      1.0000 0.40350  0.37190  0.67480  Biso   1.000  H
  C36      1.0000 0.44327  0.50728  0.72010  Biso   1.000  C
  H18      1.0000 0.40430  0.49440  0.69810  Biso   1.000  H
  C37      1.0000 0.44358  0.54510  0.72230  Biso   1.000  C
  C38      1.0000 0.38677  0.56487  0.70060  Biso   1.000  C
  C39      1.0000 0.34150  0.58150  0.68890  Biso   1.000  C
  C40      1.0000 0.29016  0.60209  0.68200  Biso   1.000  C
  C41      1.0000 0.23140  0.60404  0.60960  Biso   1.000  C
  H19      1.0000 0.22460  0.59200  0.56280  Biso   1.000  H
  C42      1.0000 0.13762  0.66263  0.66630  Biso   1.000  C
  C43      1.0000 0.19126  0.64183  0.67070  Biso   1.000  C
  C44      1.0000 0.25032  0.63980  0.74430  Biso   1.000  C
  H20      1.0000 0.25700  0.65210  0.79080  Biso   1.000  H
  C45      1.0000 0.29889  0.61995  0.74960  Biso   1.000  C
  H21      1.0000 0.33890  0.61840  0.80010  Biso   1.000  H
  C46      1.0000 0.18210  0.62348  0.60500  Biso   1.000  C
  H22      1.0000 0.14130  0.62400  0.55530  Biso   1.000  H
  Co3      1.0000 0.09880  0.71395  0.75703  Biso   1.000  Co
  Co4      1.0000 0.00174  0.67635  0.58080  Biso   1.000  Co
  O11      1.0000 0.99531  0.72727  0.54152  Biso   1.000  O
  O12      1.0000 0.06700  0.75160  0.66395  Biso   1.000  O
  O13      1.0000 0.54758  0.15103  0.06380  Biso   1.000  O
  O14      1.0000 0.58360  0.15498  0.98990  Biso   1.000  O
  O15      1.0000 0.35946  0.17818  0.64253  Biso   1.000  O
  O16      1.0000 0.41402  0.12625  0.68420  Biso   1.000  O
  O17      1.0000 0.58310  0.15746  0.60298  Biso   1.000  O
  O18      1.0000 0.65088  0.18313  0.72381  Biso   1.000  O
  O19      1.0000 0.05182  0.74561  0.80058  Biso   1.000  O
  O20      1.0000 0.01278  0.68554  0.68706  Biso   1.000  O
  C47      1.0000 0.02646  0.75368  0.58830  Biso   1.000  C
  C48      1.0000 0.01399  0.79049  0.54970  Biso   1.000  C
  C49      1.0000 0.97210  0.79545  0.46810  Biso   1.000  C
  H23      1.0000 0.95040  0.77510  0.43440  Biso   1.000  H
  C50      1.0000 0.96080  0.82957  0.43350  Biso   1.000  C
  H24      1.0000 0.93170  0.83230  0.37650  Biso   1.000  H
  C51      1.0000 0.99087  0.85932  0.48020  Biso   1.000  C
  C52      1.0000 0.03510  0.85444  0.56460  Biso   1.000  C
  H25      1.0000 0.05760  0.87470  0.59820  Biso   1.000  H
  C53      1.0000 0.04570  0.82017  0.59810  Biso   1.000  C
  H26      1.0000 0.07510  0.81700  0.65490  Biso   1.000  H
  C54      1.0000 0.98076  0.89566  0.44740  Biso   1.000  C
  C55      1.0000 0.97521  0.92659  0.42640  Biso   1.000  C
  C56      1.0000 0.97267  0.96479  0.40923  Biso   1.000  C
  C57      1.0000 0.91438  0.98309  0.36700  Biso   1.000  C
  H27      1.0000 0.87560  0.97020  0.34600  Biso   1.000  H
  C58      1.0000 0.91353  0.02040  0.35583  Biso   1.000  C
  C59      1.0000 0.97055  0.03912  0.38710  Biso   1.000  C
  H28      1.0000 0.96970  0.06460  0.37970  Biso   1.000  H
  C60      1.0000 0.02867  0.02120  0.42890  Biso   1.000  C
  C61      1.0000 0.02938  0.98367  0.43960  Biso   1.000  C
  H29      1.0000 0.06890  0.97100  0.46780  Biso   1.000  H
  C62      1.0000 0.85468  0.04018  0.30920  Biso   1.000  C
  C63      1.0000 0.80858  0.05857  0.26910  Biso   1.000  C
  C64      1.0000 0.75290  0.08058  0.21620  Biso   1.000  C
  C65      1.0000 0.70770  0.08753  0.23390  Biso   1.000  C
  H30      1.0000 0.71240  0.07790  0.28170  Biso   1.000  H
  C66      1.0000 0.65490  0.10893  0.18060  Biso   1.000  C
  H31      1.0000 0.62450  0.11440  0.19360  Biso   1.000  H
  C67      1.0000 0.64620  0.12210  0.11070  Biso   1.000  C
  C68      1.0000 0.69000  0.11390  0.09270  Biso   1.000  C
  H32      1.0000 0.68390  0.12250  0.04330  Biso   1.000  H
  C69      1.0000 0.74300  0.09342  0.14480  Biso   1.000  C
  H33      1.0000 0.77310  0.08810  0.13100  Biso   1.000  H
  C70      1.0000 0.58860  0.14475  0.05150  Biso   1.000  C
  C71      1.0000 0.08712  0.04118  0.46120  Biso   1.000  C
  C72      1.0000 0.13396  0.05938  0.48780  Biso   1.000  C
  C73      1.0000 0.19072  0.08118  0.52250  Biso   1.000  C
  C74      1.0000 0.18840  0.11798  0.52080  Biso   1.000  C
  H34      1.0000 0.14820  0.12990  0.49370  Biso   1.000  H
  C75      1.0000 0.24420  0.13855  0.55830  Biso   1.000  C
  H35      1.0000 0.24110  0.16420  0.55570  Biso   1.000  H
  C76      1.0000 0.30280  0.12292  0.59860  Biso   1.000  C
  C77      1.0000 0.30440  0.08561  0.59760  Biso   1.000  C
  H36      1.0000 0.34440  0.07350  0.62470  Biso   1.000  H
  C78      1.0000 0.24930  0.06579  0.55830  Biso   1.000  C
  H37      1.0000 0.25220  0.04020  0.55580  Biso   1.000  H
  C79      1.0000 0.36290  0.14425  0.64440  Biso   1.000  C
  C80      1.0000 0.94278  0.82132  0.70510  Biso   1.000  C
  H38      1.0000 0.90360  0.80850  0.67420  Biso   1.000  H
  C81      1.0000 0.94257  0.85895  0.70520  Biso   1.000  C
  H39      1.0000 0.90350  0.87190  0.67480  Biso   1.000  H
  C82      1.0000 0.94327  0.00728  0.72010  Biso   1.000  C
  H40      1.0000 0.90430  0.99440  0.69810  Biso   1.000  H
  C83      1.0000 0.94358  0.04510  0.72230  Biso   1.000  C
  C84      1.0000 0.88677  0.06487  0.70060  Biso   1.000  C
  C85      1.0000 0.84150  0.08150  0.68890  Biso   1.000  C
  C86      1.0000 0.79016  0.10209  0.68200  Biso   1.000  C
  C87      1.0000 0.73140  0.10404  0.60960  Biso   1.000  C
  H41      1.0000 0.72460  0.09200  0.56280  Biso   1.000  H
  C88      1.0000 0.63762  0.16263  0.66630  Biso   1.000  C
  C89      1.0000 0.69126  0.14183  0.67070  Biso   1.000  C
  C90      1.0000 0.75032  0.13980  0.74430  Biso   1.000  C
  H42      1.0000 0.75700  0.15210  0.79080  Biso   1.000  H
  C91      1.0000 0.79889  0.11995  0.74960  Biso   1.000  C
  H43      1.0000 0.83890  0.11840  0.80010  Biso   1.000  H
  C92      1.0000 0.68210  0.12348  0.60500  Biso   1.000  C
  H44      1.0000 0.64130  0.12400  0.55530  Biso   1.000  H
  Co5      1.0000 0.40120  0.21395  0.74297  Biso   1.000  Co
  Co6      1.0000 0.49826  0.17635  0.91920  Biso   1.000  Co
  O21      1.0000 0.50469  0.22727  0.95848  Biso   1.000  O
  O22      1.0000 0.43300  0.25160  0.83605  Biso   1.000  O
  O23      1.0000 0.95242  0.65103  0.43620  Biso   1.000  O
  O24      1.0000 0.91640  0.65498  0.51010  Biso   1.000  O
  O25      1.0000 0.14054  0.67818  0.85747  Biso   1.000  O
  O26      1.0000 0.08598  0.62625  0.81580  Biso   1.000  O
  O27      1.0000 0.91690  0.65746  0.89702  Biso   1.000  O
  O28      1.0000 0.84912  0.68313  0.77619  Biso   1.000  O
  O29      1.0000 0.44818  0.24561  0.69942  Biso   1.000  O
  O30      1.0000 0.48722  0.18554  0.81294  Biso   1.000  O
  C93      1.0000 0.47354  0.25368  0.91170  Biso   1.000  C
  C94      1.0000 0.48601  0.29049  0.95030  Biso   1.000  C
  C95      1.0000 0.52790  0.29545  0.03190  Biso   1.000  C
  H45      1.0000 0.54960  0.27510  0.06560  Biso   1.000  H
  C96      1.0000 0.53920  0.32957  0.06650  Biso   1.000  C
  H46      1.0000 0.56830  0.33230  0.12350  Biso   1.000  H
  C97      1.0000 0.50913  0.35932  0.01980  Biso   1.000  C
  C98      1.0000 0.46490  0.35444  0.93540  Biso   1.000  C
  H47      1.0000 0.44240  0.37470  0.90180  Biso   1.000  H
  C99      1.0000 0.45430  0.32017  0.90190  Biso   1.000  C
  H48      1.0000 0.42490  0.31700  0.84510  Biso   1.000  H
  C100     1.0000 0.51924  0.39566  0.05260  Biso   1.000  C
  C101     1.0000 0.52479  0.42659  0.07360  Biso   1.000  C
  C102     1.0000 0.52733  0.46479  0.09077  Biso   1.000  C
  C103     1.0000 0.58562  0.48309  0.13300  Biso   1.000  C
  H49      1.0000 0.62440  0.47020  0.15400  Biso   1.000  H
  C104     1.0000 0.58647  0.52040  0.14417  Biso   1.000  C
  C105     1.0000 0.52945  0.53912  0.11290  Biso   1.000  C
  H50      1.0000 0.53030  0.56460  0.12030  Biso   1.000  H
  C106     1.0000 0.47133  0.52120  0.07110  Biso   1.000  C
  C107     1.0000 0.47062  0.48367  0.06040  Biso   1.000  C
  H51      1.0000 0.43110  0.47100  0.03220  Biso   1.000  H
  C108     1.0000 0.64532  0.54018  0.19080  Biso   1.000  C
  C109     1.0000 0.69142  0.55857  0.23090  Biso   1.000  C
  C110     1.0000 0.74710  0.58058  0.28380  Biso   1.000  C
  C111     1.0000 0.79230  0.58753  0.26610  Biso   1.000  C
  H52      1.0000 0.78760  0.57790  0.21830  Biso   1.000  H
  C112     1.0000 0.84510  0.60893  0.31940  Biso   1.000  C
  H53      1.0000 0.87550  0.61440  0.30640  Biso   1.000  H
  C113     1.0000 0.85380  0.62210  0.38930  Biso   1.000  C
  C114     1.0000 0.81000  0.61390  0.40730  Biso   1.000  C
  H54      1.0000 0.81610  0.62250  0.45670  Biso   1.000  H
  C115     1.0000 0.75700  0.59342  0.35520  Biso   1.000  C
  H55      1.0000 0.72690  0.58810  0.36900  Biso   1.000  H
  C116     1.0000 0.91140  0.64475  0.44850  Biso   1.000  C
  C117     1.0000 0.41288  0.54118  0.03880  Biso   1.000  C
  C118     1.0000 0.36604  0.55938  0.01220  Biso   1.000  C
  C119     1.0000 0.30928  0.58118  0.97750  Biso   1.000  C
  C120     1.0000 0.31160  0.61798  0.97920  Biso   1.000  C
  H56      1.0000 0.35180  0.62990  0.00630  Biso   1.000  H
  C121     1.0000 0.25580  0.63855  0.94170  Biso   1.000  C
  H57      1.0000 0.25890  0.66420  0.94430  Biso   1.000  H
  C122     1.0000 0.19720  0.62292  0.90140  Biso   1.000  C
  C123     1.0000 0.19560  0.58561  0.90240  Biso   1.000  C
  H58      1.0000 0.15560  0.57350  0.87530  Biso   1.000  H
  C124     1.0000 0.25070  0.56579  0.94170  Biso   1.000  C
  H59      1.0000 0.24780  0.54020  0.94420  Biso   1.000  H
  C125     1.0000 0.13710  0.64425  0.85560  Biso   1.000  C
  C126     1.0000 0.55722  0.32132  0.79490  Biso   1.000  C
  H60      1.0000 0.59640  0.30850  0.82580  Biso   1.000  H
  C127     1.0000 0.55743  0.35895  0.79480  Biso   1.000  C
  H61      1.0000 0.59650  0.37190  0.82520  Biso   1.000  H
  C128     1.0000 0.55673  0.50728  0.77990  Biso   1.000  C
  H62      1.0000 0.59570  0.49440  0.80190  Biso   1.000  H
  C129     1.0000 0.55642  0.54510  0.77770  Biso   1.000  C
  C130     1.0000 0.61323  0.56487  0.79940  Biso   1.000  C
  C131     1.0000 0.65850  0.58150  0.81110  Biso   1.000  C
  C132     1.0000 0.70984  0.60209  0.81800  Biso   1.000  C
  C133     1.0000 0.76860  0.60404  0.89040  Biso   1.000  C
  H63      1.0000 0.77540  0.59200  0.93720  Biso   1.000  H
  C134     1.0000 0.86238  0.66263  0.83370  Biso   1.000  C
  C135     1.0000 0.80874  0.64183  0.82930  Biso   1.000  C
  C136     1.0000 0.74968  0.63980  0.75570  Biso   1.000  C
  H64      1.0000 0.74300  0.65210  0.70920  Biso   1.000  H
  C137     1.0000 0.70111  0.61995  0.75040  Biso   1.000  C
  H65      1.0000 0.66110  0.61840  0.69990  Biso   1.000  H
  C138     1.0000 0.81790  0.62348  0.89500  Biso   1.000  C
  H66      1.0000 0.85870  0.62400  0.94470  Biso   1.000  H
  Co7      1.0000 0.90120  0.71395  0.74297  Biso   1.000  Co
  Co8      1.0000 0.99826  0.67635  0.91920  Biso   1.000  Co
  O31      1.0000 0.00469  0.72727  0.95848  Biso   1.000  O
  O32      1.0000 0.93300  0.75160  0.83605  Biso   1.000  O
  O33      1.0000 0.45242  0.15103  0.43620  Biso   1.000  O
  O34      1.0000 0.41640  0.15498  0.51010  Biso   1.000  O
  O35      1.0000 0.64054  0.17818  0.85747  Biso   1.000  O
  O36      1.0000 0.58598  0.12625  0.81580  Biso   1.000  O
  O37      1.0000 0.41690  0.15746  0.89702  Biso   1.000  O
  O38      1.0000 0.34912  0.18313  0.77619  Biso   1.000  O
  O39      1.0000 0.94818  0.74561  0.69942  Biso   1.000  O
  O40      1.0000 0.98722  0.68554  0.81294  Biso   1.000  O
  C139     1.0000 0.97354  0.75368  0.91170  Biso   1.000  C
  C140     1.0000 0.98601  0.79049  0.95030  Biso   1.000  C
  C141     1.0000 0.02790  0.79545  0.03190  Biso   1.000  C
  H67      1.0000 0.04960  0.77510  0.06560  Biso   1.000  H
  C142     1.0000 0.03920  0.82957  0.06650  Biso   1.000  C
  H68      1.0000 0.06830  0.83230  0.12350  Biso   1.000  H
  C143     1.0000 0.00913  0.85932  0.01980  Biso   1.000  C
  C144     1.0000 0.96490  0.85444  0.93540  Biso   1.000  C
  H69      1.0000 0.94240  0.87470  0.90180  Biso   1.000  H
  C145     1.0000 0.95430  0.82017  0.90190  Biso   1.000  C
  H70      1.0000 0.92490  0.81700  0.84510  Biso   1.000  H
  C146     1.0000 0.01924  0.89566  0.05260  Biso   1.000  C
  C147     1.0000 0.02479  0.92659  0.07360  Biso   1.000  C
  C148     1.0000 0.02733  0.96479  0.09077  Biso   1.000  C
  C149     1.0000 0.08562  0.98309  0.13300  Biso   1.000  C
  H71      1.0000 0.12440  0.97020  0.15400  Biso   1.000  H
  C150     1.0000 0.08647  0.02040  0.14417  Biso   1.000  C
  C151     1.0000 0.02945  0.03912  0.11290  Biso   1.000  C
  H72      1.0000 0.03030  0.06460  0.12030  Biso   1.000  H
  C152     1.0000 0.97133  0.02120  0.07110  Biso   1.000  C
  C153     1.0000 0.97062  0.98367  0.06040  Biso   1.000  C
  H73      1.0000 0.93110  0.97100  0.03220  Biso   1.000  H
  C154     1.0000 0.14532  0.04018  0.19080  Biso   1.000  C
  C155     1.0000 0.19142  0.05857  0.23090  Biso   1.000  C
  C156     1.0000 0.24710  0.08058  0.28380  Biso   1.000  C
  C157     1.0000 0.29230  0.08753  0.26610  Biso   1.000  C
  H74      1.0000 0.28760  0.07790  0.21830  Biso   1.000  H
  C158     1.0000 0.34510  0.10893  0.31940  Biso   1.000  C
  H75      1.0000 0.37550  0.11440  0.30640  Biso   1.000  H
  C159     1.0000 0.35380  0.12210  0.38930  Biso   1.000  C
  C160     1.0000 0.31000  0.11390  0.40730  Biso   1.000  C
  H76      1.0000 0.31610  0.12250  0.45670  Biso   1.000  H
  C161     1.0000 0.25700  0.09342  0.35520  Biso   1.000  C
  H77      1.0000 0.22690  0.08810  0.36900  Biso   1.000  H
  C162     1.0000 0.41140  0.14475  0.44850  Biso   1.000  C
  C163     1.0000 0.91288  0.04118  0.03880  Biso   1.000  C
  C164     1.0000 0.86604  0.05938  0.01220  Biso   1.000  C
  C165     1.0000 0.80928  0.08118  0.97750  Biso   1.000  C
  C166     1.0000 0.81160  0.11798  0.97920  Biso   1.000  C
  H78      1.0000 0.85180  0.12990  0.00630  Biso   1.000  H
  C167     1.0000 0.75580  0.13855  0.94170  Biso   1.000  C
  H79      1.0000 0.75890  0.16420  0.94430  Biso   1.000  H
  C168     1.0000 0.69720  0.12292  0.90140  Biso   1.000  C
  C169     1.0000 0.69560  0.08561  0.90240  Biso   1.000  C
  H80      1.0000 0.65560  0.07350  0.87530  Biso   1.000  H
  C170     1.0000 0.75070  0.06579  0.94170  Biso   1.000  C
  H81      1.0000 0.74780  0.04020  0.94420  Biso   1.000  H
  C171     1.0000 0.63710  0.14425  0.85560  Biso   1.000  C
  C172     1.0000 0.05722  0.82132  0.79490  Biso   1.000  C
  H82      1.0000 0.09640  0.80850  0.82580  Biso   1.000  H
  C173     1.0000 0.05743  0.85895  0.79480  Biso   1.000  C
  H83      1.0000 0.09650  0.87190  0.82520  Biso   1.000  H
  C174     1.0000 0.05673  0.00728  0.77990  Biso   1.000  C
  H84      1.0000 0.09570  0.99440  0.80190  Biso   1.000  H
  C175     1.0000 0.05642  0.04510  0.77770  Biso   1.000  C
  C176     1.0000 0.11323  0.06487  0.79940  Biso   1.000  C
  C177     1.0000 0.15850  0.08150  0.81110  Biso   1.000  C
  C178     1.0000 0.20984  0.10209  0.81800  Biso   1.000  C
  C179     1.0000 0.26860  0.10404  0.89040  Biso   1.000  C
  H85      1.0000 0.27540  0.09200  0.93720  Biso   1.000  H
  C180     1.0000 0.36238  0.16263  0.83370  Biso   1.000  C
  C181     1.0000 0.30874  0.14183  0.82930  Biso   1.000  C
  C182     1.0000 0.24968  0.13980  0.75570  Biso   1.000  C
  H86      1.0000 0.24300  0.15210  0.70920  Biso   1.000  H
  C183     1.0000 0.20111  0.11995  0.75040  Biso   1.000  C
  H87      1.0000 0.16110  0.11840  0.69990  Biso   1.000  H
  C184     1.0000 0.31790  0.12348  0.89500  Biso   1.000  C
  H88      1.0000 0.35870  0.12400  0.94470  Biso   1.000  H
  Co9      1.0000 0.50000  0.14626  0.75000  Biso   1.000  Co
  C185     1.0000 0.50000  0.26144  0.75000  Biso   1.000  C
  C186     1.0000 0.50000  0.30221  0.75000  Biso   1.000  C
  C187     1.0000 0.50000  0.37737  0.75000  Biso   1.000  C
  C188     1.0000 0.50000  0.41699  0.75000  Biso   1.000  C
  C189     1.0000 0.50000  0.44933  0.75000  Biso   1.000  C
  C190     1.0000 0.50000  0.48842  0.75000  Biso   1.000  C
  C191     1.0000 0.50000  0.56395  0.75000  Biso   1.000  C
  H89      1.0000 0.50000  0.58970  0.75000  Biso   1.000  H
  Co10     1.0000 0.00000  0.64626  0.75000  Biso   1.000  Co
  C192     1.0000 0.00000  0.76144  0.75000  Biso   1.000  C
  C193     1.0000 0.00000  0.80221  0.75000  Biso   1.000  C
  C194     1.0000 0.00000  0.87737  0.75000  Biso   1.000  C
  C195     1.0000 0.00000  0.91699  0.75000  Biso   1.000  C
  C196     1.0000 0.00000  0.94933  0.75000  Biso   1.000  C
  C197     1.0000 0.00000  0.98842  0.75000  Biso   1.000  C
  C198     1.0000 0.00000  0.06395  0.75000  Biso   1.000  C
  H90      1.0000 0.00000  0.08970  0.75000  Biso   1.000  H
  Co11     1.0000 0.40120  0.78605  0.24297  Biso   1.000  Co
  Co12     1.0000 0.49826  0.82365  0.41920  Biso   1.000  Co
  O41      1.0000 0.50469  0.77273  0.45848  Biso   1.000  O
  O42      1.0000 0.43300  0.74840  0.33605  Biso   1.000  O
  O43      1.0000 0.95242  0.34897  0.93620  Biso   1.000  O
  O44      1.0000 0.91640  0.34502  0.01010  Biso   1.000  O
  O45      1.0000 0.14054  0.32182  0.35747  Biso   1.000  O
  O46      1.0000 0.08598  0.37375  0.31580  Biso   1.000  O
  O47      1.0000 0.91690  0.34254  0.39702  Biso   1.000  O
  O48      1.0000 0.84912  0.31687  0.27619  Biso   1.000  O
  O49      1.0000 0.44818  0.75439  0.19942  Biso   1.000  O
  O50      1.0000 0.48722  0.81446  0.31294  Biso   1.000  O
  C199     1.0000 0.47354  0.74632  0.41170  Biso   1.000  C
  C200     1.0000 0.48601  0.70951  0.45030  Biso   1.000  C
  C201     1.0000 0.52790  0.70455  0.53190  Biso   1.000  C
  H91      1.0000 0.54960  0.72490  0.56560  Biso   1.000  H
  C202     1.0000 0.53920  0.67043  0.56650  Biso   1.000  C
  H92      1.0000 0.56830  0.66770  0.62350  Biso   1.000  H
  C203     1.0000 0.50913  0.64068  0.51980  Biso   1.000  C
  C204     1.0000 0.46490  0.64556  0.43540  Biso   1.000  C
  H93      1.0000 0.44240  0.62530  0.40180  Biso   1.000  H
  C205     1.0000 0.45430  0.67983  0.40190  Biso   1.000  C
  H94      1.0000 0.42490  0.68300  0.34510  Biso   1.000  H
  C206     1.0000 0.51924  0.60434  0.55260  Biso   1.000  C
  C207     1.0000 0.52479  0.57341  0.57360  Biso   1.000  C
  C208     1.0000 0.52733  0.53521  0.59077  Biso   1.000  C
  C209     1.0000 0.58562  0.51691  0.63300  Biso   1.000  C
  H95      1.0000 0.62440  0.52980  0.65400  Biso   1.000  H
  C210     1.0000 0.58647  0.47960  0.64417  Biso   1.000  C
  C211     1.0000 0.52945  0.46088  0.61290  Biso   1.000  C
  H96      1.0000 0.53030  0.43540  0.62030  Biso   1.000  H
  C212     1.0000 0.47133  0.47880  0.57110  Biso   1.000  C
  C213     1.0000 0.47062  0.51633  0.56040  Biso   1.000  C
  H97      1.0000 0.43110  0.52900  0.53220  Biso   1.000  H
  C214     1.0000 0.64532  0.45982  0.69080  Biso   1.000  C
  C215     1.0000 0.69142  0.44143  0.73090  Biso   1.000  C
  C216     1.0000 0.74710  0.41942  0.78380  Biso   1.000  C
  C217     1.0000 0.79230  0.41247  0.76610  Biso   1.000  C
  H98      1.0000 0.78760  0.42210  0.71830  Biso   1.000  H
  C218     1.0000 0.84510  0.39107  0.81940  Biso   1.000  C
  H99      1.0000 0.87550  0.38560  0.80640  Biso   1.000  H
  C219     1.0000 0.85380  0.37790  0.88930  Biso   1.000  C
  C220     1.0000 0.81000  0.38610  0.90730  Biso   1.000  C
  H100     1.0000 0.81610  0.37750  0.95670  Biso   1.000  H
  C221     1.0000 0.75700  0.40658  0.85520  Biso   1.000  C
  H101     1.0000 0.72690  0.41190  0.86900  Biso   1.000  H
  C222     1.0000 0.91140  0.35525  0.94850  Biso   1.000  C
  C223     1.0000 0.41288  0.45882  0.53880  Biso   1.000  C
  C224     1.0000 0.36604  0.44062  0.51220  Biso   1.000  C
  C225     1.0000 0.30928  0.41882  0.47750  Biso   1.000  C
  C226     1.0000 0.31160  0.38202  0.47920  Biso   1.000  C
  H102     1.0000 0.35180  0.37010  0.50630  Biso   1.000  H
  C227     1.0000 0.25580  0.36145  0.44170  Biso   1.000  C
  H103     1.0000 0.25890  0.33580  0.44430  Biso   1.000  H
  C228     1.0000 0.19720  0.37708  0.40140  Biso   1.000  C
  C229     1.0000 0.19560  0.41439  0.40240  Biso   1.000  C
  H104     1.0000 0.15560  0.42650  0.37530  Biso   1.000  H
  C230     1.0000 0.25070  0.43421  0.44170  Biso   1.000  C
  H105     1.0000 0.24780  0.45980  0.44420  Biso   1.000  H
  C231     1.0000 0.13710  0.35575  0.35560  Biso   1.000  C
  C232     1.0000 0.55722  0.67868  0.29490  Biso   1.000  C
  H106     1.0000 0.59640  0.69150  0.32580  Biso   1.000  H
  C233     1.0000 0.55743  0.64105  0.29480  Biso   1.000  C
  H107     1.0000 0.59650  0.62810  0.32520  Biso   1.000  H
  C234     1.0000 0.55673  0.49272  0.27990  Biso   1.000  C
  H108     1.0000 0.59570  0.50560  0.30190  Biso   1.000  H
  C235     1.0000 0.55642  0.45490  0.27770  Biso   1.000  C
  C236     1.0000 0.61323  0.43513  0.29940  Biso   1.000  C
  C237     1.0000 0.65850  0.41850  0.31110  Biso   1.000  C
  C238     1.0000 0.70984  0.39791  0.31800  Biso   1.000  C
  C239     1.0000 0.76860  0.39596  0.39040  Biso   1.000  C
  H109     1.0000 0.77540  0.40800  0.43720  Biso   1.000  H
  C240     1.0000 0.86238  0.33737  0.33370  Biso   1.000  C
  C241     1.0000 0.80874  0.35817  0.32930  Biso   1.000  C
  C242     1.0000 0.74968  0.36020  0.25570  Biso   1.000  C
  H110     1.0000 0.74300  0.34790  0.20920  Biso   1.000  H
  C243     1.0000 0.70111  0.38005  0.25040  Biso   1.000  C
  H111     1.0000 0.66110  0.38160  0.19990  Biso   1.000  H
  C244     1.0000 0.81790  0.37652  0.39500  Biso   1.000  C
  H112     1.0000 0.85870  0.37600  0.44470  Biso   1.000  H
  Co13     1.0000 0.90120  0.28605  0.24297  Biso   1.000  Co
  Co14     1.0000 0.99826  0.32365  0.41920  Biso   1.000  Co
  O51      1.0000 0.00469  0.27273  0.45848  Biso   1.000  O
  O52      1.0000 0.93300  0.24840  0.33605  Biso   1.000  O
  O53      1.0000 0.45242  0.84897  0.93620  Biso   1.000  O
  O54      1.0000 0.41640  0.84502  0.01010  Biso   1.000  O
  O55      1.0000 0.64054  0.82182  0.35747  Biso   1.000  O
  O56      1.0000 0.58598  0.87375  0.31580  Biso   1.000  O
  O57      1.0000 0.41690  0.84254  0.39702  Biso   1.000  O
  O58      1.0000 0.34912  0.81687  0.27619  Biso   1.000  O
  O59      1.0000 0.94818  0.25439  0.19942  Biso   1.000  O
  O60      1.0000 0.98722  0.31446  0.31294  Biso   1.000  O
  C245     1.0000 0.97354  0.24632  0.41170  Biso   1.000  C
  C246     1.0000 0.98601  0.20951  0.45030  Biso   1.000  C
  C247     1.0000 0.02790  0.20455  0.53190  Biso   1.000  C
  H113     1.0000 0.04960  0.22490  0.56560  Biso   1.000  H
  C248     1.0000 0.03920  0.17043  0.56650  Biso   1.000  C
  H114     1.0000 0.06830  0.16770  0.62350  Biso   1.000  H
  C249     1.0000 0.00913  0.14068  0.51980  Biso   1.000  C
  C250     1.0000 0.96490  0.14556  0.43540  Biso   1.000  C
  H115     1.0000 0.94240  0.12530  0.40180  Biso   1.000  H
  C251     1.0000 0.95430  0.17983  0.40190  Biso   1.000  C
  H116     1.0000 0.92490  0.18300  0.34510  Biso   1.000  H
  C252     1.0000 0.01924  0.10434  0.55260  Biso   1.000  C
  C253     1.0000 0.02479  0.07341  0.57360  Biso   1.000  C
  C254     1.0000 0.02733  0.03521  0.59077  Biso   1.000  C
  C255     1.0000 0.08562  0.01691  0.63300  Biso   1.000  C
  H117     1.0000 0.12440  0.02980  0.65400  Biso   1.000  H
  C256     1.0000 0.08647  0.97960  0.64417  Biso   1.000  C
  C257     1.0000 0.02945  0.96088  0.61290  Biso   1.000  C
  H118     1.0000 0.03030  0.93540  0.62030  Biso   1.000  H
  C258     1.0000 0.97133  0.97880  0.57110  Biso   1.000  C
  C259     1.0000 0.97062  0.01633  0.56040  Biso   1.000  C
  H119     1.0000 0.93110  0.02900  0.53220  Biso   1.000  H
  C260     1.0000 0.14532  0.95982  0.69080  Biso   1.000  C
  C261     1.0000 0.19142  0.94143  0.73090  Biso   1.000  C
  C262     1.0000 0.24710  0.91942  0.78380  Biso   1.000  C
  C263     1.0000 0.29230  0.91247  0.76610  Biso   1.000  C
  H120     1.0000 0.28760  0.92210  0.71830  Biso   1.000  H
  C264     1.0000 0.34510  0.89107  0.81940  Biso   1.000  C
  H121     1.0000 0.37550  0.88560  0.80640  Biso   1.000  H
  C265     1.0000 0.35380  0.87790  0.88930  Biso   1.000  C
  C266     1.0000 0.31000  0.88610  0.90730  Biso   1.000  C
  H122     1.0000 0.31610  0.87750  0.95670  Biso   1.000  H
  C267     1.0000 0.25700  0.90658  0.85520  Biso   1.000  C
  H123     1.0000 0.22690  0.91190  0.86900  Biso   1.000  H
  C268     1.0000 0.41140  0.85525  0.94850  Biso   1.000  C
  C269     1.0000 0.91288  0.95882  0.53880  Biso   1.000  C
  C270     1.0000 0.86604  0.94062  0.51220  Biso   1.000  C
  C271     1.0000 0.80928  0.91882  0.47750  Biso   1.000  C
  C272     1.0000 0.81160  0.88202  0.47920  Biso   1.000  C
  H124     1.0000 0.85180  0.87010  0.50630  Biso   1.000  H
  C273     1.0000 0.75580  0.86145  0.44170  Biso   1.000  C
  H125     1.0000 0.75890  0.83580  0.44430  Biso   1.000  H
  C274     1.0000 0.69720  0.87708  0.40140  Biso   1.000  C
  C275     1.0000 0.69560  0.91439  0.40240  Biso   1.000  C
  H126     1.0000 0.65560  0.92650  0.37530  Biso   1.000  H
  C276     1.0000 0.75070  0.93421  0.44170  Biso   1.000  C
  H127     1.0000 0.74780  0.95980  0.44420  Biso   1.000  H
  C277     1.0000 0.63710  0.85575  0.35560  Biso   1.000  C
  C278     1.0000 0.05722  0.17868  0.29490  Biso   1.000  C
  H128     1.0000 0.09640  0.19150  0.32580  Biso   1.000  H
  C279     1.0000 0.05743  0.14105  0.29480  Biso   1.000  C
  H129     1.0000 0.09650  0.12810  0.32520  Biso   1.000  H
  C280     1.0000 0.05673  0.99272  0.27990  Biso   1.000  C
  H130     1.0000 0.09570  0.00560  0.30190  Biso   1.000  H
  C281     1.0000 0.05642  0.95490  0.27770  Biso   1.000  C
  C282     1.0000 0.11323  0.93513  0.29940  Biso   1.000  C
  C283     1.0000 0.15850  0.91850  0.31110  Biso   1.000  C
  C284     1.0000 0.20984  0.89791  0.31800  Biso   1.000  C
  C285     1.0000 0.26860  0.89596  0.39040  Biso   1.000  C
  H131     1.0000 0.27540  0.90800  0.43720  Biso   1.000  H
  C286     1.0000 0.36238  0.83737  0.33370  Biso   1.000  C
  C287     1.0000 0.30874  0.85817  0.32930  Biso   1.000  C
  C288     1.0000 0.24968  0.86020  0.25570  Biso   1.000  C
  H132     1.0000 0.24300  0.84790  0.20920  Biso   1.000  H
  C289     1.0000 0.20111  0.88005  0.25040  Biso   1.000  C
  H133     1.0000 0.16110  0.88160  0.19990  Biso   1.000  H
  C290     1.0000 0.31790  0.87652  0.39500  Biso   1.000  C
  H134     1.0000 0.35870  0.87600  0.44470  Biso   1.000  H
  Co15     1.0000 0.59880  0.78605  0.25703  Biso   1.000  Co
  Co16     1.0000 0.50174  0.82365  0.08080  Biso   1.000  Co
  O61      1.0000 0.49531  0.77273  0.04152  Biso   1.000  O
  O62      1.0000 0.56700  0.74840  0.16395  Biso   1.000  O
  O63      1.0000 0.04758  0.34897  0.56380  Biso   1.000  O
  O64      1.0000 0.08360  0.34502  0.48990  Biso   1.000  O
  O65      1.0000 0.85946  0.32182  0.14253  Biso   1.000  O
  O66      1.0000 0.91402  0.37375  0.18420  Biso   1.000  O
  O67      1.0000 0.08310  0.34254  0.10298  Biso   1.000  O
  O68      1.0000 0.15088  0.31687  0.22381  Biso   1.000  O
  O69      1.0000 0.55182  0.75439  0.30058  Biso   1.000  O
  O70      1.0000 0.51278  0.81446  0.18706  Biso   1.000  O
  C291     1.0000 0.52646  0.74632  0.08830  Biso   1.000  C
  C292     1.0000 0.51399  0.70951  0.04970  Biso   1.000  C
  C293     1.0000 0.47210  0.70455  0.96810  Biso   1.000  C
  H135     1.0000 0.45040  0.72490  0.93440  Biso   1.000  H
  C294     1.0000 0.46080  0.67043  0.93350  Biso   1.000  C
  H136     1.0000 0.43170  0.66770  0.87650  Biso   1.000  H
  C295     1.0000 0.49087  0.64068  0.98020  Biso   1.000  C
  C296     1.0000 0.53510  0.64556  0.06460  Biso   1.000  C
  H137     1.0000 0.55760  0.62530  0.09820  Biso   1.000  H
  C297     1.0000 0.54570  0.67983  0.09810  Biso   1.000  C
  H138     1.0000 0.57510  0.68300  0.15490  Biso   1.000  H
  C298     1.0000 0.48076  0.60434  0.94740  Biso   1.000  C
  C299     1.0000 0.47521  0.57341  0.92640  Biso   1.000  C
  C300     1.0000 0.47267  0.53521  0.90923  Biso   1.000  C
  C301     1.0000 0.41438  0.51691  0.86700  Biso   1.000  C
  H139     1.0000 0.37560  0.52980  0.84600  Biso   1.000  H
  C302     1.0000 0.41353  0.47960  0.85583  Biso   1.000  C
  C303     1.0000 0.47055  0.46088  0.88710  Biso   1.000  C
  H140     1.0000 0.46970  0.43540  0.87970  Biso   1.000  H
  C304     1.0000 0.52867  0.47880  0.92890  Biso   1.000  C
  C305     1.0000 0.52938  0.51633  0.93960  Biso   1.000  C
  H141     1.0000 0.56890  0.52900  0.96780  Biso   1.000  H
  C306     1.0000 0.35468  0.45982  0.80920  Biso   1.000  C
  C307     1.0000 0.30858  0.44143  0.76910  Biso   1.000  C
  C308     1.0000 0.25290  0.41942  0.71620  Biso   1.000  C
  C309     1.0000 0.20770  0.41247  0.73390  Biso   1.000  C
  H142     1.0000 0.21240  0.42210  0.78170  Biso   1.000  H
  C310     1.0000 0.15490  0.39107  0.68060  Biso   1.000  C
  H143     1.0000 0.12450  0.38560  0.69360  Biso   1.000  H
  C311     1.0000 0.14620  0.37790  0.61070  Biso   1.000  C
  C312     1.0000 0.19000  0.38610  0.59270  Biso   1.000  C
  H144     1.0000 0.18390  0.37750  0.54330  Biso   1.000  H
  C313     1.0000 0.24300  0.40658  0.64480  Biso   1.000  C
  H145     1.0000 0.27310  0.41190  0.63100  Biso   1.000  H
  C314     1.0000 0.08860  0.35525  0.55150  Biso   1.000  C
  C315     1.0000 0.58712  0.45882  0.96120  Biso   1.000  C
  C316     1.0000 0.63396  0.44062  0.98780  Biso   1.000  C
  C317     1.0000 0.69072  0.41882  0.02250  Biso   1.000  C
  C318     1.0000 0.68840  0.38202  0.02080  Biso   1.000  C
  H146     1.0000 0.64820  0.37010  0.99370  Biso   1.000  H
  C319     1.0000 0.74420  0.36145  0.05830  Biso   1.000  C
  H147     1.0000 0.74110  0.33580  0.05570  Biso   1.000  H
  C320     1.0000 0.80280  0.37708  0.09860  Biso   1.000  C
  C321     1.0000 0.80440  0.41439  0.09760  Biso   1.000  C
  H148     1.0000 0.84440  0.42650  0.12470  Biso   1.000  H
  C322     1.0000 0.74930  0.43421  0.05830  Biso   1.000  C
  H149     1.0000 0.75220  0.45980  0.05580  Biso   1.000  H
  C323     1.0000 0.86290  0.35575  0.14440  Biso   1.000  C
  C324     1.0000 0.44278  0.67868  0.20510  Biso   1.000  C
  H150     1.0000 0.40360  0.69150  0.17420  Biso   1.000  H
  C325     1.0000 0.44257  0.64105  0.20520  Biso   1.000  C
  H151     1.0000 0.40350  0.62810  0.17480  Biso   1.000  H
  C326     1.0000 0.44327  0.49272  0.22010  Biso   1.000  C
  H152     1.0000 0.40430  0.50560  0.19810  Biso   1.000  H
  C327     1.0000 0.44358  0.45490  0.22230  Biso   1.000  C
  C328     1.0000 0.38677  0.43513  0.20060  Biso   1.000  C
  C329     1.0000 0.34150  0.41850  0.18890  Biso   1.000  C
  C330     1.0000 0.29016  0.39791  0.18200  Biso   1.000  C
  C331     1.0000 0.23140  0.39596  0.10960  Biso   1.000  C
  H153     1.0000 0.22460  0.40800  0.06280  Biso   1.000  H
  C332     1.0000 0.13762  0.33737  0.16630  Biso   1.000  C
  C333     1.0000 0.19126  0.35817  0.17070  Biso   1.000  C
  C334     1.0000 0.25032  0.36020  0.24430  Biso   1.000  C
  H154     1.0000 0.25700  0.34790  0.29080  Biso   1.000  H
  C335     1.0000 0.29889  0.38005  0.24960  Biso   1.000  C
  H155     1.0000 0.33890  0.38160  0.30010  Biso   1.000  H
  C336     1.0000 0.18210  0.37652  0.10500  Biso   1.000  C
  H156     1.0000 0.14130  0.37600  0.05530  Biso   1.000  H
  Co17     1.0000 0.09880  0.28605  0.25703  Biso   1.000  Co
  Co18     1.0000 0.00174  0.32365  0.08080  Biso   1.000  Co
  O71      1.0000 0.99531  0.27273  0.04152  Biso   1.000  O
  O72      1.0000 0.06700  0.24840  0.16395  Biso   1.000  O
  O73      1.0000 0.54758  0.84897  0.56380  Biso   1.000  O
  O74      1.0000 0.58360  0.84502  0.48990  Biso   1.000  O
  O75      1.0000 0.35946  0.82182  0.14253  Biso   1.000  O
  O76      1.0000 0.41402  0.87375  0.18420  Biso   1.000  O
  O77      1.0000 0.58310  0.84254  0.10298  Biso   1.000  O
  O78      1.0000 0.65088  0.81687  0.22381  Biso   1.000  O
  O79      1.0000 0.05182  0.25439  0.30058  Biso   1.000  O
  O80      1.0000 0.01278  0.31446  0.18706  Biso   1.000  O
  C337     1.0000 0.02646  0.24632  0.08830  Biso   1.000  C
  C338     1.0000 0.01399  0.20951  0.04970  Biso   1.000  C
  C339     1.0000 0.97210  0.20455  0.96810  Biso   1.000  C
  H157     1.0000 0.95040  0.22490  0.93440  Biso   1.000  H
  C340     1.0000 0.96080  0.17043  0.93350  Biso   1.000  C
  H158     1.0000 0.93170  0.16770  0.87650  Biso   1.000  H
  C341     1.0000 0.99087  0.14068  0.98020  Biso   1.000  C
  C342     1.0000 0.03510  0.14556  0.06460  Biso   1.000  C
  H159     1.0000 0.05760  0.12530  0.09820  Biso   1.000  H
  C343     1.0000 0.04570  0.17983  0.09810  Biso   1.000  C
  H160     1.0000 0.07510  0.18300  0.15490  Biso   1.000  H
  C344     1.0000 0.98076  0.10434  0.94740  Biso   1.000  C
  C345     1.0000 0.97521  0.07341  0.92640  Biso   1.000  C
  C346     1.0000 0.97267  0.03521  0.90923  Biso   1.000  C
  C347     1.0000 0.91438  0.01691  0.86700  Biso   1.000  C
  H161     1.0000 0.87560  0.02980  0.84600  Biso   1.000  H
  C348     1.0000 0.91353  0.97960  0.85583  Biso   1.000  C
  C349     1.0000 0.97055  0.96088  0.88710  Biso   1.000  C
  H162     1.0000 0.96970  0.93540  0.87970  Biso   1.000  H
  C350     1.0000 0.02867  0.97880  0.92890  Biso   1.000  C
  C351     1.0000 0.02938  0.01633  0.93960  Biso   1.000  C
  H163     1.0000 0.06890  0.02900  0.96780  Biso   1.000  H
  C352     1.0000 0.85468  0.95982  0.80920  Biso   1.000  C
  C353     1.0000 0.80858  0.94143  0.76910  Biso   1.000  C
  C354     1.0000 0.75290  0.91942  0.71620  Biso   1.000  C
  C355     1.0000 0.70770  0.91247  0.73390  Biso   1.000  C
  H164     1.0000 0.71240  0.92210  0.78170  Biso   1.000  H
  C356     1.0000 0.65490  0.89107  0.68060  Biso   1.000  C
  H165     1.0000 0.62450  0.88560  0.69360  Biso   1.000  H
  C357     1.0000 0.64620  0.87790  0.61070  Biso   1.000  C
  C358     1.0000 0.69000  0.88610  0.59270  Biso   1.000  C
  H166     1.0000 0.68390  0.87750  0.54330  Biso   1.000  H
  C359     1.0000 0.74300  0.90658  0.64480  Biso   1.000  C
  H167     1.0000 0.77310  0.91190  0.63100  Biso   1.000  H
  C360     1.0000 0.58860  0.85525  0.55150  Biso   1.000  C
  C361     1.0000 0.08712  0.95882  0.96120  Biso   1.000  C
  C362     1.0000 0.13396  0.94062  0.98780  Biso   1.000  C
  C363     1.0000 0.19072  0.91882  0.02250  Biso   1.000  C
  C364     1.0000 0.18840  0.88202  0.02080  Biso   1.000  C
  H168     1.0000 0.14820  0.87010  0.99370  Biso   1.000  H
  C365     1.0000 0.24420  0.86145  0.05830  Biso   1.000  C
  H169     1.0000 0.24110  0.83580  0.05570  Biso   1.000  H
  C366     1.0000 0.30280  0.87708  0.09860  Biso   1.000  C
  C367     1.0000 0.30440  0.91439  0.09760  Biso   1.000  C
  H170     1.0000 0.34440  0.92650  0.12470  Biso   1.000  H
  C368     1.0000 0.24930  0.93421  0.05830  Biso   1.000  C
  H171     1.0000 0.25220  0.95980  0.05580  Biso   1.000  H
  C369     1.0000 0.36290  0.85575  0.14440  Biso   1.000  C
  C370     1.0000 0.94278  0.17868  0.20510  Biso   1.000  C
  H172     1.0000 0.90360  0.19150  0.17420  Biso   1.000  H
  C371     1.0000 0.94257  0.14105  0.20520  Biso   1.000  C
  H173     1.0000 0.90350  0.12810  0.17480  Biso   1.000  H
  C372     1.0000 0.94327  0.99272  0.22010  Biso   1.000  C
  H174     1.0000 0.90430  0.00560  0.19810  Biso   1.000  H
  C373     1.0000 0.94358  0.95490  0.22230  Biso   1.000  C
  C374     1.0000 0.88677  0.93513  0.20060  Biso   1.000  C
  C375     1.0000 0.84150  0.91850  0.18890  Biso   1.000  C
  C376     1.0000 0.79016  0.89791  0.18200  Biso   1.000  C
  C377     1.0000 0.73140  0.89596  0.10960  Biso   1.000  C
  H175     1.0000 0.72460  0.90800  0.06280  Biso   1.000  H
  C378     1.0000 0.63762  0.83737  0.16630  Biso   1.000  C
  C379     1.0000 0.69126  0.85817  0.17070  Biso   1.000  C
  C380     1.0000 0.75032  0.86020  0.24430  Biso   1.000  C
  H176     1.0000 0.75700  0.84790  0.29080  Biso   1.000  H
  C381     1.0000 0.79889  0.88005  0.24960  Biso   1.000  C
  H177     1.0000 0.83890  0.88160  0.30010  Biso   1.000  H
  C382     1.0000 0.68210  0.87652  0.10500  Biso   1.000  C
  H178     1.0000 0.64130  0.87600  0.05530  Biso   1.000  H
  Co19     1.0000 0.50000  0.85374  0.25000  Biso   1.000  Co
  C383     1.0000 0.50000  0.73856  0.25000  Biso   1.000  C
  C384     1.0000 0.50000  0.69779  0.25000  Biso   1.000  C
  C385     1.0000 0.50000  0.62263  0.25000  Biso   1.000  C
  C386     1.0000 0.50000  0.58301  0.25000  Biso   1.000  C
  C387     1.0000 0.50000  0.55067  0.25000  Biso   1.000  C
  C388     1.0000 0.50000  0.51158  0.25000  Biso   1.000  C
  C389     1.0000 0.50000  0.43605  0.25000  Biso   1.000  C
  H179     1.0000 0.50000  0.41030  0.25000  Biso   1.000  H
  Co20     1.0000 0.00000  0.35374  0.25000  Biso   1.000  Co
  C390     1.0000 0.00000  0.23856  0.25000  Biso   1.000  C
  C391     1.0000 0.00000  0.19779  0.25000  Biso   1.000  C
  C392     1.0000 0.00000  0.12263  0.25000  Biso   1.000  C
  C393     1.0000 0.00000  0.08301  0.25000  Biso   1.000  C
  C394     1.0000 0.00000  0.05067  0.25000  Biso   1.000  C
  C395     1.0000 0.00000  0.01158  0.25000  Biso   1.000  C
  C396     1.0000 0.00000  0.93605  0.25000  Biso   1.000  C
  H180     1.0000 0.00000  0.91030  0.25000  Biso   1.000  H
