data_image0
_cell_length_a       46.33
_cell_length_b       10.727
_cell_length_c       23.714
_cell_angle_alpha    90
_cell_angle_beta     95.872
_cell_angle_gamma    90

_symmetry_space_group_name_H-M    "P 1"
_symmetry_int_tables_number       1

loop_
  _symmetry_equiv_pos_as_xyz
  'x, y, z'

loop_
  _atom_site_label
  _atom_site_occupancy
  _atom_site_fract_x
  _atom_site_fract_y
  _atom_site_fract_z
  _atom_site_thermal_displace_type
  _atom_site_B_iso_or_equiv
  _atom_site_type_symbol
  C1       1.0000 0.96536  0.24580  0.00762  Biso   1.000  C
  C2       1.0000 0.93969  0.18600  0.97441  Biso   1.000  C
  C3       1.0000 0.90251  0.18170  0.89718  Biso   1.000  C
  H1       1.0000 0.89220  0.22080  0.86640  Biso   1.000  H
  C4       1.0000 0.89628  0.06170  0.91107  Biso   1.000  C
  C5       1.0000 0.93237  0.06570  0.98902  Biso   1.000  C
  H2       1.0000 0.94240  0.02700  0.02030  Biso   1.000  H
  C6       1.0000 0.91025  0.00320  0.95717  Biso   1.000  C
  H3       1.0000 0.90500  0.92300  0.96700  Biso   1.000  H
  C7       1.0000 0.92442  0.24410  0.92977  Biso   1.000  C
  H4       1.0000 0.92870  0.32610  0.92120  Biso   1.000  H
  C8       1.0000 0.82867  0.70840  0.93031  Biso   1.000  C
  C9       1.0000 0.86151  0.89960  0.89500  Biso   1.000  C
  C10      1.0000 0.84323  0.92060  0.93470  Biso   1.000  C
  H5       1.0000 0.84150  0.00040  0.94920  Biso   1.000  H
  C11      1.0000 0.86390  0.78690  0.87166  Biso   1.000  C
  H6       1.0000 0.87650  0.77350  0.84420  Biso   1.000  H
  C12      1.0000 0.84701  0.69020  0.88961  Biso   1.000  C
  H7       1.0000 0.84830  0.61160  0.87350  Biso   1.000  H
  C13      1.0000 0.82726  0.82510  0.95368  Biso   1.000  C
  H8       1.0000 0.81540  0.83910  0.98240  Biso   1.000  H
  C14      1.0000 0.81027  0.60340  0.94887  Biso   1.000  C
  C15      1.0000 0.76232  0.23740  0.12012  Biso   1.000  C
  C16      1.0000 0.78956  0.28950  0.15004  Biso   1.000  C
  C17      1.0000 0.80483  0.22360  0.19302  Biso   1.000  C
  H9       1.0000 0.79840  0.14510  0.20270  Biso   1.000  H
  C18      1.0000 0.79952  0.40220  0.13581  Biso   1.000  C
  H10      1.0000 0.78940  0.44670  0.10640  Biso   1.000  H
  C19      1.0000 0.83914  0.38840  0.20702  Biso   1.000  C
  C20      1.0000 0.82972  0.27300  0.22212  Biso   1.000  C
  H11      1.0000 0.83990  0.22850  0.25140  Biso   1.000  H
  C21      1.0000 0.82485  0.45400  0.16435  Biso   1.000  C
  H12      1.0000 0.83160  0.53160  0.15410  Biso   1.000  H
  C22      1.0000 0.93684  0.52710  0.22180  Biso   1.000  C
  H13      1.0000 0.95110  0.57750  0.24030  Biso   1.000  H
  C23      1.0000 0.94286  0.46100  0.17419  Biso   1.000  C
  C24      1.0000 0.89375  0.38520  0.16580  Biso   1.000  C
  H14      1.0000 0.87900  0.33940  0.14590  Biso   1.000  H
  C25      1.0000 0.88858  0.44750  0.21384  Biso   1.000  C
  C26      1.0000 0.97223  0.46330  0.15247  Biso   1.000  C
  C27      1.0000 0.91002  0.51970  0.24241  Biso   1.000  C
  H15      1.0000 0.90650  0.56270  0.27510  Biso   1.000  H
  C28      1.0000 0.92094  0.39000  0.14666  Biso   1.000  C
  H16      1.0000 0.92450  0.34470  0.11470  Biso   1.000  H
  C29      1.0000 0.06705  0.07330  0.20704  Biso   1.000  C
  C30      1.0000 0.05143  0.26920  0.17036  Biso   1.000  C
  H17      1.0000 0.05250  0.35550  0.17350  Biso   1.000  H
  C31      1.0000 0.06783  0.19980  0.21029  Biso   1.000  C
  H18      1.0000 0.07940  0.23900  0.23940  Biso   1.000  H
  C32      1.0000 0.03384  0.10090  0.12481  Biso   1.000  C
  H19      1.0000 0.02260  0.06460  0.09440  Biso   1.000  H
  C33      1.0000 0.04889  0.02270  0.16342  Biso   1.000  C
  H20      1.0000 0.04680  0.93670  0.16010  Biso   1.000  H
  C34      1.0000 0.10135  0.04270  0.28628  Biso   1.000  C
  H21      1.0000 0.09160  0.10230  0.30860  Biso   1.000  H
  H22      1.0000 0.11720  0.08470  0.27030  Biso   1.000  H
  C35      1.0000 0.02922  0.75540  0.45765  Biso   1.000  C
  H23      1.0000 0.00980  0.77860  0.45140  Biso   1.000  H
  C36      1.0000 0.06505  0.65400  0.51022  Biso   1.000  C
  H24      1.0000 0.07130  0.60510  0.54150  Biso   1.000  H
  C37      1.0000 0.08454  0.68230  0.47365  Biso   1.000  C
  H25      1.0000 0.10360  0.65400  0.48020  Biso   1.000  H
  C38      1.0000 0.04689  0.79000  0.41776  Biso   1.000  C
  H26      1.0000 0.03980  0.83590  0.38610  Biso   1.000  H
  C39      1.0000 0.07587  0.75420  0.42607  Biso   1.000  C
  C40      1.0000 0.08723  0.88200  0.34971  Biso   1.000  C
  H27      1.0000 0.07730  0.94900  0.36730  Biso   1.000  H
  H28      1.0000 0.07370  0.84510  0.32050  Biso   1.000  H
  C41      1.0000 0.12668  0.83690  0.28835  Biso   1.000  C
  H29      1.0000 0.13500  0.77060  0.31270  Biso   1.000  H
  H30      1.0000 0.11240  0.80110  0.26010  Biso   1.000  H
  C42      1.0000 0.11279  0.93480  0.32289  Biso   1.000  C
  C43      1.0000 0.13647  0.97900  0.36780  Biso   1.000  C
  H31      1.0000 0.14270  0.90990  0.39250  Biso   1.000  H
  H32      1.0000 0.15310  0.00740  0.34950  Biso   1.000  H
  C44      1.0000 0.17679  0.66320  0.17204  Biso   1.000  C
  H33      1.0000 0.17500  0.57830  0.16460  Biso   1.000  H
  C45      1.0000 0.16326  0.83730  0.22508  Biso   1.000  C
  C46      1.0000 0.19675  0.84630  0.15546  Biso   1.000  C
  H34      1.0000 0.20940  0.89390  0.13620  Biso   1.000  H
  C47      1.0000 0.16083  0.71200  0.21318  Biso   1.000  C
  H35      1.0000 0.14880  0.66130  0.23230  Biso   1.000  H
  C48      1.0000 0.18213  0.90660  0.19552  Biso   1.000  C
  H36      1.0000 0.18480  0.99140  0.20250  Biso   1.000  H
  C49      1.0000 0.15653  0.28730  0.50885  Biso   1.000  C
  H37      1.0000 0.14970  0.35060  0.53080  Biso   1.000  H
  C50      1.0000 0.14606  0.13330  0.43777  Biso   1.000  C
  C51      1.0000 0.13705  0.22690  0.47039  Biso   1.000  C
  H38      1.0000 0.11760  0.25040  0.46670  Biso   1.000  H
  C52      1.0000 0.17467  0.10070  0.44502  Biso   1.000  C
  H39      1.0000 0.18180  0.03640  0.42410  Biso   1.000  H
  C53      1.0000 0.19254  0.16600  0.48430  Biso   1.000  C
  H40      1.0000 0.21200  0.14260  0.48910  Biso   1.000  H
  Co1      1.0000 0.00854  0.33105  0.06911  Biso   1.000  Co
  Co2      1.0000 0.71490  0.15164  0.07469  Biso   1.000  Co
  N1       1.0000 0.03733  0.69150  0.50475  Biso   1.000  N
  N2       1.0000 0.18474  0.25940  0.51605  Biso   1.000  N
  N3       1.0000 0.03426  0.22260  0.12791  Biso   1.000  N
  N4       1.0000 0.19441  0.72830  0.14228  Biso   1.000  N
  O1       1.0000 0.74815  0.29807  0.08169  Biso   1.000  O
  O2       1.0000 0.75372  0.13046  0.13415  Biso   1.000  O
  O3       1.0000 0.97763  0.37051  0.12293  Biso   1.000  O
  O4       1.0000 0.98889  0.55155  0.16421  Biso   1.000  O
  O5       1.0000 0.98100  0.18032  0.04303  Biso   1.000  O
  O6       1.0000 0.97132  0.35876  0.99970  Biso   1.000  O
  O7       1.0000 0.80818  0.50827  0.91864  Biso   1.000  O
  O8       1.0000 0.79819  0.61910  0.99293  Biso   1.000  O
  O9       1.0000 0.87618  0.00029  0.87326  Biso   1.000  O
  O10      1.0000 0.86324  0.43980  0.23925  Biso   1.000  O
  O11      1.0000 0.08142  0.99262  0.24222  Biso   1.000  O
  O12      1.0000 0.12621  0.07824  0.40072  Biso   1.000  O
  O13      1.0000 0.09613  0.78881  0.39189  Biso   1.000  O
  O14      1.0000 0.14870  0.89930  0.26183  Biso   1.000  O
  C54      1.0000 0.46536  0.74580  0.00762  Biso   1.000  C
  C55      1.0000 0.43969  0.68600  0.97441  Biso   1.000  C
  C56      1.0000 0.40251  0.68170  0.89718  Biso   1.000  C
  H41      1.0000 0.39220  0.72080  0.86640  Biso   1.000  H
  C57      1.0000 0.39628  0.56170  0.91107  Biso   1.000  C
  C58      1.0000 0.43237  0.56570  0.98902  Biso   1.000  C
  H42      1.0000 0.44240  0.52700  0.02030  Biso   1.000  H
  C59      1.0000 0.41025  0.50320  0.95717  Biso   1.000  C
  H43      1.0000 0.40500  0.42300  0.96700  Biso   1.000  H
  C60      1.0000 0.42442  0.74410  0.92977  Biso   1.000  C
  H44      1.0000 0.42870  0.82610  0.92120  Biso   1.000  H
  C61      1.0000 0.32867  0.20840  0.93031  Biso   1.000  C
  C62      1.0000 0.36151  0.39960  0.89500  Biso   1.000  C
  C63      1.0000 0.34323  0.42060  0.93470  Biso   1.000  C
  H45      1.0000 0.34150  0.50040  0.94920  Biso   1.000  H
  C64      1.0000 0.36390  0.28690  0.87166  Biso   1.000  C
  H46      1.0000 0.37650  0.27350  0.84420  Biso   1.000  H
  C65      1.0000 0.34701  0.19020  0.88961  Biso   1.000  C
  H47      1.0000 0.34830  0.11160  0.87350  Biso   1.000  H
  C66      1.0000 0.32726  0.32510  0.95368  Biso   1.000  C
  H48      1.0000 0.31540  0.33910  0.98240  Biso   1.000  H
  C67      1.0000 0.31027  0.10340  0.94887  Biso   1.000  C
  C68      1.0000 0.26232  0.73740  0.12012  Biso   1.000  C
  C69      1.0000 0.28956  0.78950  0.15004  Biso   1.000  C
  C70      1.0000 0.30483  0.72360  0.19302  Biso   1.000  C
  H49      1.0000 0.29840  0.64510  0.20270  Biso   1.000  H
  C71      1.0000 0.29952  0.90220  0.13581  Biso   1.000  C
  H50      1.0000 0.28940  0.94670  0.10640  Biso   1.000  H
  C72      1.0000 0.33914  0.88840  0.20702  Biso   1.000  C
  C73      1.0000 0.32972  0.77300  0.22212  Biso   1.000  C
  H51      1.0000 0.33990  0.72850  0.25140  Biso   1.000  H
  C74      1.0000 0.32485  0.95400  0.16435  Biso   1.000  C
  H52      1.0000 0.33160  0.03160  0.15410  Biso   1.000  H
  C75      1.0000 0.43684  0.02710  0.22180  Biso   1.000  C
  H53      1.0000 0.45110  0.07750  0.24030  Biso   1.000  H
  C76      1.0000 0.44286  0.96100  0.17419  Biso   1.000  C
  C77      1.0000 0.39375  0.88520  0.16580  Biso   1.000  C
  H54      1.0000 0.37900  0.83940  0.14590  Biso   1.000  H
  C78      1.0000 0.38858  0.94750  0.21384  Biso   1.000  C
  C79      1.0000 0.47223  0.96330  0.15247  Biso   1.000  C
  C80      1.0000 0.41002  0.01970  0.24241  Biso   1.000  C
  H55      1.0000 0.40650  0.06270  0.27510  Biso   1.000  H
  C81      1.0000 0.42094  0.89000  0.14666  Biso   1.000  C
  H56      1.0000 0.42450  0.84470  0.11470  Biso   1.000  H
  C82      1.0000 0.56705  0.57330  0.20704  Biso   1.000  C
  C83      1.0000 0.55143  0.76920  0.17036  Biso   1.000  C
  H57      1.0000 0.55250  0.85550  0.17350  Biso   1.000  H
  C84      1.0000 0.56783  0.69980  0.21029  Biso   1.000  C
  H58      1.0000 0.57940  0.73900  0.23940  Biso   1.000  H
  C85      1.0000 0.53384  0.60090  0.12481  Biso   1.000  C
  H59      1.0000 0.52260  0.56460  0.09440  Biso   1.000  H
  C86      1.0000 0.54889  0.52270  0.16342  Biso   1.000  C
  H60      1.0000 0.54680  0.43670  0.16010  Biso   1.000  H
  C87      1.0000 0.60135  0.54270  0.28628  Biso   1.000  C
  H61      1.0000 0.59160  0.60230  0.30860  Biso   1.000  H
  H62      1.0000 0.61720  0.58470  0.27030  Biso   1.000  H
  C88      1.0000 0.52922  0.25540  0.45765  Biso   1.000  C
  H63      1.0000 0.50980  0.27860  0.45140  Biso   1.000  H
  C89      1.0000 0.56505  0.15400  0.51022  Biso   1.000  C
  H64      1.0000 0.57130  0.10510  0.54150  Biso   1.000  H
  C90      1.0000 0.58454  0.18230  0.47365  Biso   1.000  C
  H65      1.0000 0.60360  0.15400  0.48020  Biso   1.000  H
  C91      1.0000 0.54689  0.29000  0.41776  Biso   1.000  C
  H66      1.0000 0.53980  0.33590  0.38610  Biso   1.000  H
  C92      1.0000 0.57587  0.25420  0.42607  Biso   1.000  C
  C93      1.0000 0.58723  0.38200  0.34971  Biso   1.000  C
  H67      1.0000 0.57730  0.44900  0.36730  Biso   1.000  H
  H68      1.0000 0.57370  0.34510  0.32050  Biso   1.000  H
  C94      1.0000 0.62668  0.33690  0.28835  Biso   1.000  C
  H69      1.0000 0.63500  0.27060  0.31270  Biso   1.000  H
  H70      1.0000 0.61240  0.30110  0.26010  Biso   1.000  H
  C95      1.0000 0.61279  0.43480  0.32289  Biso   1.000  C
  C96      1.0000 0.63647  0.47900  0.36780  Biso   1.000  C
  H71      1.0000 0.64270  0.40990  0.39250  Biso   1.000  H
  H72      1.0000 0.65310  0.50740  0.34950  Biso   1.000  H
  C97      1.0000 0.67679  0.16320  0.17204  Biso   1.000  C
  H73      1.0000 0.67500  0.07830  0.16460  Biso   1.000  H
  C98      1.0000 0.66326  0.33730  0.22508  Biso   1.000  C
  C99      1.0000 0.69675  0.34630  0.15546  Biso   1.000  C
  H74      1.0000 0.70940  0.39390  0.13620  Biso   1.000  H
  C100     1.0000 0.66083  0.21200  0.21318  Biso   1.000  C
  H75      1.0000 0.64880  0.16130  0.23230  Biso   1.000  H
  C101     1.0000 0.68213  0.40660  0.19552  Biso   1.000  C
  H76      1.0000 0.68480  0.49140  0.20250  Biso   1.000  H
  C102     1.0000 0.65653  0.78730  0.50885  Biso   1.000  C
  H77      1.0000 0.64970  0.85060  0.53080  Biso   1.000  H
  C103     1.0000 0.64606  0.63330  0.43777  Biso   1.000  C
  C104     1.0000 0.63705  0.72690  0.47039  Biso   1.000  C
  H78      1.0000 0.61760  0.75040  0.46670  Biso   1.000  H
  C105     1.0000 0.67467  0.60070  0.44502  Biso   1.000  C
  H79      1.0000 0.68180  0.53640  0.42410  Biso   1.000  H
  C106     1.0000 0.69254  0.66600  0.48430  Biso   1.000  C
  H80      1.0000 0.71200  0.64260  0.48910  Biso   1.000  H
  Co3      1.0000 0.50854  0.83105  0.06911  Biso   1.000  Co
  Co4      1.0000 0.21490  0.65164  0.07469  Biso   1.000  Co
  N5       1.0000 0.53733  0.19150  0.50475  Biso   1.000  N
  N6       1.0000 0.68474  0.75940  0.51605  Biso   1.000  N
  N7       1.0000 0.53426  0.72260  0.12791  Biso   1.000  N
  N8       1.0000 0.69441  0.22830  0.14228  Biso   1.000  N
  O15      1.0000 0.24815  0.79807  0.08169  Biso   1.000  O
  O16      1.0000 0.25372  0.63046  0.13415  Biso   1.000  O
  O17      1.0000 0.47763  0.87051  0.12293  Biso   1.000  O
  O18      1.0000 0.48889  0.05155  0.16421  Biso   1.000  O
  O19      1.0000 0.48100  0.68032  0.04303  Biso   1.000  O
  O20      1.0000 0.47132  0.85876  0.99970  Biso   1.000  O
  O21      1.0000 0.30818  0.00827  0.91864  Biso   1.000  O
  O22      1.0000 0.29819  0.11910  0.99293  Biso   1.000  O
  O23      1.0000 0.37618  0.50029  0.87326  Biso   1.000  O
  O24      1.0000 0.36324  0.93980  0.23925  Biso   1.000  O
  O25      1.0000 0.58142  0.49262  0.24222  Biso   1.000  O
  O26      1.0000 0.62621  0.57824  0.40072  Biso   1.000  O
  O27      1.0000 0.59613  0.28881  0.39189  Biso   1.000  O
  O28      1.0000 0.64870  0.39930  0.26183  Biso   1.000  O
  C107     1.0000 0.03464  0.24580  0.49238  Biso   1.000  C
  C108     1.0000 0.06031  0.18600  0.52559  Biso   1.000  C
  C109     1.0000 0.09749  0.18170  0.60282  Biso   1.000  C
  H81      1.0000 0.10780  0.22080  0.63360  Biso   1.000  H
  C110     1.0000 0.10372  0.06170  0.58893  Biso   1.000  C
  C111     1.0000 0.06763  0.06570  0.51098  Biso   1.000  C
  H82      1.0000 0.05760  0.02700  0.47970  Biso   1.000  H
  C112     1.0000 0.08975  0.00320  0.54283  Biso   1.000  C
  H83      1.0000 0.09500  0.92300  0.53300  Biso   1.000  H
  C113     1.0000 0.07558  0.24410  0.57023  Biso   1.000  C
  H84      1.0000 0.07130  0.32610  0.57880  Biso   1.000  H
  C114     1.0000 0.17133  0.70840  0.56969  Biso   1.000  C
  C115     1.0000 0.13849  0.89960  0.60500  Biso   1.000  C
  C116     1.0000 0.15677  0.92060  0.56530  Biso   1.000  C
  H85      1.0000 0.15850  0.00040  0.55080  Biso   1.000  H
  C117     1.0000 0.13610  0.78690  0.62834  Biso   1.000  C
  H86      1.0000 0.12350  0.77350  0.65580  Biso   1.000  H
  C118     1.0000 0.15299  0.69020  0.61039  Biso   1.000  C
  H87      1.0000 0.15170  0.61160  0.62650  Biso   1.000  H
  C119     1.0000 0.17274  0.82510  0.54632  Biso   1.000  C
  H88      1.0000 0.18460  0.83910  0.51760  Biso   1.000  H
  C120     1.0000 0.18973  0.60340  0.55113  Biso   1.000  C
  C121     1.0000 0.23768  0.23740  0.37988  Biso   1.000  C
  C122     1.0000 0.21044  0.28950  0.34996  Biso   1.000  C
  C123     1.0000 0.19517  0.22360  0.30698  Biso   1.000  C
  H89      1.0000 0.20160  0.14510  0.29730  Biso   1.000  H
  C124     1.0000 0.20048  0.40220  0.36419  Biso   1.000  C
  H90      1.0000 0.21060  0.44670  0.39360  Biso   1.000  H
  C125     1.0000 0.16086  0.38840  0.29298  Biso   1.000  C
  C126     1.0000 0.17028  0.27300  0.27788  Biso   1.000  C
  H91      1.0000 0.16010  0.22850  0.24860  Biso   1.000  H
  C127     1.0000 0.17515  0.45400  0.33565  Biso   1.000  C
  H92      1.0000 0.16840  0.53160  0.34590  Biso   1.000  H
  C128     1.0000 0.06316  0.52710  0.27820  Biso   1.000  C
  H93      1.0000 0.04890  0.57750  0.25970  Biso   1.000  H
  C129     1.0000 0.05714  0.46100  0.32581  Biso   1.000  C
  C130     1.0000 0.10625  0.38520  0.33420  Biso   1.000  C
  H94      1.0000 0.12100  0.33940  0.35410  Biso   1.000  H
  C131     1.0000 0.11142  0.44750  0.28616  Biso   1.000  C
  C132     1.0000 0.02777  0.46330  0.34753  Biso   1.000  C
  C133     1.0000 0.08998  0.51970  0.25759  Biso   1.000  C
  H95      1.0000 0.09350  0.56270  0.22490  Biso   1.000  H
  C134     1.0000 0.07906  0.39000  0.35334  Biso   1.000  C
  H96      1.0000 0.07550  0.34470  0.38530  Biso   1.000  H
  C135     1.0000 0.93295  0.07330  0.29296  Biso   1.000  C
  C136     1.0000 0.94857  0.26920  0.32964  Biso   1.000  C
  H97      1.0000 0.94750  0.35550  0.32650  Biso   1.000  H
  C137     1.0000 0.93217  0.19980  0.28971  Biso   1.000  C
  H98      1.0000 0.92060  0.23900  0.26060  Biso   1.000  H
  C138     1.0000 0.96616  0.10090  0.37519  Biso   1.000  C
  H99      1.0000 0.97740  0.06460  0.40560  Biso   1.000  H
  C139     1.0000 0.95111  0.02270  0.33658  Biso   1.000  C
  H100     1.0000 0.95320  0.93670  0.33990  Biso   1.000  H
  C140     1.0000 0.89865  0.04270  0.21372  Biso   1.000  C
  H101     1.0000 0.90840  0.10230  0.19140  Biso   1.000  H
  H102     1.0000 0.88280  0.08470  0.22970  Biso   1.000  H
  C141     1.0000 0.97078  0.75540  0.04235  Biso   1.000  C
  H103     1.0000 0.99020  0.77860  0.04860  Biso   1.000  H
  C142     1.0000 0.93495  0.65400  0.98978  Biso   1.000  C
  H104     1.0000 0.92870  0.60510  0.95850  Biso   1.000  H
  C143     1.0000 0.91546  0.68230  0.02635  Biso   1.000  C
  H105     1.0000 0.89640  0.65400  0.01980  Biso   1.000  H
  C144     1.0000 0.95311  0.79000  0.08224  Biso   1.000  C
  H106     1.0000 0.96020  0.83590  0.11390  Biso   1.000  H
  C145     1.0000 0.92413  0.75420  0.07393  Biso   1.000  C
  C146     1.0000 0.91277  0.88200  0.15029  Biso   1.000  C
  H107     1.0000 0.92270  0.94900  0.13270  Biso   1.000  H
  H108     1.0000 0.92630  0.84510  0.17950  Biso   1.000  H
  C147     1.0000 0.87332  0.83690  0.21165  Biso   1.000  C
  H109     1.0000 0.86500  0.77060  0.18730  Biso   1.000  H
  H110     1.0000 0.88760  0.80110  0.23990  Biso   1.000  H
  C148     1.0000 0.88721  0.93480  0.17711  Biso   1.000  C
  C149     1.0000 0.86353  0.97900  0.13220  Biso   1.000  C
  H111     1.0000 0.85730  0.90990  0.10750  Biso   1.000  H
  H112     1.0000 0.84690  0.00740  0.15050  Biso   1.000  H
  C150     1.0000 0.82321  0.66320  0.32796  Biso   1.000  C
  H113     1.0000 0.82500  0.57830  0.33540  Biso   1.000  H
  C151     1.0000 0.83674  0.83730  0.27492  Biso   1.000  C
  C152     1.0000 0.80325  0.84630  0.34454  Biso   1.000  C
  H114     1.0000 0.79060  0.89390  0.36380  Biso   1.000  H
  C153     1.0000 0.83917  0.71200  0.28682  Biso   1.000  C
  H115     1.0000 0.85120  0.66130  0.26770  Biso   1.000  H
  C154     1.0000 0.81787  0.90660  0.30448  Biso   1.000  C
  H116     1.0000 0.81520  0.99140  0.29750  Biso   1.000  H
  C155     1.0000 0.84347  0.28730  0.99115  Biso   1.000  C
  H117     1.0000 0.85030  0.35060  0.96920  Biso   1.000  H
  C156     1.0000 0.85394  0.13330  0.06223  Biso   1.000  C
  C157     1.0000 0.86295  0.22690  0.02961  Biso   1.000  C
  H118     1.0000 0.88240  0.25040  0.03330  Biso   1.000  H
  C158     1.0000 0.82533  0.10070  0.05498  Biso   1.000  C
  H119     1.0000 0.81820  0.03640  0.07590  Biso   1.000  H
  C159     1.0000 0.80746  0.16600  0.01570  Biso   1.000  C
  H120     1.0000 0.78800  0.14260  0.01090  Biso   1.000  H
  Co5      1.0000 0.99146  0.33105  0.43089  Biso   1.000  Co
  Co6      1.0000 0.28510  0.15164  0.42531  Biso   1.000  Co
  N9       1.0000 0.96267  0.69150  0.99525  Biso   1.000  N
  N10      1.0000 0.81526  0.25940  0.98395  Biso   1.000  N
  N11      1.0000 0.96574  0.22260  0.37209  Biso   1.000  N
  N12      1.0000 0.80559  0.72830  0.35772  Biso   1.000  N
  O29      1.0000 0.25185  0.29807  0.41831  Biso   1.000  O
  O30      1.0000 0.24628  0.13046  0.36585  Biso   1.000  O
  O31      1.0000 0.02237  0.37051  0.37707  Biso   1.000  O
  O32      1.0000 0.01111  0.55155  0.33579  Biso   1.000  O
  O33      1.0000 0.01900  0.18032  0.45697  Biso   1.000  O
  O34      1.0000 0.02868  0.35876  0.50030  Biso   1.000  O
  O35      1.0000 0.19182  0.50827  0.58136  Biso   1.000  O
  O36      1.0000 0.20181  0.61910  0.50707  Biso   1.000  O
  O37      1.0000 0.12382  0.00029  0.62674  Biso   1.000  O
  O38      1.0000 0.13676  0.43980  0.26075  Biso   1.000  O
  O39      1.0000 0.91858  0.99262  0.25778  Biso   1.000  O
  O40      1.0000 0.87379  0.07824  0.09928  Biso   1.000  O
  O41      1.0000 0.90387  0.78881  0.10811  Biso   1.000  O
  O42      1.0000 0.85130  0.89930  0.23817  Biso   1.000  O
  C160     1.0000 0.53464  0.74580  0.49238  Biso   1.000  C
  C161     1.0000 0.56031  0.68600  0.52559  Biso   1.000  C
  C162     1.0000 0.59749  0.68170  0.60282  Biso   1.000  C
  H121     1.0000 0.60780  0.72080  0.63360  Biso   1.000  H
  C163     1.0000 0.60372  0.56170  0.58893  Biso   1.000  C
  C164     1.0000 0.56763  0.56570  0.51098  Biso   1.000  C
  H122     1.0000 0.55760  0.52700  0.47970  Biso   1.000  H
  C165     1.0000 0.58975  0.50320  0.54283  Biso   1.000  C
  H123     1.0000 0.59500  0.42300  0.53300  Biso   1.000  H
  C166     1.0000 0.57558  0.74410  0.57023  Biso   1.000  C
  H124     1.0000 0.57130  0.82610  0.57880  Biso   1.000  H
  C167     1.0000 0.67133  0.20840  0.56969  Biso   1.000  C
  C168     1.0000 0.63849  0.39960  0.60500  Biso   1.000  C
  C169     1.0000 0.65677  0.42060  0.56530  Biso   1.000  C
  H125     1.0000 0.65850  0.50040  0.55080  Biso   1.000  H
  C170     1.0000 0.63610  0.28690  0.62834  Biso   1.000  C
  H126     1.0000 0.62350  0.27350  0.65580  Biso   1.000  H
  C171     1.0000 0.65299  0.19020  0.61039  Biso   1.000  C
  H127     1.0000 0.65170  0.11160  0.62650  Biso   1.000  H
  C172     1.0000 0.67274  0.32510  0.54632  Biso   1.000  C
  H128     1.0000 0.68460  0.33910  0.51760  Biso   1.000  H
  C173     1.0000 0.68973  0.10340  0.55113  Biso   1.000  C
  C174     1.0000 0.73768  0.73740  0.37988  Biso   1.000  C
  C175     1.0000 0.71044  0.78950  0.34996  Biso   1.000  C
  C176     1.0000 0.69517  0.72360  0.30698  Biso   1.000  C
  H129     1.0000 0.70160  0.64510  0.29730  Biso   1.000  H
  C177     1.0000 0.70048  0.90220  0.36419  Biso   1.000  C
  H130     1.0000 0.71060  0.94670  0.39360  Biso   1.000  H
  C178     1.0000 0.66086  0.88840  0.29298  Biso   1.000  C
  C179     1.0000 0.67028  0.77300  0.27788  Biso   1.000  C
  H131     1.0000 0.66010  0.72850  0.24860  Biso   1.000  H
  C180     1.0000 0.67515  0.95400  0.33565  Biso   1.000  C
  H132     1.0000 0.66840  0.03160  0.34590  Biso   1.000  H
  C181     1.0000 0.56316  0.02710  0.27820  Biso   1.000  C
  H133     1.0000 0.54890  0.07750  0.25970  Biso   1.000  H
  C182     1.0000 0.55714  0.96100  0.32581  Biso   1.000  C
  C183     1.0000 0.60625  0.88520  0.33420  Biso   1.000  C
  H134     1.0000 0.62100  0.83940  0.35410  Biso   1.000  H
  C184     1.0000 0.61142  0.94750  0.28616  Biso   1.000  C
  C185     1.0000 0.52777  0.96330  0.34753  Biso   1.000  C
  C186     1.0000 0.58998  0.01970  0.25759  Biso   1.000  C
  H135     1.0000 0.59350  0.06270  0.22490  Biso   1.000  H
  C187     1.0000 0.57906  0.89000  0.35334  Biso   1.000  C
  H136     1.0000 0.57550  0.84470  0.38530  Biso   1.000  H
  C188     1.0000 0.43295  0.57330  0.29296  Biso   1.000  C
  C189     1.0000 0.44857  0.76920  0.32964  Biso   1.000  C
  H137     1.0000 0.44750  0.85550  0.32650  Biso   1.000  H
  C190     1.0000 0.43217  0.69980  0.28971  Biso   1.000  C
  H138     1.0000 0.42060  0.73900  0.26060  Biso   1.000  H
  C191     1.0000 0.46616  0.60090  0.37519  Biso   1.000  C
  H139     1.0000 0.47740  0.56460  0.40560  Biso   1.000  H
  C192     1.0000 0.45111  0.52270  0.33658  Biso   1.000  C
  H140     1.0000 0.45320  0.43670  0.33990  Biso   1.000  H
  C193     1.0000 0.39865  0.54270  0.21372  Biso   1.000  C
  H141     1.0000 0.40840  0.60230  0.19140  Biso   1.000  H
  H142     1.0000 0.38280  0.58470  0.22970  Biso   1.000  H
  C194     1.0000 0.47078  0.25540  0.04235  Biso   1.000  C
  H143     1.0000 0.49020  0.27860  0.04860  Biso   1.000  H
  C195     1.0000 0.43495  0.15400  0.98978  Biso   1.000  C
  H144     1.0000 0.42870  0.10510  0.95850  Biso   1.000  H
  C196     1.0000 0.41546  0.18230  0.02635  Biso   1.000  C
  H145     1.0000 0.39640  0.15400  0.01980  Biso   1.000  H
  C197     1.0000 0.45311  0.29000  0.08224  Biso   1.000  C
  H146     1.0000 0.46020  0.33590  0.11390  Biso   1.000  H
  C198     1.0000 0.42413  0.25420  0.07393  Biso   1.000  C
  C199     1.0000 0.41277  0.38200  0.15029  Biso   1.000  C
  H147     1.0000 0.42270  0.44900  0.13270  Biso   1.000  H
  H148     1.0000 0.42630  0.34510  0.17950  Biso   1.000  H
  C200     1.0000 0.37332  0.33690  0.21165  Biso   1.000  C
  H149     1.0000 0.36500  0.27060  0.18730  Biso   1.000  H
  H150     1.0000 0.38760  0.30110  0.23990  Biso   1.000  H
  C201     1.0000 0.38721  0.43480  0.17711  Biso   1.000  C
  C202     1.0000 0.36353  0.47900  0.13220  Biso   1.000  C
  H151     1.0000 0.35730  0.40990  0.10750  Biso   1.000  H
  H152     1.0000 0.34690  0.50740  0.15050  Biso   1.000  H
  C203     1.0000 0.32321  0.16320  0.32796  Biso   1.000  C
  H153     1.0000 0.32500  0.07830  0.33540  Biso   1.000  H
  C204     1.0000 0.33674  0.33730  0.27492  Biso   1.000  C
  C205     1.0000 0.30325  0.34630  0.34454  Biso   1.000  C
  H154     1.0000 0.29060  0.39390  0.36380  Biso   1.000  H
  C206     1.0000 0.33917  0.21200  0.28682  Biso   1.000  C
  H155     1.0000 0.35120  0.16130  0.26770  Biso   1.000  H
  C207     1.0000 0.31787  0.40660  0.30448  Biso   1.000  C
  H156     1.0000 0.31520  0.49140  0.29750  Biso   1.000  H
  C208     1.0000 0.34347  0.78730  0.99115  Biso   1.000  C
  H157     1.0000 0.35030  0.85060  0.96920  Biso   1.000  H
  C209     1.0000 0.35394  0.63330  0.06223  Biso   1.000  C
  C210     1.0000 0.36295  0.72690  0.02961  Biso   1.000  C
  H158     1.0000 0.38240  0.75040  0.03330  Biso   1.000  H
  C211     1.0000 0.32533  0.60070  0.05498  Biso   1.000  C
  H159     1.0000 0.31820  0.53640  0.07590  Biso   1.000  H
  C212     1.0000 0.30746  0.66600  0.01570  Biso   1.000  C
  H160     1.0000 0.28800  0.64260  0.01090  Biso   1.000  H
  Co7      1.0000 0.49146  0.83105  0.43089  Biso   1.000  Co
  Co8      1.0000 0.78510  0.65164  0.42531  Biso   1.000  Co
  N13      1.0000 0.46267  0.19150  0.99525  Biso   1.000  N
  N14      1.0000 0.31526  0.75940  0.98395  Biso   1.000  N
  N15      1.0000 0.46574  0.72260  0.37209  Biso   1.000  N
  N16      1.0000 0.30559  0.22830  0.35772  Biso   1.000  N
  O43      1.0000 0.75185  0.79807  0.41831  Biso   1.000  O
  O44      1.0000 0.74628  0.63046  0.36585  Biso   1.000  O
  O45      1.0000 0.52237  0.87051  0.37707  Biso   1.000  O
  O46      1.0000 0.51111  0.05155  0.33579  Biso   1.000  O
  O47      1.0000 0.51900  0.68032  0.45697  Biso   1.000  O
  O48      1.0000 0.52868  0.85876  0.50030  Biso   1.000  O
  O49      1.0000 0.69182  0.00827  0.58136  Biso   1.000  O
  O50      1.0000 0.70181  0.11910  0.50707  Biso   1.000  O
  O51      1.0000 0.62382  0.50029  0.62674  Biso   1.000  O
  O52      1.0000 0.63676  0.93980  0.26075  Biso   1.000  O
  O53      1.0000 0.41858  0.49262  0.25778  Biso   1.000  O
  O54      1.0000 0.37379  0.57824  0.09928  Biso   1.000  O
  O55      1.0000 0.40387  0.28881  0.10811  Biso   1.000  O
  O56      1.0000 0.35130  0.39930  0.23817  Biso   1.000  O
  C213     1.0000 0.03464  0.75420  0.99238  Biso   1.000  C
  C214     1.0000 0.06031  0.81400  0.02559  Biso   1.000  C
  C215     1.0000 0.09749  0.81830  0.10282  Biso   1.000  C
  H161     1.0000 0.10780  0.77920  0.13360  Biso   1.000  H
  C216     1.0000 0.10372  0.93830  0.08893  Biso   1.000  C
  C217     1.0000 0.06763  0.93430  0.01098  Biso   1.000  C
  H162     1.0000 0.05760  0.97300  0.97970  Biso   1.000  H
  C218     1.0000 0.08975  0.99680  0.04283  Biso   1.000  C
  H163     1.0000 0.09500  0.07700  0.03300  Biso   1.000  H
  C219     1.0000 0.07558  0.75590  0.07023  Biso   1.000  C
  H164     1.0000 0.07130  0.67390  0.07880  Biso   1.000  H
  C220     1.0000 0.17133  0.29160  0.06969  Biso   1.000  C
  C221     1.0000 0.13849  0.10040  0.10500  Biso   1.000  C
  C222     1.0000 0.15677  0.07940  0.06530  Biso   1.000  C
  H165     1.0000 0.15850  0.99960  0.05080  Biso   1.000  H
  C223     1.0000 0.13610  0.21310  0.12834  Biso   1.000  C
  H166     1.0000 0.12350  0.22650  0.15580  Biso   1.000  H
  C224     1.0000 0.15299  0.30980  0.11039  Biso   1.000  C
  H167     1.0000 0.15170  0.38840  0.12650  Biso   1.000  H
  C225     1.0000 0.17274  0.17490  0.04632  Biso   1.000  C
  H168     1.0000 0.18460  0.16090  0.01760  Biso   1.000  H
  C226     1.0000 0.18973  0.39660  0.05113  Biso   1.000  C
  C227     1.0000 0.23768  0.76260  0.87988  Biso   1.000  C
  C228     1.0000 0.21044  0.71050  0.84996  Biso   1.000  C
  C229     1.0000 0.19517  0.77640  0.80698  Biso   1.000  C
  H169     1.0000 0.20160  0.85490  0.79730  Biso   1.000  H
  C230     1.0000 0.20048  0.59780  0.86419  Biso   1.000  C
  H170     1.0000 0.21060  0.55330  0.89360  Biso   1.000  H
  C231     1.0000 0.16086  0.61160  0.79298  Biso   1.000  C
  C232     1.0000 0.17028  0.72700  0.77788  Biso   1.000  C
  H171     1.0000 0.16010  0.77150  0.74860  Biso   1.000  H
  C233     1.0000 0.17515  0.54600  0.83565  Biso   1.000  C
  H172     1.0000 0.16840  0.46840  0.84590  Biso   1.000  H
  C234     1.0000 0.06316  0.47290  0.77820  Biso   1.000  C
  H173     1.0000 0.04890  0.42250  0.75970  Biso   1.000  H
  C235     1.0000 0.05714  0.53900  0.82581  Biso   1.000  C
  C236     1.0000 0.10625  0.61480  0.83420  Biso   1.000  C
  H174     1.0000 0.12100  0.66060  0.85410  Biso   1.000  H
  C237     1.0000 0.11142  0.55250  0.78616  Biso   1.000  C
  C238     1.0000 0.02777  0.53670  0.84753  Biso   1.000  C
  C239     1.0000 0.08998  0.48030  0.75759  Biso   1.000  C
  H175     1.0000 0.09350  0.43730  0.72490  Biso   1.000  H
  C240     1.0000 0.07906  0.61000  0.85334  Biso   1.000  C
  H176     1.0000 0.07550  0.65530  0.88530  Biso   1.000  H
  C241     1.0000 0.93295  0.92670  0.79296  Biso   1.000  C
  C242     1.0000 0.94857  0.73080  0.82964  Biso   1.000  C
  H177     1.0000 0.94750  0.64450  0.82650  Biso   1.000  H
  C243     1.0000 0.93217  0.80020  0.78971  Biso   1.000  C
  H178     1.0000 0.92060  0.76100  0.76060  Biso   1.000  H
  C244     1.0000 0.96616  0.89910  0.87519  Biso   1.000  C
  H179     1.0000 0.97740  0.93540  0.90560  Biso   1.000  H
  C245     1.0000 0.95111  0.97730  0.83658  Biso   1.000  C
  H180     1.0000 0.95320  0.06330  0.83990  Biso   1.000  H
  C246     1.0000 0.89865  0.95730  0.71372  Biso   1.000  C
  H181     1.0000 0.90840  0.89770  0.69140  Biso   1.000  H
  H182     1.0000 0.88280  0.91530  0.72970  Biso   1.000  H
  C247     1.0000 0.97078  0.24460  0.54235  Biso   1.000  C
  H183     1.0000 0.99020  0.22140  0.54860  Biso   1.000  H
  C248     1.0000 0.93495  0.34600  0.48978  Biso   1.000  C
  H184     1.0000 0.92870  0.39490  0.45850  Biso   1.000  H
  C249     1.0000 0.91546  0.31770  0.52635  Biso   1.000  C
  H185     1.0000 0.89640  0.34600  0.51980  Biso   1.000  H
  C250     1.0000 0.95311  0.21000  0.58224  Biso   1.000  C
  H186     1.0000 0.96020  0.16410  0.61390  Biso   1.000  H
  C251     1.0000 0.92413  0.24580  0.57393  Biso   1.000  C
  C252     1.0000 0.91277  0.11800  0.65029  Biso   1.000  C
  H187     1.0000 0.92270  0.05100  0.63270  Biso   1.000  H
  H188     1.0000 0.92630  0.15490  0.67950  Biso   1.000  H
  C253     1.0000 0.87332  0.16310  0.71165  Biso   1.000  C
  H189     1.0000 0.86500  0.22940  0.68730  Biso   1.000  H
  H190     1.0000 0.88760  0.19890  0.73990  Biso   1.000  H
  C254     1.0000 0.88721  0.06520  0.67711  Biso   1.000  C
  C255     1.0000 0.86353  0.02100  0.63220  Biso   1.000  C
  H191     1.0000 0.85730  0.09010  0.60750  Biso   1.000  H
  H192     1.0000 0.84690  0.99260  0.65050  Biso   1.000  H
  C256     1.0000 0.82321  0.33680  0.82796  Biso   1.000  C
  H193     1.0000 0.82500  0.42170  0.83540  Biso   1.000  H
  C257     1.0000 0.83674  0.16270  0.77492  Biso   1.000  C
  C258     1.0000 0.80325  0.15370  0.84454  Biso   1.000  C
  H194     1.0000 0.79060  0.10610  0.86380  Biso   1.000  H
  C259     1.0000 0.83917  0.28800  0.78682  Biso   1.000  C
  H195     1.0000 0.85120  0.33870  0.76770  Biso   1.000  H
  C260     1.0000 0.81787  0.09340  0.80448  Biso   1.000  C
  H196     1.0000 0.81520  0.00860  0.79750  Biso   1.000  H
  C261     1.0000 0.84347  0.71270  0.49115  Biso   1.000  C
  H197     1.0000 0.85030  0.64940  0.46920  Biso   1.000  H
  C262     1.0000 0.85394  0.86670  0.56223  Biso   1.000  C
  C263     1.0000 0.86295  0.77310  0.52961  Biso   1.000  C
  H198     1.0000 0.88240  0.74960  0.53330  Biso   1.000  H
  C264     1.0000 0.82533  0.89930  0.55498  Biso   1.000  C
  H199     1.0000 0.81820  0.96360  0.57590  Biso   1.000  H
  C265     1.0000 0.80746  0.83400  0.51570  Biso   1.000  C
  H200     1.0000 0.78800  0.85740  0.51090  Biso   1.000  H
  Co9      1.0000 0.99146  0.66895  0.93089  Biso   1.000  Co
  Co10     1.0000 0.28510  0.84836  0.92531  Biso   1.000  Co
  N17      1.0000 0.96267  0.30850  0.49525  Biso   1.000  N
  N18      1.0000 0.81526  0.74060  0.48395  Biso   1.000  N
  N19      1.0000 0.96574  0.77740  0.87209  Biso   1.000  N
  N20      1.0000 0.80559  0.27170  0.85772  Biso   1.000  N
  O57      1.0000 0.25185  0.70193  0.91831  Biso   1.000  O
  O58      1.0000 0.24628  0.86954  0.86585  Biso   1.000  O
  O59      1.0000 0.02237  0.62949  0.87707  Biso   1.000  O
  O60      1.0000 0.01111  0.44845  0.83579  Biso   1.000  O
  O61      1.0000 0.01900  0.81968  0.95697  Biso   1.000  O
  O62      1.0000 0.02868  0.64124  0.00030  Biso   1.000  O
  O63      1.0000 0.19182  0.49173  0.08136  Biso   1.000  O
  O64      1.0000 0.20181  0.38090  0.00707  Biso   1.000  O
  O65      1.0000 0.12382  0.99971  0.12674  Biso   1.000  O
  O66      1.0000 0.13676  0.56020  0.76075  Biso   1.000  O
  O67      1.0000 0.91858  0.00738  0.75778  Biso   1.000  O
  O68      1.0000 0.87379  0.92176  0.59928  Biso   1.000  O
  O69      1.0000 0.90387  0.21119  0.60811  Biso   1.000  O
  O70      1.0000 0.85130  0.10070  0.73817  Biso   1.000  O
  C266     1.0000 0.53464  0.25420  0.99238  Biso   1.000  C
  C267     1.0000 0.56031  0.31400  0.02559  Biso   1.000  C
  C268     1.0000 0.59749  0.31830  0.10282  Biso   1.000  C
  H201     1.0000 0.60780  0.27920  0.13360  Biso   1.000  H
  C269     1.0000 0.60372  0.43830  0.08893  Biso   1.000  C
  C270     1.0000 0.56763  0.43430  0.01098  Biso   1.000  C
  H202     1.0000 0.55760  0.47300  0.97970  Biso   1.000  H
  C271     1.0000 0.58975  0.49680  0.04283  Biso   1.000  C
  H203     1.0000 0.59500  0.57700  0.03300  Biso   1.000  H
  C272     1.0000 0.57558  0.25590  0.07023  Biso   1.000  C
  H204     1.0000 0.57130  0.17390  0.07880  Biso   1.000  H
  C273     1.0000 0.67133  0.79160  0.06969  Biso   1.000  C
  C274     1.0000 0.63849  0.60040  0.10500  Biso   1.000  C
  C275     1.0000 0.65677  0.57940  0.06530  Biso   1.000  C
  H205     1.0000 0.65850  0.49960  0.05080  Biso   1.000  H
  C276     1.0000 0.63610  0.71310  0.12834  Biso   1.000  C
  H206     1.0000 0.62350  0.72650  0.15580  Biso   1.000  H
  C277     1.0000 0.65299  0.80980  0.11039  Biso   1.000  C
  H207     1.0000 0.65170  0.88840  0.12650  Biso   1.000  H
  C278     1.0000 0.67274  0.67490  0.04632  Biso   1.000  C
  H208     1.0000 0.68460  0.66090  0.01760  Biso   1.000  H
  C279     1.0000 0.68973  0.89660  0.05113  Biso   1.000  C
  C280     1.0000 0.73768  0.26260  0.87988  Biso   1.000  C
  C281     1.0000 0.71044  0.21050  0.84996  Biso   1.000  C
  C282     1.0000 0.69517  0.27640  0.80698  Biso   1.000  C
  H209     1.0000 0.70160  0.35490  0.79730  Biso   1.000  H
  C283     1.0000 0.70048  0.09780  0.86419  Biso   1.000  C
  H210     1.0000 0.71060  0.05330  0.89360  Biso   1.000  H
  C284     1.0000 0.66086  0.11160  0.79298  Biso   1.000  C
  C285     1.0000 0.67028  0.22700  0.77788  Biso   1.000  C
  H211     1.0000 0.66010  0.27150  0.74860  Biso   1.000  H
  C286     1.0000 0.67515  0.04600  0.83565  Biso   1.000  C
  H212     1.0000 0.66840  0.96840  0.84590  Biso   1.000  H
  C287     1.0000 0.56316  0.97290  0.77820  Biso   1.000  C
  H213     1.0000 0.54890  0.92250  0.75970  Biso   1.000  H
  C288     1.0000 0.55714  0.03900  0.82581  Biso   1.000  C
  C289     1.0000 0.60625  0.11480  0.83420  Biso   1.000  C
  H214     1.0000 0.62100  0.16060  0.85410  Biso   1.000  H
  C290     1.0000 0.61142  0.05250  0.78616  Biso   1.000  C
  C291     1.0000 0.52777  0.03670  0.84753  Biso   1.000  C
  C292     1.0000 0.58998  0.98030  0.75759  Biso   1.000  C
  H215     1.0000 0.59350  0.93730  0.72490  Biso   1.000  H
  C293     1.0000 0.57906  0.11000  0.85334  Biso   1.000  C
  H216     1.0000 0.57550  0.15530  0.88530  Biso   1.000  H
  C294     1.0000 0.43295  0.42670  0.79296  Biso   1.000  C
  C295     1.0000 0.44857  0.23080  0.82964  Biso   1.000  C
  H217     1.0000 0.44750  0.14450  0.82650  Biso   1.000  H
  C296     1.0000 0.43217  0.30020  0.78971  Biso   1.000  C
  H218     1.0000 0.42060  0.26100  0.76060  Biso   1.000  H
  C297     1.0000 0.46616  0.39910  0.87519  Biso   1.000  C
  H219     1.0000 0.47740  0.43540  0.90560  Biso   1.000  H
  C298     1.0000 0.45111  0.47730  0.83658  Biso   1.000  C
  H220     1.0000 0.45320  0.56330  0.83990  Biso   1.000  H
  C299     1.0000 0.39865  0.45730  0.71372  Biso   1.000  C
  H221     1.0000 0.40840  0.39770  0.69140  Biso   1.000  H
  H222     1.0000 0.38280  0.41530  0.72970  Biso   1.000  H
  C300     1.0000 0.47078  0.74460  0.54235  Biso   1.000  C
  H223     1.0000 0.49020  0.72140  0.54860  Biso   1.000  H
  C301     1.0000 0.43495  0.84600  0.48978  Biso   1.000  C
  H224     1.0000 0.42870  0.89490  0.45850  Biso   1.000  H
  C302     1.0000 0.41546  0.81770  0.52635  Biso   1.000  C
  H225     1.0000 0.39640  0.84600  0.51980  Biso   1.000  H
  C303     1.0000 0.45311  0.71000  0.58224  Biso   1.000  C
  H226     1.0000 0.46020  0.66410  0.61390  Biso   1.000  H
  C304     1.0000 0.42413  0.74580  0.57393  Biso   1.000  C
  C305     1.0000 0.41277  0.61800  0.65029  Biso   1.000  C
  H227     1.0000 0.42270  0.55100  0.63270  Biso   1.000  H
  H228     1.0000 0.42630  0.65490  0.67950  Biso   1.000  H
  C306     1.0000 0.37332  0.66310  0.71165  Biso   1.000  C
  H229     1.0000 0.36500  0.72940  0.68730  Biso   1.000  H
  H230     1.0000 0.38760  0.69890  0.73990  Biso   1.000  H
  C307     1.0000 0.38721  0.56520  0.67711  Biso   1.000  C
  C308     1.0000 0.36353  0.52100  0.63220  Biso   1.000  C
  H231     1.0000 0.35730  0.59010  0.60750  Biso   1.000  H
  H232     1.0000 0.34690  0.49260  0.65050  Biso   1.000  H
  C309     1.0000 0.32321  0.83680  0.82796  Biso   1.000  C
  H233     1.0000 0.32500  0.92170  0.83540  Biso   1.000  H
  C310     1.0000 0.33674  0.66270  0.77492  Biso   1.000  C
  C311     1.0000 0.30325  0.65370  0.84454  Biso   1.000  C
  H234     1.0000 0.29060  0.60610  0.86380  Biso   1.000  H
  C312     1.0000 0.33917  0.78800  0.78682  Biso   1.000  C
  H235     1.0000 0.35120  0.83870  0.76770  Biso   1.000  H
  C313     1.0000 0.31787  0.59340  0.80448  Biso   1.000  C
  H236     1.0000 0.31520  0.50860  0.79750  Biso   1.000  H
  C314     1.0000 0.34347  0.21270  0.49115  Biso   1.000  C
  H237     1.0000 0.35030  0.14940  0.46920  Biso   1.000  H
  C315     1.0000 0.35394  0.36670  0.56223  Biso   1.000  C
  C316     1.0000 0.36295  0.27310  0.52961  Biso   1.000  C
  H238     1.0000 0.38240  0.24960  0.53330  Biso   1.000  H
  C317     1.0000 0.32533  0.39930  0.55498  Biso   1.000  C
  H239     1.0000 0.31820  0.46360  0.57590  Biso   1.000  H
  C318     1.0000 0.30746  0.33400  0.51570  Biso   1.000  C
  H240     1.0000 0.28800  0.35740  0.51090  Biso   1.000  H
  Co11     1.0000 0.49146  0.16895  0.93089  Biso   1.000  Co
  Co12     1.0000 0.78510  0.34836  0.92531  Biso   1.000  Co
  N21      1.0000 0.46267  0.80850  0.49525  Biso   1.000  N
  N22      1.0000 0.31526  0.24060  0.48395  Biso   1.000  N
  N23      1.0000 0.46574  0.27740  0.87209  Biso   1.000  N
  N24      1.0000 0.30559  0.77170  0.85772  Biso   1.000  N
  O71      1.0000 0.75185  0.20193  0.91831  Biso   1.000  O
  O72      1.0000 0.74628  0.36954  0.86585  Biso   1.000  O
  O73      1.0000 0.52237  0.12949  0.87707  Biso   1.000  O
  O74      1.0000 0.51111  0.94845  0.83579  Biso   1.000  O
  O75      1.0000 0.51900  0.31968  0.95697  Biso   1.000  O
  O76      1.0000 0.52868  0.14124  0.00030  Biso   1.000  O
  O77      1.0000 0.69182  0.99173  0.08136  Biso   1.000  O
  O78      1.0000 0.70181  0.88090  0.00707  Biso   1.000  O
  O79      1.0000 0.62382  0.49971  0.12674  Biso   1.000  O
  O80      1.0000 0.63676  0.06020  0.76075  Biso   1.000  O
  O81      1.0000 0.41858  0.50738  0.75778  Biso   1.000  O
  O82      1.0000 0.37379  0.42176  0.59928  Biso   1.000  O
  O83      1.0000 0.40387  0.71119  0.60811  Biso   1.000  O
  O84      1.0000 0.35130  0.60070  0.73817  Biso   1.000  O
  C319     1.0000 0.96536  0.75420  0.50762  Biso   1.000  C
  C320     1.0000 0.93969  0.81400  0.47441  Biso   1.000  C
  C321     1.0000 0.90251  0.81830  0.39718  Biso   1.000  C
  H241     1.0000 0.89220  0.77920  0.36640  Biso   1.000  H
  C322     1.0000 0.89628  0.93830  0.41107  Biso   1.000  C
  C323     1.0000 0.93237  0.93430  0.48902  Biso   1.000  C
  H242     1.0000 0.94240  0.97300  0.52030  Biso   1.000  H
  C324     1.0000 0.91025  0.99680  0.45717  Biso   1.000  C
  H243     1.0000 0.90500  0.07700  0.46700  Biso   1.000  H
  C325     1.0000 0.92442  0.75590  0.42977  Biso   1.000  C
  H244     1.0000 0.92870  0.67390  0.42120  Biso   1.000  H
  C326     1.0000 0.82867  0.29160  0.43031  Biso   1.000  C
  C327     1.0000 0.86151  0.10040  0.39500  Biso   1.000  C
  C328     1.0000 0.84323  0.07940  0.43470  Biso   1.000  C
  H245     1.0000 0.84150  0.99960  0.44920  Biso   1.000  H
  C329     1.0000 0.86390  0.21310  0.37166  Biso   1.000  C
  H246     1.0000 0.87650  0.22650  0.34420  Biso   1.000  H
  C330     1.0000 0.84701  0.30980  0.38961  Biso   1.000  C
  H247     1.0000 0.84830  0.38840  0.37350  Biso   1.000  H
  C331     1.0000 0.82726  0.17490  0.45368  Biso   1.000  C
  H248     1.0000 0.81540  0.16090  0.48240  Biso   1.000  H
  C332     1.0000 0.81027  0.39660  0.44887  Biso   1.000  C
  C333     1.0000 0.76232  0.76260  0.62012  Biso   1.000  C
  C334     1.0000 0.78956  0.71050  0.65004  Biso   1.000  C
  C335     1.0000 0.80483  0.77640  0.69302  Biso   1.000  C
  H249     1.0000 0.79840  0.85490  0.70270  Biso   1.000  H
  C336     1.0000 0.79952  0.59780  0.63581  Biso   1.000  C
  H250     1.0000 0.78940  0.55330  0.60640  Biso   1.000  H
  C337     1.0000 0.83914  0.61160  0.70702  Biso   1.000  C
  C338     1.0000 0.82972  0.72700  0.72212  Biso   1.000  C
  H251     1.0000 0.83990  0.77150  0.75140  Biso   1.000  H
  C339     1.0000 0.82485  0.54600  0.66435  Biso   1.000  C
  H252     1.0000 0.83160  0.46840  0.65410  Biso   1.000  H
  C340     1.0000 0.93684  0.47290  0.72180  Biso   1.000  C
  H253     1.0000 0.95110  0.42250  0.74030  Biso   1.000  H
  C341     1.0000 0.94286  0.53900  0.67419  Biso   1.000  C
  C342     1.0000 0.89375  0.61480  0.66580  Biso   1.000  C
  H254     1.0000 0.87900  0.66060  0.64590  Biso   1.000  H
  C343     1.0000 0.88858  0.55250  0.71384  Biso   1.000  C
  C344     1.0000 0.97223  0.53670  0.65247  Biso   1.000  C
  C345     1.0000 0.91002  0.48030  0.74241  Biso   1.000  C
  H255     1.0000 0.90650  0.43730  0.77510  Biso   1.000  H
  C346     1.0000 0.92094  0.61000  0.64666  Biso   1.000  C
  H256     1.0000 0.92450  0.65530  0.61470  Biso   1.000  H
  C347     1.0000 0.06705  0.92670  0.70704  Biso   1.000  C
  C348     1.0000 0.05143  0.73080  0.67036  Biso   1.000  C
  H257     1.0000 0.05250  0.64450  0.67350  Biso   1.000  H
  C349     1.0000 0.06783  0.80020  0.71029  Biso   1.000  C
  H258     1.0000 0.07940  0.76100  0.73940  Biso   1.000  H
  C350     1.0000 0.03384  0.89910  0.62481  Biso   1.000  C
  H259     1.0000 0.02260  0.93540  0.59440  Biso   1.000  H
  C351     1.0000 0.04889  0.97730  0.66342  Biso   1.000  C
  H260     1.0000 0.04680  0.06330  0.66010  Biso   1.000  H
  C352     1.0000 0.10135  0.95730  0.78628  Biso   1.000  C
  H261     1.0000 0.09160  0.89770  0.80860  Biso   1.000  H
  H262     1.0000 0.11720  0.91530  0.77030  Biso   1.000  H
  C353     1.0000 0.02922  0.24460  0.95765  Biso   1.000  C
  H263     1.0000 0.00980  0.22140  0.95140  Biso   1.000  H
  C354     1.0000 0.06505  0.34600  0.01022  Biso   1.000  C
  H264     1.0000 0.07130  0.39490  0.04150  Biso   1.000  H
  C355     1.0000 0.08454  0.31770  0.97365  Biso   1.000  C
  H265     1.0000 0.10360  0.34600  0.98020  Biso   1.000  H
  C356     1.0000 0.04689  0.21000  0.91776  Biso   1.000  C
  H266     1.0000 0.03980  0.16410  0.88610  Biso   1.000  H
  C357     1.0000 0.07587  0.24580  0.92607  Biso   1.000  C
  C358     1.0000 0.08723  0.11800  0.84971  Biso   1.000  C
  H267     1.0000 0.07730  0.05100  0.86730  Biso   1.000  H
  H268     1.0000 0.07370  0.15490  0.82050  Biso   1.000  H
  C359     1.0000 0.12668  0.16310  0.78835  Biso   1.000  C
  H269     1.0000 0.13500  0.22940  0.81270  Biso   1.000  H
  H270     1.0000 0.11240  0.19890  0.76010  Biso   1.000  H
  C360     1.0000 0.11279  0.06520  0.82289  Biso   1.000  C
  C361     1.0000 0.13647  0.02100  0.86780  Biso   1.000  C
  H271     1.0000 0.14270  0.09010  0.89250  Biso   1.000  H
  H272     1.0000 0.15310  0.99260  0.84950  Biso   1.000  H
  C362     1.0000 0.17679  0.33680  0.67204  Biso   1.000  C
  H273     1.0000 0.17500  0.42170  0.66460  Biso   1.000  H
  C363     1.0000 0.16326  0.16270  0.72508  Biso   1.000  C
  C364     1.0000 0.19675  0.15370  0.65546  Biso   1.000  C
  H274     1.0000 0.20940  0.10610  0.63620  Biso   1.000  H
  C365     1.0000 0.16083  0.28800  0.71318  Biso   1.000  C
  H275     1.0000 0.14880  0.33870  0.73230  Biso   1.000  H
  C366     1.0000 0.18213  0.09340  0.69552  Biso   1.000  C
  H276     1.0000 0.18480  0.00860  0.70250  Biso   1.000  H
  C367     1.0000 0.15653  0.71270  0.00885  Biso   1.000  C
  H277     1.0000 0.14970  0.64940  0.03080  Biso   1.000  H
  C368     1.0000 0.14606  0.86670  0.93777  Biso   1.000  C
  C369     1.0000 0.13705  0.77310  0.97039  Biso   1.000  C
  H278     1.0000 0.11760  0.74960  0.96670  Biso   1.000  H
  C370     1.0000 0.17467  0.89930  0.94502  Biso   1.000  C
  H279     1.0000 0.18180  0.96360  0.92410  Biso   1.000  H
  C371     1.0000 0.19254  0.83400  0.98430  Biso   1.000  C
  H280     1.0000 0.21200  0.85740  0.98910  Biso   1.000  H
  Co13     1.0000 0.00854  0.66895  0.56911  Biso   1.000  Co
  Co14     1.0000 0.71490  0.84836  0.57469  Biso   1.000  Co
  N25      1.0000 0.03733  0.30850  0.00475  Biso   1.000  N
  N26      1.0000 0.18474  0.74060  0.01605  Biso   1.000  N
  N27      1.0000 0.03426  0.77740  0.62791  Biso   1.000  N
  N28      1.0000 0.19441  0.27170  0.64228  Biso   1.000  N
  O85      1.0000 0.74815  0.70193  0.58169  Biso   1.000  O
  O86      1.0000 0.75372  0.86954  0.63415  Biso   1.000  O
  O87      1.0000 0.97763  0.62949  0.62293  Biso   1.000  O
  O88      1.0000 0.98889  0.44845  0.66421  Biso   1.000  O
  O89      1.0000 0.98100  0.81968  0.54303  Biso   1.000  O
  O90      1.0000 0.97132  0.64124  0.49970  Biso   1.000  O
  O91      1.0000 0.80818  0.49173  0.41864  Biso   1.000  O
  O92      1.0000 0.79819  0.38090  0.49293  Biso   1.000  O
  O93      1.0000 0.87618  0.99971  0.37326  Biso   1.000  O
  O94      1.0000 0.86324  0.56020  0.73925  Biso   1.000  O
  O95      1.0000 0.08142  0.00738  0.74222  Biso   1.000  O
  O96      1.0000 0.12621  0.92176  0.90072  Biso   1.000  O
  O97      1.0000 0.09613  0.21119  0.89189  Biso   1.000  O
  O98      1.0000 0.14870  0.10070  0.76183  Biso   1.000  O
  C372     1.0000 0.46536  0.25420  0.50762  Biso   1.000  C
  C373     1.0000 0.43969  0.31400  0.47441  Biso   1.000  C
  C374     1.0000 0.40251  0.31830  0.39718  Biso   1.000  C
  H281     1.0000 0.39220  0.27920  0.36640  Biso   1.000  H
  C375     1.0000 0.39628  0.43830  0.41107  Biso   1.000  C
  C376     1.0000 0.43237  0.43430  0.48902  Biso   1.000  C
  H282     1.0000 0.44240  0.47300  0.52030  Biso   1.000  H
  C377     1.0000 0.41025  0.49680  0.45717  Biso   1.000  C
  H283     1.0000 0.40500  0.57700  0.46700  Biso   1.000  H
  C378     1.0000 0.42442  0.25590  0.42977  Biso   1.000  C
  H284     1.0000 0.42870  0.17390  0.42120  Biso   1.000  H
  C379     1.0000 0.32867  0.79160  0.43031  Biso   1.000  C
  C380     1.0000 0.36151  0.60040  0.39500  Biso   1.000  C
  C381     1.0000 0.34323  0.57940  0.43470  Biso   1.000  C
  H285     1.0000 0.34150  0.49960  0.44920  Biso   1.000  H
  C382     1.0000 0.36390  0.71310  0.37166  Biso   1.000  C
  H286     1.0000 0.37650  0.72650  0.34420  Biso   1.000  H
  C383     1.0000 0.34701  0.80980  0.38961  Biso   1.000  C
  H287     1.0000 0.34830  0.88840  0.37350  Biso   1.000  H
  C384     1.0000 0.32726  0.67490  0.45368  Biso   1.000  C
  H288     1.0000 0.31540  0.66090  0.48240  Biso   1.000  H
  C385     1.0000 0.31027  0.89660  0.44887  Biso   1.000  C
  C386     1.0000 0.26232  0.26260  0.62012  Biso   1.000  C
  C387     1.0000 0.28956  0.21050  0.65004  Biso   1.000  C
  C388     1.0000 0.30483  0.27640  0.69302  Biso   1.000  C
  H289     1.0000 0.29840  0.35490  0.70270  Biso   1.000  H
  C389     1.0000 0.29952  0.09780  0.63581  Biso   1.000  C
  H290     1.0000 0.28940  0.05330  0.60640  Biso   1.000  H
  C390     1.0000 0.33914  0.11160  0.70702  Biso   1.000  C
  C391     1.0000 0.32972  0.22700  0.72212  Biso   1.000  C
  H291     1.0000 0.33990  0.27150  0.75140  Biso   1.000  H
  C392     1.0000 0.32485  0.04600  0.66435  Biso   1.000  C
  H292     1.0000 0.33160  0.96840  0.65410  Biso   1.000  H
  C393     1.0000 0.43684  0.97290  0.72180  Biso   1.000  C
  H293     1.0000 0.45110  0.92250  0.74030  Biso   1.000  H
  C394     1.0000 0.44286  0.03900  0.67419  Biso   1.000  C
  C395     1.0000 0.39375  0.11480  0.66580  Biso   1.000  C
  H294     1.0000 0.37900  0.16060  0.64590  Biso   1.000  H
  C396     1.0000 0.38858  0.05250  0.71384  Biso   1.000  C
  C397     1.0000 0.47223  0.03670  0.65247  Biso   1.000  C
  C398     1.0000 0.41002  0.98030  0.74241  Biso   1.000  C
  H295     1.0000 0.40650  0.93730  0.77510  Biso   1.000  H
  C399     1.0000 0.42094  0.11000  0.64666  Biso   1.000  C
  H296     1.0000 0.42450  0.15530  0.61470  Biso   1.000  H
  C400     1.0000 0.56705  0.42670  0.70704  Biso   1.000  C
  C401     1.0000 0.55143  0.23080  0.67036  Biso   1.000  C
  H297     1.0000 0.55250  0.14450  0.67350  Biso   1.000  H
  C402     1.0000 0.56783  0.30020  0.71029  Biso   1.000  C
  H298     1.0000 0.57940  0.26100  0.73940  Biso   1.000  H
  C403     1.0000 0.53384  0.39910  0.62481  Biso   1.000  C
  H299     1.0000 0.52260  0.43540  0.59440  Biso   1.000  H
  C404     1.0000 0.54889  0.47730  0.66342  Biso   1.000  C
  H300     1.0000 0.54680  0.56330  0.66010  Biso   1.000  H
  C405     1.0000 0.60135  0.45730  0.78628  Biso   1.000  C
  H301     1.0000 0.59160  0.39770  0.80860  Biso   1.000  H
  H302     1.0000 0.61720  0.41530  0.77030  Biso   1.000  H
  C406     1.0000 0.52922  0.74460  0.95765  Biso   1.000  C
  H303     1.0000 0.50980  0.72140  0.95140  Biso   1.000  H
  C407     1.0000 0.56505  0.84600  0.01022  Biso   1.000  C
  H304     1.0000 0.57130  0.89490  0.04150  Biso   1.000  H
  C408     1.0000 0.58454  0.81770  0.97365  Biso   1.000  C
  H305     1.0000 0.60360  0.84600  0.98020  Biso   1.000  H
  C409     1.0000 0.54689  0.71000  0.91776  Biso   1.000  C
  H306     1.0000 0.53980  0.66410  0.88610  Biso   1.000  H
  C410     1.0000 0.57587  0.74580  0.92607  Biso   1.000  C
  C411     1.0000 0.58723  0.61800  0.84971  Biso   1.000  C
  H307     1.0000 0.57730  0.55100  0.86730  Biso   1.000  H
  H308     1.0000 0.57370  0.65490  0.82050  Biso   1.000  H
  C412     1.0000 0.62668  0.66310  0.78835  Biso   1.000  C
  H309     1.0000 0.63500  0.72940  0.81270  Biso   1.000  H
  H310     1.0000 0.61240  0.69890  0.76010  Biso   1.000  H
  C413     1.0000 0.61279  0.56520  0.82289  Biso   1.000  C
  C414     1.0000 0.63647  0.52100  0.86780  Biso   1.000  C
  H311     1.0000 0.64270  0.59010  0.89250  Biso   1.000  H
  H312     1.0000 0.65310  0.49260  0.84950  Biso   1.000  H
  C415     1.0000 0.67679  0.83680  0.67204  Biso   1.000  C
  H313     1.0000 0.67500  0.92170  0.66460  Biso   1.000  H
  C416     1.0000 0.66326  0.66270  0.72508  Biso   1.000  C
  C417     1.0000 0.69675  0.65370  0.65546  Biso   1.000  C
  H314     1.0000 0.70940  0.60610  0.63620  Biso   1.000  H
  C418     1.0000 0.66083  0.78800  0.71318  Biso   1.000  C
  H315     1.0000 0.64880  0.83870  0.73230  Biso   1.000  H
  C419     1.0000 0.68213  0.59340  0.69552  Biso   1.000  C
  H316     1.0000 0.68480  0.50860  0.70250  Biso   1.000  H
  C420     1.0000 0.65653  0.21270  0.00885  Biso   1.000  C
  H317     1.0000 0.64970  0.14940  0.03080  Biso   1.000  H
  C421     1.0000 0.64606  0.36670  0.93777  Biso   1.000  C
  C422     1.0000 0.63705  0.27310  0.97039  Biso   1.000  C
  H318     1.0000 0.61760  0.24960  0.96670  Biso   1.000  H
  C423     1.0000 0.67467  0.39930  0.94502  Biso   1.000  C
  H319     1.0000 0.68180  0.46360  0.92410  Biso   1.000  H
  C424     1.0000 0.69254  0.33400  0.98430  Biso   1.000  C
  H320     1.0000 0.71200  0.35740  0.98910  Biso   1.000  H
  Co15     1.0000 0.50854  0.16895  0.56911  Biso   1.000  Co
  Co16     1.0000 0.21490  0.34836  0.57469  Biso   1.000  Co
  N29      1.0000 0.53733  0.80850  0.00475  Biso   1.000  N
  N30      1.0000 0.68474  0.24060  0.01605  Biso   1.000  N
  N31      1.0000 0.53426  0.27740  0.62791  Biso   1.000  N
  N32      1.0000 0.69441  0.77170  0.64228  Biso   1.000  N
  O99      1.0000 0.24815  0.20193  0.58169  Biso   1.000  O
  O100     1.0000 0.25372  0.36954  0.63415  Biso   1.000  O
  O101     1.0000 0.47763  0.12949  0.62293  Biso   1.000  O
  O102     1.0000 0.48889  0.94845  0.66421  Biso   1.000  O
  O103     1.0000 0.48100  0.31968  0.54303  Biso   1.000  O
  O104     1.0000 0.47132  0.14124  0.49970  Biso   1.000  O
  O105     1.0000 0.30818  0.99173  0.41864  Biso   1.000  O
  O106     1.0000 0.29819  0.88090  0.49293  Biso   1.000  O
  O107     1.0000 0.37618  0.49971  0.37326  Biso   1.000  O
  O108     1.0000 0.36324  0.06020  0.73925  Biso   1.000  O
  O109     1.0000 0.58142  0.50738  0.74222  Biso   1.000  O
  O110     1.0000 0.62621  0.42176  0.90072  Biso   1.000  O
  O111     1.0000 0.59613  0.71119  0.89189  Biso   1.000  O
  O112     1.0000 0.64870  0.60070  0.76183  Biso   1.000  O
