data_image0
_cell_length_a       41.604
_cell_length_b       41.604
_cell_length_c       40.246
_cell_angle_alpha    90
_cell_angle_beta     90
_cell_angle_gamma    120

_symmetry_space_group_name_H-M    "P 1"
_symmetry_int_tables_number       1

loop_
  _symmetry_equiv_pos_as_xyz
  'x, y, z'

loop_
  _atom_site_label
  _atom_site_occupancy
  _atom_site_fract_x
  _atom_site_fract_y
  _atom_site_fract_z
  _atom_site_thermal_displace_type
  _atom_site_B_iso_or_equiv
  _atom_site_type_symbol
  Eu1      1.0000 0.62701  0.09120  0.78837  Biso   1.000  Eu
  In1      1.0000 0.86088  0.30441  0.13661  Biso   1.000  In
  O1       1.0000 0.65686  0.14908  0.77182  Biso   1.000  O
  O2       1.0000 0.61173  0.13110  0.80662  Biso   1.000  O
  O3       1.0000 0.61558  0.07164  0.83896  Biso   1.000  O
  O4       1.0000 0.67040  0.11149  0.82791  Biso   1.000  O
  O5       1.0000 0.62496  0.92422  0.11118  Biso   1.000  O
  O6       1.0000 0.57227  0.90914  0.08900  Biso   1.000  O
  O7       1.0000 0.59380  0.08110  0.74241  Biso   1.000  O
  O8       1.0000 0.56830  0.05378  0.78780  Biso   1.000  O
  O9       1.0000 0.84110  0.25520  0.11800  Biso   1.000  O
  O10      1.0000 0.82480  0.28360  0.08870  Biso   1.000  O
  O11      1.0000 0.33480  0.88940  0.51790  Biso   1.000  O
  O12      1.0000 0.38970  0.92940  0.50780  Biso   1.000  O
  O13      1.0000 0.24870  0.98870  0.78440  Biso   1.000  O
  O14      1.0000 0.24360  0.01440  0.74030  Biso   1.000  O
  C1       1.0000 0.63710  0.15560  0.79030  Biso   1.000  C
  C2       1.0000 0.64370  0.19229  0.79150  Biso   1.000  C
  C3       1.0000 0.62090  0.20040  0.80960  Biso   1.000  C
  H1       1.0000 0.60130  0.18220  0.82190  Biso   1.000  H
  C4       1.0000 0.62770  0.23630  0.80920  Biso   1.000  C
  H2       1.0000 0.61290  0.24230  0.82210  Biso   1.000  H
  C5       1.0000 0.65520  0.26340  0.79070  Biso   1.000  C
  C6       1.0000 0.67770  0.25400  0.77280  Biso   1.000  C
  H3       1.0000 0.69730  0.27210  0.76040  Biso   1.000  H
  C7       1.0000 0.67180  0.21890  0.77310  Biso   1.000  C
  H4       1.0000 0.68690  0.21290  0.76070  Biso   1.000  H
  C8       1.0000 0.66040  0.29830  0.79050  Biso   1.000  C
  C9       1.0000 0.63350  0.30480  0.79090  Biso   1.000  C
  H5       1.0000 0.60950  0.28460  0.79160  Biso   1.000  H
  C10      1.0000 0.64550  0.09080  0.84830  Biso   1.000  C
  C11      1.0000 0.65710  0.09460  0.88050  Biso   1.000  C
  C12      1.0000 0.69230  0.11780  0.89090  Biso   1.000  C
  H6       1.0000 0.71090  0.13190  0.87570  Biso   1.000  H
  C13      1.0000 0.70050  0.12030  0.92560  Biso   1.000  C
  H7       1.0000 0.72450  0.13590  0.93300  Biso   1.000  H
  C14      1.0000 0.67350  0.10010  0.94740  Biso   1.000  C
  C15      1.0000 0.63670  0.07720  0.93710  Biso   1.000  C
  H8       1.0000 0.61810  0.06380  0.95250  Biso   1.000  H
  C16      1.0000 0.62850  0.07490  0.90340  Biso   1.000  C
  H9       1.0000 0.60410  0.06040  0.89610  Biso   1.000  H
  C17      1.0000 0.68170  0.10030  0.98130  Biso   1.000  C
  C18      1.0000 0.70460  0.13030  0.99680  Biso   1.000  C
  H10      1.0000 0.71300  0.15290  0.98610  Biso   1.000  H
  C19      1.0000 0.71650  0.13000  0.02760  Biso   1.000  C
  C20      1.0000 0.69890  0.09940  0.04390  Biso   1.000  C
  H11      1.0000 0.70470  0.09960  0.06630  Biso   1.000  H
  C21      1.0000 0.67220  0.06690  0.03030  Biso   1.000  C
  C22      1.0000 0.66390  0.06820  0.99790  Biso   1.000  C
  H12      1.0000 0.64590  0.04690  0.98730  Biso   1.000  H
  C23      1.0000 0.65620  0.03250  0.04750  Biso   1.000  C
  C24      1.0000 0.67420  0.02380  0.06840  Biso   1.000  C
  H13      1.0000 0.69880  0.04140  0.07280  Biso   1.000  H
  C25      1.0000 0.65970  0.99120  0.08430  Biso   1.000  C
  H14      1.0000 0.67350  0.98540  0.09880  Biso   1.000  H
  C26      1.0000 0.62270  0.96670  0.07740  Biso   1.000  C
  C27      1.0000 0.60390  0.97470  0.05770  Biso   1.000  C
  H15      1.0000 0.57870  0.95800  0.05480  Biso   1.000  H
  C28      1.0000 0.61960  0.00630  0.04130  Biso   1.000  C
  H16      1.0000 0.60620  0.01110  0.02550  Biso   1.000  H
  C29      1.0000 0.60550  0.93110  0.09460  Biso   1.000  C
  C30      1.0000 0.74190  0.16160  0.04250  Biso   1.000  C
  C31      1.0000 0.74910  0.19660  0.03210  Biso   1.000  C
  H17      1.0000 0.73840  0.19930  0.01270  Biso   1.000  H
  C32      1.0000 0.77280  0.22790  0.05140  Biso   1.000  C
  H18      1.0000 0.77440  0.25060  0.04710  Biso   1.000  H
  C33      1.0000 0.79370  0.22520  0.07660  Biso   1.000  C
  C34      1.0000 0.78870  0.19030  0.08550  Biso   1.000  C
  H19      1.0000 0.80180  0.18800  0.10330  Biso   1.000  H
  C35      1.0000 0.76400  0.15900  0.06730  Biso   1.000  C
  H20      1.0000 0.76220  0.13620  0.07170  Biso   1.000  H
  C36      1.0000 0.82230  0.25730  0.09620  Biso   1.000  C
  C37      1.0000 0.56590  0.06040  0.75910  Biso   1.000  C
  C38      1.0000 0.53070  0.04270  0.74390  Biso   1.000  C
  C39      1.0000 0.49930  0.02270  0.76080  Biso   1.000  C
  H21      1.0000 0.50090  0.01970  0.78350  Biso   1.000  H
  C40      1.0000 0.46770  0.00780  0.74780  Biso   1.000  C
  H22      1.0000 0.44700  0.99500  0.76140  Biso   1.000  H
  C41      1.0000 0.46280  0.00980  0.71460  Biso   1.000  C
  C42      1.0000 0.49390  0.03140  0.69630  Biso   1.000  C
  H23      1.0000 0.49180  0.03550  0.67380  Biso   1.000  H
  C43      1.0000 0.52740  0.04690  0.71080  Biso   1.000  C
  H24      1.0000 0.54860  0.06060  0.69800  Biso   1.000  H
  C44      1.0000 0.42780  0.99410  0.69870  Biso   1.000  C
  C45      1.0000 0.39950  0.99780  0.71570  Biso   1.000  C
  H25      1.0000 0.40340  0.00890  0.73660  Biso   1.000  H
  C46      1.0000 0.36770  0.98440  0.69970  Biso   1.000  C
  C47      1.0000 0.36220  0.97080  0.67120  Biso   1.000  C
  H26      1.0000 0.33940  0.96340  0.66130  Biso   1.000  H
  C48      1.0000 0.38730  0.96600  0.65370  Biso   1.000  C
  C49      1.0000 0.42250  0.97920  0.66840  Biso   1.000  C
  H27      1.0000 0.44130  0.97750  0.65740  Biso   1.000  H
  C50      1.0000 0.38070  0.95000  0.62210  Biso   1.000  C
  C51      1.0000 0.34910  0.92710  0.61110  Biso   1.000  C
  H28      1.0000 0.32860  0.91950  0.62500  Biso   1.000  H
  C52      1.0000 0.34350  0.91340  0.58040  Biso   1.000  C
  H29      1.0000 0.32010  0.89400  0.57480  Biso   1.000  H
  C53      1.0000 0.36870  0.92560  0.55890  Biso   1.000  C
  C54      1.0000 0.40290  0.95270  0.56870  Biso   1.000  C
  H30      1.0000 0.42300  0.96250  0.55420  Biso   1.000  H
  C55      1.0000 0.40630  0.96440  0.60000  Biso   1.000  C
  H31      1.0000 0.42890  0.98460  0.60630  Biso   1.000  H
  C56      1.0000 0.36300  0.91350  0.52750  Biso   1.000  C
  C57      1.0000 0.32880  0.97760  0.74650  Biso   1.000  C
  H32      1.0000 0.34130  0.96790  0.75820  Biso   1.000  H
  C58      1.0000 0.33680  0.98700  0.71330  Biso   1.000  C
  C59      1.0000 0.31810  0.00070  0.69480  Biso   1.000  C
  H33      1.0000 0.32460  0.00790  0.67280  Biso   1.000  H
  C60      1.0000 0.28860  0.00330  0.71030  Biso   1.000  C
  H34      1.0000 0.27420  0.01020  0.69800  Biso   1.000  H
  C61      1.0000 0.28180  0.99530  0.74390  Biso   1.000  C
  C62      1.0000 0.30120  0.98280  0.76250  Biso   1.000  C
  H35      1.0000 0.29640  0.97790  0.78500  Biso   1.000  H
  C63      1.0000 0.25630  0.00030  0.75910  Biso   1.000  C
  Eu2      1.0000 0.29368  0.42453  0.12171  Biso   1.000  Eu
  In2      1.0000 0.52755  0.63774  0.46994  Biso   1.000  In
  O15      1.0000 0.32353  0.48241  0.10515  Biso   1.000  O
  O16      1.0000 0.27840  0.46443  0.13995  Biso   1.000  O
  O17      1.0000 0.28225  0.40497  0.17229  Biso   1.000  O
  O18      1.0000 0.33707  0.44482  0.16124  Biso   1.000  O
  O19      1.0000 0.29163  0.25755  0.44451  Biso   1.000  O
  O20      1.0000 0.23894  0.24247  0.42233  Biso   1.000  O
  O21      1.0000 0.26047  0.41443  0.07574  Biso   1.000  O
  O22      1.0000 0.23497  0.38711  0.12113  Biso   1.000  O
  O23      1.0000 0.50777  0.58853  0.45133  Biso   1.000  O
  O24      1.0000 0.49147  0.61693  0.42203  Biso   1.000  O
  O25      1.0000 0.00147  0.22273  0.85123  Biso   1.000  O
  O26      1.0000 0.05637  0.26273  0.84113  Biso   1.000  O
  O27      1.0000 0.91537  0.32203  0.11773  Biso   1.000  O
  O28      1.0000 0.91027  0.34773  0.07363  Biso   1.000  O
  C64      1.0000 0.30377  0.48893  0.12363  Biso   1.000  C
  C65      1.0000 0.31037  0.52562  0.12483  Biso   1.000  C
  C66      1.0000 0.28757  0.53373  0.14293  Biso   1.000  C
  H36      1.0000 0.26797  0.51553  0.15523  Biso   1.000  H
  C67      1.0000 0.29437  0.56963  0.14253  Biso   1.000  C
  H37      1.0000 0.27957  0.57563  0.15543  Biso   1.000  H
  C68      1.0000 0.32187  0.59673  0.12403  Biso   1.000  C
  C69      1.0000 0.34437  0.58733  0.10613  Biso   1.000  C
  H38      1.0000 0.36397  0.60543  0.09373  Biso   1.000  H
  C70      1.0000 0.33847  0.55223  0.10643  Biso   1.000  C
  H39      1.0000 0.35357  0.54623  0.09403  Biso   1.000  H
  C71      1.0000 0.32707  0.63163  0.12383  Biso   1.000  C
  C72      1.0000 0.30017  0.63813  0.12423  Biso   1.000  C
  H40      1.0000 0.27617  0.61793  0.12493  Biso   1.000  H
  C73      1.0000 0.31217  0.42413  0.18163  Biso   1.000  C
  C74      1.0000 0.32377  0.42793  0.21383  Biso   1.000  C
  C75      1.0000 0.35897  0.45113  0.22423  Biso   1.000  C
  H41      1.0000 0.37757  0.46523  0.20903  Biso   1.000  H
  C76      1.0000 0.36717  0.45363  0.25893  Biso   1.000  C
  H42      1.0000 0.39117  0.46923  0.26633  Biso   1.000  H
  C77      1.0000 0.34017  0.43343  0.28073  Biso   1.000  C
  C78      1.0000 0.30337  0.41053  0.27043  Biso   1.000  C
  H43      1.0000 0.28477  0.39713  0.28583  Biso   1.000  H
  C79      1.0000 0.29517  0.40823  0.23673  Biso   1.000  C
  H44      1.0000 0.27077  0.39373  0.22943  Biso   1.000  H
  C80      1.0000 0.34837  0.43363  0.31463  Biso   1.000  C
  C81      1.0000 0.37127  0.46363  0.33013  Biso   1.000  C
  H45      1.0000 0.37967  0.48623  0.31943  Biso   1.000  H
  C82      1.0000 0.38317  0.46333  0.36093  Biso   1.000  C
  C83      1.0000 0.36557  0.43273  0.37723  Biso   1.000  C
  H46      1.0000 0.37137  0.43293  0.39963  Biso   1.000  H
  C84      1.0000 0.33887  0.40023  0.36363  Biso   1.000  C
  C85      1.0000 0.33057  0.40153  0.33123  Biso   1.000  C
  H47      1.0000 0.31257  0.38023  0.32063  Biso   1.000  H
  C86      1.0000 0.32287  0.36583  0.38083  Biso   1.000  C
  C87      1.0000 0.34087  0.35713  0.40173  Biso   1.000  C
  H48      1.0000 0.36547  0.37473  0.40613  Biso   1.000  H
  C88      1.0000 0.32637  0.32453  0.41763  Biso   1.000  C
  H49      1.0000 0.34017  0.31873  0.43213  Biso   1.000  H
  C89      1.0000 0.28937  0.30003  0.41073  Biso   1.000  C
  C90      1.0000 0.27057  0.30803  0.39103  Biso   1.000  C
  H50      1.0000 0.24537  0.29133  0.38813  Biso   1.000  H
  C91      1.0000 0.28627  0.33963  0.37463  Biso   1.000  C
  H51      1.0000 0.27287  0.34443  0.35883  Biso   1.000  H
  C92      1.0000 0.27217  0.26443  0.42793  Biso   1.000  C
  C93      1.0000 0.40857  0.49493  0.37583  Biso   1.000  C
  C94      1.0000 0.41577  0.52993  0.36543  Biso   1.000  C
  H52      1.0000 0.40507  0.53263  0.34603  Biso   1.000  H
  C95      1.0000 0.43947  0.56123  0.38473  Biso   1.000  C
  H53      1.0000 0.44107  0.58393  0.38043  Biso   1.000  H
  C96      1.0000 0.46037  0.55853  0.40993  Biso   1.000  C
  C97      1.0000 0.45537  0.52363  0.41883  Biso   1.000  C
  H54      1.0000 0.46847  0.52133  0.43663  Biso   1.000  H
  C98      1.0000 0.43067  0.49233  0.40063  Biso   1.000  C
  H55      1.0000 0.42887  0.46953  0.40503  Biso   1.000  H
  C99      1.0000 0.48897  0.59063  0.42953  Biso   1.000  C
  C100     1.0000 0.23257  0.39373  0.09243  Biso   1.000  C
  C101     1.0000 0.19737  0.37603  0.07723  Biso   1.000  C
  C102     1.0000 0.16597  0.35603  0.09413  Biso   1.000  C
  H56      1.0000 0.16757  0.35303  0.11683  Biso   1.000  H
  C103     1.0000 0.13437  0.34113  0.08113  Biso   1.000  C
  H57      1.0000 0.11367  0.32833  0.09473  Biso   1.000  H
  C104     1.0000 0.12947  0.34313  0.04793  Biso   1.000  C
  C105     1.0000 0.16057  0.36473  0.02963  Biso   1.000  C
  H58      1.0000 0.15847  0.36883  0.00713  Biso   1.000  H
  C106     1.0000 0.19407  0.38023  0.04413  Biso   1.000  C
  H59      1.0000 0.21527  0.39393  0.03133  Biso   1.000  H
  C107     1.0000 0.09447  0.32743  0.03203  Biso   1.000  C
  C108     1.0000 0.06617  0.33113  0.04903  Biso   1.000  C
  H60      1.0000 0.07007  0.34223  0.06993  Biso   1.000  H
  C109     1.0000 0.03437  0.31773  0.03303  Biso   1.000  C
  C110     1.0000 0.02887  0.30413  0.00453  Biso   1.000  C
  H61      1.0000 0.00607  0.29673  0.99463  Biso   1.000  H
  C111     1.0000 0.05397  0.29933  0.98703  Biso   1.000  C
  C112     1.0000 0.08917  0.31253  0.00173  Biso   1.000  C
  H62      1.0000 0.10797  0.31083  0.99073  Biso   1.000  H
  C113     1.0000 0.04737  0.28333  0.95543  Biso   1.000  C
  C114     1.0000 0.01577  0.26043  0.94443  Biso   1.000  C
  H63      1.0000 0.99527  0.25283  0.95833  Biso   1.000  H
  C115     1.0000 0.01017  0.24673  0.91373  Biso   1.000  C
  H64      1.0000 0.98677  0.22733  0.90813  Biso   1.000  H
  C116     1.0000 0.03537  0.25893  0.89223  Biso   1.000  C
  C117     1.0000 0.06957  0.28603  0.90203  Biso   1.000  C
  H65      1.0000 0.08967  0.29583  0.88753  Biso   1.000  H
  C118     1.0000 0.07297  0.29773  0.93333  Biso   1.000  C
  H66      1.0000 0.09557  0.31793  0.93963  Biso   1.000  H
  C119     1.0000 0.02967  0.24683  0.86083  Biso   1.000  C
  C120     1.0000 0.99547  0.31093  0.07983  Biso   1.000  C
  H67      1.0000 0.00797  0.30123  0.09153  Biso   1.000  H
  C121     1.0000 0.00347  0.32033  0.04663  Biso   1.000  C
  C122     1.0000 0.98477  0.33403  0.02813  Biso   1.000  C
  H68      1.0000 0.99127  0.34123  0.00613  Biso   1.000  H
  C123     1.0000 0.95527  0.33663  0.04363  Biso   1.000  C
  H69      1.0000 0.94087  0.34353  0.03133  Biso   1.000  H
  C124     1.0000 0.94847  0.32863  0.07723  Biso   1.000  C
  C125     1.0000 0.96787  0.31613  0.09583  Biso   1.000  C
  H70      1.0000 0.96307  0.31123  0.11833  Biso   1.000  H
  C126     1.0000 0.92297  0.33363  0.09243  Biso   1.000  C
  Eu3      1.0000 0.96034  0.75786  0.45504  Biso   1.000  Eu
  In3      1.0000 0.19421  0.97108  0.80328  Biso   1.000  In
  O29      1.0000 0.99019  0.81575  0.43849  Biso   1.000  O
  O30      1.0000 0.94506  0.79777  0.47329  Biso   1.000  O
  O31      1.0000 0.94891  0.73831  0.50563  Biso   1.000  O
  O32      1.0000 0.00373  0.77816  0.49458  Biso   1.000  O
  O33      1.0000 0.95829  0.59089  0.77785  Biso   1.000  O
  O34      1.0000 0.90560  0.57581  0.75567  Biso   1.000  O
  O35      1.0000 0.92713  0.74777  0.40908  Biso   1.000  O
  O36      1.0000 0.90163  0.72045  0.45447  Biso   1.000  O
  O37      1.0000 0.17443  0.92187  0.78467  Biso   1.000  O
  O38      1.0000 0.15813  0.95027  0.75537  Biso   1.000  O
  O39      1.0000 0.66813  0.55607  0.18457  Biso   1.000  O
  O40      1.0000 0.72303  0.59607  0.17447  Biso   1.000  O
  O41      1.0000 0.58203  0.65537  0.45107  Biso   1.000  O
  O42      1.0000 0.57693  0.68107  0.40697  Biso   1.000  O
  C127     1.0000 0.97043  0.82227  0.45697  Biso   1.000  C
  C128     1.0000 0.97703  0.85896  0.45817  Biso   1.000  C
  C129     1.0000 0.95423  0.86707  0.47627  Biso   1.000  C
  H71      1.0000 0.93463  0.84887  0.48857  Biso   1.000  H
  C130     1.0000 0.96103  0.90297  0.47587  Biso   1.000  C
  H72      1.0000 0.94623  0.90897  0.48877  Biso   1.000  H
  C131     1.0000 0.98853  0.93007  0.45737  Biso   1.000  C
  C132     1.0000 0.01103  0.92067  0.43947  Biso   1.000  C
  H73      1.0000 0.03063  0.93877  0.42707  Biso   1.000  H
  C133     1.0000 0.00513  0.88557  0.43977  Biso   1.000  C
  H74      1.0000 0.02023  0.87957  0.42737  Biso   1.000  H
  C134     1.0000 0.99373  0.96497  0.45717  Biso   1.000  C
  C135     1.0000 0.96683  0.97147  0.45757  Biso   1.000  C
  H75      1.0000 0.94283  0.95127  0.45827  Biso   1.000  H
  C136     1.0000 0.97883  0.75747  0.51497  Biso   1.000  C
  C137     1.0000 0.99043  0.76127  0.54717  Biso   1.000  C
  C138     1.0000 0.02563  0.78447  0.55757  Biso   1.000  C
  H76      1.0000 0.04423  0.79857  0.54237  Biso   1.000  H
  C139     1.0000 0.03383  0.78697  0.59227  Biso   1.000  C
  H77      1.0000 0.05783  0.80257  0.59967  Biso   1.000  H
  C140     1.0000 0.00683  0.76677  0.61407  Biso   1.000  C
  C141     1.0000 0.97003  0.74387  0.60377  Biso   1.000  C
  H78      1.0000 0.95143  0.73047  0.61917  Biso   1.000  H
  C142     1.0000 0.96183  0.74157  0.57007  Biso   1.000  C
  H79      1.0000 0.93743  0.72707  0.56277  Biso   1.000  H
  C143     1.0000 0.01503  0.76697  0.64797  Biso   1.000  C
  C144     1.0000 0.03793  0.79697  0.66347  Biso   1.000  C
  H80      1.0000 0.04633  0.81957  0.65277  Biso   1.000  H
  C145     1.0000 0.04983  0.79667  0.69427  Biso   1.000  C
  C146     1.0000 0.03223  0.76607  0.71057  Biso   1.000  C
  H81      1.0000 0.03803  0.76627  0.73297  Biso   1.000  H
  C147     1.0000 0.00553  0.73357  0.69697  Biso   1.000  C
  C148     1.0000 0.99723  0.73487  0.66457  Biso   1.000  C
  H82      1.0000 0.97923  0.71357  0.65397  Biso   1.000  H
  C149     1.0000 0.98953  0.69917  0.71417  Biso   1.000  C
  C150     1.0000 0.00753  0.69047  0.73507  Biso   1.000  C
  H83      1.0000 0.03213  0.70807  0.73947  Biso   1.000  H
  C151     1.0000 0.99303  0.65787  0.75097  Biso   1.000  C
  H84      1.0000 0.00683  0.65207  0.76547  Biso   1.000  H
  C152     1.0000 0.95603  0.63337  0.74407  Biso   1.000  C
  C153     1.0000 0.93723  0.64137  0.72437  Biso   1.000  C
  H85      1.0000 0.91203  0.62467  0.72147  Biso   1.000  H
  C154     1.0000 0.95293  0.67297  0.70797  Biso   1.000  C
  H86      1.0000 0.93953  0.67777  0.69217  Biso   1.000  H
  C155     1.0000 0.93883  0.59777  0.76127  Biso   1.000  C
  C156     1.0000 0.07523  0.82827  0.70917  Biso   1.000  C
  C157     1.0000 0.08243  0.86327  0.69877  Biso   1.000  C
  H87      1.0000 0.07173  0.86597  0.67937  Biso   1.000  H
  C158     1.0000 0.10613  0.89457  0.71807  Biso   1.000  C
  H88      1.0000 0.10773  0.91727  0.71377  Biso   1.000  H
  C159     1.0000 0.12703  0.89187  0.74327  Biso   1.000  C
  C160     1.0000 0.12203  0.85697  0.75217  Biso   1.000  C
  H89      1.0000 0.13513  0.85467  0.76997  Biso   1.000  H
  C161     1.0000 0.09733  0.82567  0.73397  Biso   1.000  C
  H90      1.0000 0.09553  0.80287  0.73837  Biso   1.000  H
  C162     1.0000 0.15563  0.92397  0.76287  Biso   1.000  C
  C163     1.0000 0.89923  0.72707  0.42577  Biso   1.000  C
  C164     1.0000 0.86403  0.70937  0.41057  Biso   1.000  C
  C165     1.0000 0.83263  0.68937  0.42747  Biso   1.000  C
  H91      1.0000 0.83423  0.68637  0.45017  Biso   1.000  H
  C166     1.0000 0.80103  0.67447  0.41447  Biso   1.000  C
  H92      1.0000 0.78033  0.66167  0.42807  Biso   1.000  H
  C167     1.0000 0.79613  0.67647  0.38127  Biso   1.000  C
  C168     1.0000 0.82723  0.69807  0.36297  Biso   1.000  C
  H93      1.0000 0.82513  0.70217  0.34047  Biso   1.000  H
  C169     1.0000 0.86073  0.71357  0.37747  Biso   1.000  C
  H94      1.0000 0.88193  0.72727  0.36467  Biso   1.000  H
  C170     1.0000 0.76113  0.66077  0.36537  Biso   1.000  C
  C171     1.0000 0.73283  0.66447  0.38237  Biso   1.000  C
  H95      1.0000 0.73673  0.67557  0.40327  Biso   1.000  H
  C172     1.0000 0.70103  0.65107  0.36637  Biso   1.000  C
  C173     1.0000 0.69553  0.63747  0.33787  Biso   1.000  C
  H96      1.0000 0.67273  0.63007  0.32797  Biso   1.000  H
  C174     1.0000 0.72063  0.63267  0.32037  Biso   1.000  C
  C175     1.0000 0.75583  0.64587  0.33507  Biso   1.000  C
  H97      1.0000 0.77463  0.64417  0.32407  Biso   1.000  H
  C176     1.0000 0.71403  0.61667  0.28877  Biso   1.000  C
  C177     1.0000 0.68243  0.59377  0.27777  Biso   1.000  C
  H98      1.0000 0.66193  0.58617  0.29167  Biso   1.000  H
  C178     1.0000 0.67683  0.58007  0.24707  Biso   1.000  C
  H99      1.0000 0.65343  0.56067  0.24147  Biso   1.000  H
  C179     1.0000 0.70203  0.59227  0.22557  Biso   1.000  C
  C180     1.0000 0.73623  0.61937  0.23537  Biso   1.000  C
  H100     1.0000 0.75633  0.62917  0.22087  Biso   1.000  H
  C181     1.0000 0.73963  0.63107  0.26667  Biso   1.000  C
  H101     1.0000 0.76223  0.65127  0.27297  Biso   1.000  H
  C182     1.0000 0.69633  0.58017  0.19417  Biso   1.000  C
  C183     1.0000 0.66213  0.64427  0.41317  Biso   1.000  C
  H102     1.0000 0.67463  0.63457  0.42487  Biso   1.000  H
  C184     1.0000 0.67013  0.65367  0.37997  Biso   1.000  C
  C185     1.0000 0.65143  0.66737  0.36147  Biso   1.000  C
  H103     1.0000 0.65793  0.67457  0.33947  Biso   1.000  H
  C186     1.0000 0.62193  0.66997  0.37697  Biso   1.000  C
  H104     1.0000 0.60753  0.67687  0.36467  Biso   1.000  H
  C187     1.0000 0.61513  0.66197  0.41057  Biso   1.000  C
  C188     1.0000 0.63453  0.64947  0.42917  Biso   1.000  C
  H105     1.0000 0.62973  0.64457  0.45167  Biso   1.000  H
  C189     1.0000 0.58963  0.66697  0.42577  Biso   1.000  C
  Eu4      1.0000 0.90880  0.53582  0.78837  Biso   1.000  Eu
  In4      1.0000 0.69559  0.55647  0.13661  Biso   1.000  In
  O43      1.0000 0.85092  0.50778  0.77182  Biso   1.000  O
  O44      1.0000 0.86890  0.48063  0.80662  Biso   1.000  O
  O45      1.0000 0.92836  0.54394  0.83896  Biso   1.000  O
  O46      1.0000 0.88851  0.55891  0.82791  Biso   1.000  O
  O47      1.0000 0.07578  0.70074  0.11118  Biso   1.000  O
  O48      1.0000 0.09086  0.66313  0.08900  Biso   1.000  O
  O49      1.0000 0.91890  0.51270  0.74241  Biso   1.000  O
  O50      1.0000 0.94622  0.51452  0.78780  Biso   1.000  O
  O51      1.0000 0.74480  0.58590  0.11800  Biso   1.000  O
  O52      1.0000 0.71640  0.54120  0.08870  Biso   1.000  O
  O53      1.0000 0.11060  0.44540  0.51790  Biso   1.000  O
  O54      1.0000 0.07060  0.46030  0.50780  Biso   1.000  O
  O55      1.0000 0.01130  0.26000  0.78440  Biso   1.000  O
  O56      1.0000 0.98560  0.22920  0.74030  Biso   1.000  O
  C190     1.0000 0.84440  0.48150  0.79030  Biso   1.000  C
  C191     1.0000 0.80771  0.45141  0.79150  Biso   1.000  C
  C192     1.0000 0.79960  0.42050  0.80960  Biso   1.000  C
  H106     1.0000 0.81780  0.41910  0.82190  Biso   1.000  H
  C193     1.0000 0.76370  0.39140  0.80920  Biso   1.000  C
  H107     1.0000 0.75770  0.37060  0.82210  Biso   1.000  H
  C194     1.0000 0.73660  0.39180  0.79070  Biso   1.000  C
  C195     1.0000 0.74600  0.42370  0.77280  Biso   1.000  C
  H108     1.0000 0.72790  0.42520  0.76040  Biso   1.000  H
  C196     1.0000 0.78110  0.45290  0.77310  Biso   1.000  C
  H109     1.0000 0.78710  0.47400  0.76070  Biso   1.000  H
  C197     1.0000 0.70170  0.36210  0.79050  Biso   1.000  C
  C198     1.0000 0.69520  0.32870  0.79090  Biso   1.000  C
  H110     1.0000 0.71540  0.32490  0.79160  Biso   1.000  H
  C199     1.0000 0.90920  0.55470  0.84830  Biso   1.000  C
  C200     1.0000 0.90540  0.56250  0.88050  Biso   1.000  C
  C201     1.0000 0.88220  0.57450  0.89090  Biso   1.000  C
  H111     1.0000 0.86810  0.57900  0.87570  Biso   1.000  H
  C202     1.0000 0.87970  0.58020  0.92560  Biso   1.000  C
  H112     1.0000 0.86410  0.58860  0.93300  Biso   1.000  H
  C203     1.0000 0.89990  0.57340  0.94740  Biso   1.000  C
  C204     1.0000 0.92280  0.55950  0.93710  Biso   1.000  C
  H113     1.0000 0.93620  0.55430  0.95250  Biso   1.000  H
  C205     1.0000 0.92510  0.55360  0.90340  Biso   1.000  C
  H114     1.0000 0.93960  0.54370  0.89610  Biso   1.000  H
  C206     1.0000 0.89970  0.58140  0.98130  Biso   1.000  C
  C207     1.0000 0.86970  0.57430  0.99680  Biso   1.000  C
  H115     1.0000 0.84710  0.56010  0.98610  Biso   1.000  H
  C208     1.0000 0.87000  0.58650  0.02760  Biso   1.000  C
  C209     1.0000 0.90060  0.59950  0.04390  Biso   1.000  C
  H116     1.0000 0.90040  0.60510  0.06630  Biso   1.000  H
  C210     1.0000 0.93310  0.60530  0.03030  Biso   1.000  C
  C211     1.0000 0.93180  0.59570  0.99790  Biso   1.000  C
  H117     1.0000 0.95310  0.59900  0.98730  Biso   1.000  H
  C212     1.0000 0.96750  0.62370  0.04750  Biso   1.000  C
  C213     1.0000 0.97620  0.65040  0.06840  Biso   1.000  C
  H118     1.0000 0.95860  0.65740  0.07280  Biso   1.000  H
  C214     1.0000 0.00880  0.66850  0.08430  Biso   1.000  C
  H119     1.0000 0.01460  0.68810  0.09880  Biso   1.000  H
  C215     1.0000 0.03330  0.65600  0.07740  Biso   1.000  C
  C216     1.0000 0.02530  0.62920  0.05770  Biso   1.000  C
  H120     1.0000 0.04200  0.62070  0.05480  Biso   1.000  H
  C217     1.0000 0.99370  0.61330  0.04130  Biso   1.000  C
  H121     1.0000 0.98890  0.59510  0.02550  Biso   1.000  H
  C218     1.0000 0.06890  0.67440  0.09460  Biso   1.000  C
  C219     1.0000 0.83840  0.58030  0.04250  Biso   1.000  C
  C220     1.0000 0.80340  0.55250  0.03210  Biso   1.000  C
  H122     1.0000 0.80070  0.53910  0.01270  Biso   1.000  H
  C221     1.0000 0.77210  0.54490  0.05140  Biso   1.000  C
  H123     1.0000 0.74940  0.52380  0.04710  Biso   1.000  H
  C222     1.0000 0.77480  0.56850  0.07660  Biso   1.000  C
  C223     1.0000 0.80970  0.59840  0.08550  Biso   1.000  C
  H124     1.0000 0.81200  0.61380  0.10330  Biso   1.000  H
  C224     1.0000 0.84100  0.60500  0.06730  Biso   1.000  C
  H125     1.0000 0.86380  0.62600  0.07170  Biso   1.000  H
  C225     1.0000 0.74270  0.56500  0.09620  Biso   1.000  C
  C226     1.0000 0.93960  0.50550  0.75910  Biso   1.000  C
  C227     1.0000 0.95730  0.48800  0.74390  Biso   1.000  C
  C228     1.0000 0.97730  0.47660  0.76080  Biso   1.000  C
  H126     1.0000 0.98030  0.48120  0.78350  Biso   1.000  H
  C229     1.0000 0.99220  0.45990  0.74780  Biso   1.000  C
  H127     1.0000 0.00500  0.45200  0.76140  Biso   1.000  H
  C230     1.0000 0.99020  0.45300  0.71460  Biso   1.000  C
  C231     1.0000 0.96860  0.46250  0.69630  Biso   1.000  C
  H128     1.0000 0.96450  0.45630  0.67380  Biso   1.000  H
  C232     1.0000 0.95310  0.48050  0.71080  Biso   1.000  C
  H129     1.0000 0.93940  0.48800  0.69800  Biso   1.000  H
  C233     1.0000 0.00590  0.43370  0.69870  Biso   1.000  C
  C234     1.0000 0.00220  0.40170  0.71570  Biso   1.000  C
  H130     1.0000 0.99110  0.39450  0.73660  Biso   1.000  H
  C235     1.0000 0.01560  0.38330  0.69970  Biso   1.000  C
  C236     1.0000 0.02920  0.39140  0.67120  Biso   1.000  C
  H131     1.0000 0.03660  0.37600  0.66130  Biso   1.000  H
  C237     1.0000 0.03400  0.42130  0.65370  Biso   1.000  C
  C238     1.0000 0.02080  0.44330  0.66840  Biso   1.000  C
  H132     1.0000 0.02250  0.46380  0.65740  Biso   1.000  H
  C239     1.0000 0.05000  0.43070  0.62210  Biso   1.000  C
  C240     1.0000 0.07290  0.42200  0.61110  Biso   1.000  C
  H133     1.0000 0.08050  0.40910  0.62500  Biso   1.000  H
  C241     1.0000 0.08660  0.43010  0.58040  Biso   1.000  C
  H134     1.0000 0.10600  0.42610  0.57480  Biso   1.000  H
  C242     1.0000 0.07440  0.44310  0.55890  Biso   1.000  C
  C243     1.0000 0.04730  0.45020  0.56870  Biso   1.000  C
  H135     1.0000 0.03750  0.46050  0.55420  Biso   1.000  H
  C244     1.0000 0.03560  0.44190  0.60000  Biso   1.000  C
  H136     1.0000 0.01540  0.44430  0.60630  Biso   1.000  H
  C245     1.0000 0.08650  0.44950  0.52750  Biso   1.000  C
  C246     1.0000 0.02240  0.35120  0.74650  Biso   1.000  C
  H137     1.0000 0.03210  0.37340  0.75820  Biso   1.000  H
  C247     1.0000 0.01300  0.34980  0.71330  Biso   1.000  C
  C248     1.0000 0.99930  0.31740  0.69480  Biso   1.000  C
  H138     1.0000 0.99210  0.31670  0.67280  Biso   1.000  H
  C249     1.0000 0.99670  0.28530  0.71030  Biso   1.000  C
  H139     1.0000 0.98980  0.26400  0.69800  Biso   1.000  H
  C250     1.0000 0.00470  0.28650  0.74390  Biso   1.000  C
  C251     1.0000 0.01720  0.31840  0.76250  Biso   1.000  C
  H140     1.0000 0.02210  0.31850  0.78500  Biso   1.000  H
  C252     1.0000 0.99970  0.25600  0.75910  Biso   1.000  C
  Eu5      1.0000 0.57547  0.86915  0.12171  Biso   1.000  Eu
  In5      1.0000 0.36226  0.88980  0.46994  Biso   1.000  In
  O57      1.0000 0.51759  0.84111  0.10515  Biso   1.000  O
  O58      1.0000 0.53557  0.81396  0.13995  Biso   1.000  O
  O59      1.0000 0.59503  0.87727  0.17229  Biso   1.000  O
  O60      1.0000 0.55518  0.89224  0.16124  Biso   1.000  O
  O61      1.0000 0.74245  0.03407  0.44451  Biso   1.000  O
  O62      1.0000 0.75753  0.99646  0.42233  Biso   1.000  O
  O63      1.0000 0.58557  0.84603  0.07574  Biso   1.000  O
  O64      1.0000 0.61289  0.84785  0.12113  Biso   1.000  O
  O65      1.0000 0.41147  0.91923  0.45133  Biso   1.000  O
  O66      1.0000 0.38307  0.87453  0.42203  Biso   1.000  O
  O67      1.0000 0.77727  0.77873  0.85123  Biso   1.000  O
  O68      1.0000 0.73727  0.79363  0.84113  Biso   1.000  O
  O69      1.0000 0.67797  0.59333  0.11773  Biso   1.000  O
  O70      1.0000 0.65227  0.56253  0.07363  Biso   1.000  O
  C253     1.0000 0.51107  0.81483  0.12363  Biso   1.000  C
  C254     1.0000 0.47438  0.78474  0.12483  Biso   1.000  C
  C255     1.0000 0.46627  0.75383  0.14293  Biso   1.000  C
  H141     1.0000 0.48447  0.75243  0.15523  Biso   1.000  H
  C256     1.0000 0.43037  0.72473  0.14253  Biso   1.000  C
  H142     1.0000 0.42437  0.70393  0.15543  Biso   1.000  H
  C257     1.0000 0.40327  0.72513  0.12403  Biso   1.000  C
  C258     1.0000 0.41267  0.75703  0.10613  Biso   1.000  C
  H143     1.0000 0.39457  0.75853  0.09373  Biso   1.000  H
  C259     1.0000 0.44777  0.78623  0.10643  Biso   1.000  C
  H144     1.0000 0.45377  0.80733  0.09403  Biso   1.000  H
  C260     1.0000 0.36837  0.69543  0.12383  Biso   1.000  C
  C261     1.0000 0.36187  0.66203  0.12423  Biso   1.000  C
  H145     1.0000 0.38207  0.65823  0.12493  Biso   1.000  H
  C262     1.0000 0.57587  0.88803  0.18163  Biso   1.000  C
  C263     1.0000 0.57207  0.89583  0.21383  Biso   1.000  C
  C264     1.0000 0.54887  0.90783  0.22423  Biso   1.000  C
  H146     1.0000 0.53477  0.91233  0.20903  Biso   1.000  H
  C265     1.0000 0.54637  0.91353  0.25893  Biso   1.000  C
  H147     1.0000 0.53077  0.92193  0.26633  Biso   1.000  H
  C266     1.0000 0.56657  0.90673  0.28073  Biso   1.000  C
  C267     1.0000 0.58947  0.89283  0.27043  Biso   1.000  C
  H148     1.0000 0.60287  0.88763  0.28583  Biso   1.000  H
  C268     1.0000 0.59177  0.88693  0.23673  Biso   1.000  C
  H149     1.0000 0.60627  0.87703  0.22943  Biso   1.000  H
  C269     1.0000 0.56637  0.91473  0.31463  Biso   1.000  C
  C270     1.0000 0.53637  0.90763  0.33013  Biso   1.000  C
  H150     1.0000 0.51377  0.89343  0.31943  Biso   1.000  H
  C271     1.0000 0.53667  0.91983  0.36093  Biso   1.000  C
  C272     1.0000 0.56727  0.93283  0.37723  Biso   1.000  C
  H151     1.0000 0.56707  0.93843  0.39963  Biso   1.000  H
  C273     1.0000 0.59977  0.93863  0.36363  Biso   1.000  C
  C274     1.0000 0.59847  0.92903  0.33123  Biso   1.000  C
  H152     1.0000 0.61977  0.93233  0.32063  Biso   1.000  H
  C275     1.0000 0.63417  0.95703  0.38083  Biso   1.000  C
  C276     1.0000 0.64287  0.98373  0.40173  Biso   1.000  C
  H153     1.0000 0.62527  0.99073  0.40613  Biso   1.000  H
  C277     1.0000 0.67547  0.00183  0.41763  Biso   1.000  C
  H154     1.0000 0.68127  0.02143  0.43213  Biso   1.000  H
  C278     1.0000 0.69997  0.98933  0.41073  Biso   1.000  C
  C279     1.0000 0.69197  0.96253  0.39103  Biso   1.000  C
  H155     1.0000 0.70867  0.95403  0.38813  Biso   1.000  H
  C280     1.0000 0.66037  0.94663  0.37463  Biso   1.000  C
  H156     1.0000 0.65557  0.92843  0.35883  Biso   1.000  H
  C281     1.0000 0.73557  0.00773  0.42793  Biso   1.000  C
  C282     1.0000 0.50507  0.91363  0.37583  Biso   1.000  C
  C283     1.0000 0.47007  0.88583  0.36543  Biso   1.000  C
  H157     1.0000 0.46737  0.87243  0.34603  Biso   1.000  H
  C284     1.0000 0.43877  0.87823  0.38473  Biso   1.000  C
  H158     1.0000 0.41607  0.85713  0.38043  Biso   1.000  H
  C285     1.0000 0.44147  0.90183  0.40993  Biso   1.000  C
  C286     1.0000 0.47637  0.93173  0.41883  Biso   1.000  C
  H159     1.0000 0.47867  0.94713  0.43663  Biso   1.000  H
  C287     1.0000 0.50767  0.93833  0.40063  Biso   1.000  C
  H160     1.0000 0.53047  0.95933  0.40503  Biso   1.000  H
  C288     1.0000 0.40937  0.89833  0.42953  Biso   1.000  C
  C289     1.0000 0.60627  0.83883  0.09243  Biso   1.000  C
  C290     1.0000 0.62397  0.82133  0.07723  Biso   1.000  C
  C291     1.0000 0.64397  0.80993  0.09413  Biso   1.000  C
  H161     1.0000 0.64697  0.81453  0.11683  Biso   1.000  H
  C292     1.0000 0.65887  0.79323  0.08113  Biso   1.000  C
  H162     1.0000 0.67167  0.78533  0.09473  Biso   1.000  H
  C293     1.0000 0.65687  0.78633  0.04793  Biso   1.000  C
  C294     1.0000 0.63527  0.79583  0.02963  Biso   1.000  C
  H163     1.0000 0.63117  0.78963  0.00713  Biso   1.000  H
  C295     1.0000 0.61977  0.81383  0.04413  Biso   1.000  C
  H164     1.0000 0.60607  0.82133  0.03133  Biso   1.000  H
  C296     1.0000 0.67257  0.76703  0.03203  Biso   1.000  C
  C297     1.0000 0.66887  0.73503  0.04903  Biso   1.000  C
  H165     1.0000 0.65777  0.72783  0.06993  Biso   1.000  H
  C298     1.0000 0.68227  0.71663  0.03303  Biso   1.000  C
  C299     1.0000 0.69587  0.72473  0.00453  Biso   1.000  C
  H166     1.0000 0.70327  0.70933  0.99463  Biso   1.000  H
  C300     1.0000 0.70067  0.75463  0.98703  Biso   1.000  C
  C301     1.0000 0.68747  0.77663  0.00173  Biso   1.000  C
  H167     1.0000 0.68917  0.79713  0.99073  Biso   1.000  H
  C302     1.0000 0.71667  0.76403  0.95543  Biso   1.000  C
  C303     1.0000 0.73957  0.75533  0.94443  Biso   1.000  C
  H168     1.0000 0.74717  0.74243  0.95833  Biso   1.000  H
  C304     1.0000 0.75327  0.76343  0.91373  Biso   1.000  C
  H169     1.0000 0.77267  0.75943  0.90813  Biso   1.000  H
  C305     1.0000 0.74107  0.77643  0.89223  Biso   1.000  C
  C306     1.0000 0.71397  0.78353  0.90203  Biso   1.000  C
  H170     1.0000 0.70417  0.79383  0.88753  Biso   1.000  H
  C307     1.0000 0.70227  0.77523  0.93333  Biso   1.000  C
  H171     1.0000 0.68207  0.77763  0.93963  Biso   1.000  H
  C308     1.0000 0.75317  0.78283  0.86083  Biso   1.000  C
  C309     1.0000 0.68907  0.68453  0.07983  Biso   1.000  C
  H172     1.0000 0.69877  0.70673  0.09153  Biso   1.000  H
  C310     1.0000 0.67967  0.68313  0.04663  Biso   1.000  C
  C311     1.0000 0.66597  0.65073  0.02813  Biso   1.000  C
  H173     1.0000 0.65877  0.65003  0.00613  Biso   1.000  H
  C312     1.0000 0.66337  0.61863  0.04363  Biso   1.000  C
  H174     1.0000 0.65647  0.59733  0.03133  Biso   1.000  H
  C313     1.0000 0.67137  0.61983  0.07723  Biso   1.000  C
  C314     1.0000 0.68387  0.65173  0.09583  Biso   1.000  C
  H175     1.0000 0.68877  0.65183  0.11833  Biso   1.000  H
  C315     1.0000 0.66637  0.58933  0.09243  Biso   1.000  C
  Eu6      1.0000 0.24214  0.20248  0.45504  Biso   1.000  Eu
  In6      1.0000 0.02892  0.22314  0.80328  Biso   1.000  In
  O71      1.0000 0.18425  0.17445  0.43849  Biso   1.000  O
  O72      1.0000 0.20223  0.14730  0.47329  Biso   1.000  O
  O73      1.0000 0.26169  0.21061  0.50563  Biso   1.000  O
  O74      1.0000 0.22184  0.22558  0.49458  Biso   1.000  O
  O75      1.0000 0.40911  0.36741  0.77785  Biso   1.000  O
  O76      1.0000 0.42419  0.32980  0.75567  Biso   1.000  O
  O77      1.0000 0.25223  0.17937  0.40908  Biso   1.000  O
  O78      1.0000 0.27955  0.18119  0.45447  Biso   1.000  O
  O79      1.0000 0.07813  0.25257  0.78467  Biso   1.000  O
  O80      1.0000 0.04973  0.20787  0.75537  Biso   1.000  O
  O81      1.0000 0.44393  0.11207  0.18457  Biso   1.000  O
  O82      1.0000 0.40393  0.12697  0.17447  Biso   1.000  O
  O83      1.0000 0.34463  0.92667  0.45107  Biso   1.000  O
  O84      1.0000 0.31893  0.89587  0.40697  Biso   1.000  O
  C316     1.0000 0.17773  0.14817  0.45697  Biso   1.000  C
  C317     1.0000 0.14104  0.11808  0.45817  Biso   1.000  C
  C318     1.0000 0.13293  0.08717  0.47627  Biso   1.000  C
  H176     1.0000 0.15113  0.08577  0.48857  Biso   1.000  H
  C319     1.0000 0.09703  0.05807  0.47587  Biso   1.000  C
  H177     1.0000 0.09103  0.03727  0.48877  Biso   1.000  H
  C320     1.0000 0.06993  0.05847  0.45737  Biso   1.000  C
  C321     1.0000 0.07933  0.09037  0.43947  Biso   1.000  C
  H178     1.0000 0.06123  0.09187  0.42707  Biso   1.000  H
  C322     1.0000 0.11443  0.11957  0.43977  Biso   1.000  C
  H179     1.0000 0.12043  0.14067  0.42737  Biso   1.000  H
  C323     1.0000 0.03503  0.02877  0.45717  Biso   1.000  C
  C324     1.0000 0.02853  0.99537  0.45757  Biso   1.000  C
  H180     1.0000 0.04873  0.99157  0.45827  Biso   1.000  H
  C325     1.0000 0.24253  0.22137  0.51497  Biso   1.000  C
  C326     1.0000 0.23873  0.22917  0.54717  Biso   1.000  C
  C327     1.0000 0.21553  0.24117  0.55757  Biso   1.000  C
  H181     1.0000 0.20143  0.24567  0.54237  Biso   1.000  H
  C328     1.0000 0.21303  0.24687  0.59227  Biso   1.000  C
  H182     1.0000 0.19743  0.25527  0.59967  Biso   1.000  H
  C329     1.0000 0.23323  0.24007  0.61407  Biso   1.000  C
  C330     1.0000 0.25613  0.22617  0.60377  Biso   1.000  C
  H183     1.0000 0.26953  0.22097  0.61917  Biso   1.000  H
  C331     1.0000 0.25843  0.22027  0.57007  Biso   1.000  C
  H184     1.0000 0.27293  0.21037  0.56277  Biso   1.000  H
  C332     1.0000 0.23303  0.24807  0.64797  Biso   1.000  C
  C333     1.0000 0.20303  0.24097  0.66347  Biso   1.000  C
  H185     1.0000 0.18043  0.22677  0.65277  Biso   1.000  H
  C334     1.0000 0.20333  0.25317  0.69427  Biso   1.000  C
  C335     1.0000 0.23393  0.26617  0.71057  Biso   1.000  C
  H186     1.0000 0.23373  0.27177  0.73297  Biso   1.000  H
  C336     1.0000 0.26643  0.27197  0.69697  Biso   1.000  C
  C337     1.0000 0.26513  0.26237  0.66457  Biso   1.000  C
  H187     1.0000 0.28643  0.26567  0.65397  Biso   1.000  H
  C338     1.0000 0.30083  0.29037  0.71417  Biso   1.000  C
  C339     1.0000 0.30953  0.31707  0.73507  Biso   1.000  C
  H188     1.0000 0.29193  0.32407  0.73947  Biso   1.000  H
  C340     1.0000 0.34213  0.33517  0.75097  Biso   1.000  C
  H189     1.0000 0.34793  0.35477  0.76547  Biso   1.000  H
  C341     1.0000 0.36663  0.32267  0.74407  Biso   1.000  C
  C342     1.0000 0.35863  0.29587  0.72437  Biso   1.000  C
  H190     1.0000 0.37533  0.28737  0.72147  Biso   1.000  H
  C343     1.0000 0.32703  0.27997  0.70797  Biso   1.000  C
  H191     1.0000 0.32223  0.26177  0.69217  Biso   1.000  H
  C344     1.0000 0.40223  0.34107  0.76127  Biso   1.000  C
  C345     1.0000 0.17173  0.24697  0.70917  Biso   1.000  C
  C346     1.0000 0.13673  0.21917  0.69877  Biso   1.000  C
  H192     1.0000 0.13403  0.20577  0.67937  Biso   1.000  H
  C347     1.0000 0.10543  0.21157  0.71807  Biso   1.000  C
  H193     1.0000 0.08273  0.19047  0.71377  Biso   1.000  H
  C348     1.0000 0.10813  0.23517  0.74327  Biso   1.000  C
  C349     1.0000 0.14303  0.26507  0.75217  Biso   1.000  C
  H194     1.0000 0.14533  0.28047  0.76997  Biso   1.000  H
  C350     1.0000 0.17433  0.27167  0.73397  Biso   1.000  C
  H195     1.0000 0.19713  0.29267  0.73837  Biso   1.000  H
  C351     1.0000 0.07603  0.23167  0.76287  Biso   1.000  C
  C352     1.0000 0.27293  0.17217  0.42577  Biso   1.000  C
  C353     1.0000 0.29063  0.15467  0.41057  Biso   1.000  C
  C354     1.0000 0.31063  0.14327  0.42747  Biso   1.000  C
  H196     1.0000 0.31363  0.14787  0.45017  Biso   1.000  H
  C355     1.0000 0.32553  0.12657  0.41447  Biso   1.000  C
  H197     1.0000 0.33833  0.11867  0.42807  Biso   1.000  H
  C356     1.0000 0.32353  0.11967  0.38127  Biso   1.000  C
  C357     1.0000 0.30193  0.12917  0.36297  Biso   1.000  C
  H198     1.0000 0.29783  0.12297  0.34047  Biso   1.000  H
  C358     1.0000 0.28643  0.14717  0.37747  Biso   1.000  C
  H199     1.0000 0.27273  0.15467  0.36467  Biso   1.000  H
  C359     1.0000 0.33923  0.10037  0.36537  Biso   1.000  C
  C360     1.0000 0.33553  0.06837  0.38237  Biso   1.000  C
  H200     1.0000 0.32443  0.06117  0.40327  Biso   1.000  H
  C361     1.0000 0.34893  0.04997  0.36637  Biso   1.000  C
  C362     1.0000 0.36253  0.05807  0.33787  Biso   1.000  C
  H201     1.0000 0.36993  0.04267  0.32797  Biso   1.000  H
  C363     1.0000 0.36733  0.08797  0.32037  Biso   1.000  C
  C364     1.0000 0.35413  0.10997  0.33507  Biso   1.000  C
  H202     1.0000 0.35583  0.13047  0.32407  Biso   1.000  H
  C365     1.0000 0.38333  0.09737  0.28877  Biso   1.000  C
  C366     1.0000 0.40623  0.08867  0.27777  Biso   1.000  C
  H203     1.0000 0.41383  0.07577  0.29167  Biso   1.000  H
  C367     1.0000 0.41993  0.09677  0.24707  Biso   1.000  C
  H204     1.0000 0.43933  0.09277  0.24147  Biso   1.000  H
  C368     1.0000 0.40773  0.10977  0.22557  Biso   1.000  C
  C369     1.0000 0.38063  0.11687  0.23537  Biso   1.000  C
  H205     1.0000 0.37083  0.12717  0.22087  Biso   1.000  H
  C370     1.0000 0.36893  0.10857  0.26667  Biso   1.000  C
  H206     1.0000 0.34873  0.11097  0.27297  Biso   1.000  H
  C371     1.0000 0.41983  0.11617  0.19417  Biso   1.000  C
  C372     1.0000 0.35573  0.01787  0.41317  Biso   1.000  C
  H207     1.0000 0.36543  0.04007  0.42487  Biso   1.000  H
  C373     1.0000 0.34633  0.01647  0.37997  Biso   1.000  C
  C374     1.0000 0.33263  0.98407  0.36147  Biso   1.000  C
  H208     1.0000 0.32543  0.98337  0.33947  Biso   1.000  H
  C375     1.0000 0.33003  0.95197  0.37697  Biso   1.000  C
  H209     1.0000 0.32313  0.93067  0.36467  Biso   1.000  H
  C376     1.0000 0.33803  0.95317  0.41057  Biso   1.000  C
  C377     1.0000 0.35053  0.98507  0.42917  Biso   1.000  C
  H210     1.0000 0.35543  0.98517  0.45167  Biso   1.000  H
  C378     1.0000 0.33303  0.92267  0.42577  Biso   1.000  C
  Eu7      1.0000 0.46418  0.37299  0.78837  Biso   1.000  Eu
  In7      1.0000 0.44353  0.13912  0.13661  Biso   1.000  In
  O85      1.0000 0.49222  0.34314  0.77182  Biso   1.000  O
  O86      1.0000 0.51937  0.38827  0.80662  Biso   1.000  O
  O87      1.0000 0.45606  0.38442  0.83896  Biso   1.000  O
  O88      1.0000 0.44109  0.32960  0.82791  Biso   1.000  O
  O89      1.0000 0.29926  0.37504  0.11118  Biso   1.000  O
  O90      1.0000 0.33687  0.42773  0.08900  Biso   1.000  O
  O91      1.0000 0.48730  0.40620  0.74241  Biso   1.000  O
  O92      1.0000 0.48548  0.43170  0.78780  Biso   1.000  O
  O93      1.0000 0.41410  0.15890  0.11800  Biso   1.000  O
  O94      1.0000 0.45880  0.17520  0.08870  Biso   1.000  O
  O95      1.0000 0.55460  0.66520  0.51790  Biso   1.000  O
  O96      1.0000 0.53970  0.61030  0.50780  Biso   1.000  O
  O97      1.0000 0.74000  0.75130  0.78440  Biso   1.000  O
  O98      1.0000 0.77080  0.75640  0.74030  Biso   1.000  O
  C379     1.0000 0.51850  0.36290  0.79030  Biso   1.000  C
  C380     1.0000 0.54859  0.35630  0.79150  Biso   1.000  C
  C381     1.0000 0.57950  0.37910  0.80960  Biso   1.000  C
  H211     1.0000 0.58090  0.39870  0.82190  Biso   1.000  H
  C382     1.0000 0.60860  0.37230  0.80920  Biso   1.000  C
  H212     1.0000 0.62940  0.38710  0.82210  Biso   1.000  H
  C383     1.0000 0.60820  0.34480  0.79070  Biso   1.000  C
  C384     1.0000 0.57630  0.32230  0.77280  Biso   1.000  C
  H213     1.0000 0.57480  0.30270  0.76040  Biso   1.000  H
  C385     1.0000 0.54710  0.32820  0.77310  Biso   1.000  C
  H214     1.0000 0.52600  0.31310  0.76070  Biso   1.000  H
  C386     1.0000 0.63790  0.33960  0.79050  Biso   1.000  C
  C387     1.0000 0.67130  0.36650  0.79090  Biso   1.000  C
  H215     1.0000 0.67510  0.39050  0.79160  Biso   1.000  H
  C388     1.0000 0.44530  0.35450  0.84830  Biso   1.000  C
  C389     1.0000 0.43750  0.34290  0.88050  Biso   1.000  C
  C390     1.0000 0.42550  0.30770  0.89090  Biso   1.000  C
  H216     1.0000 0.42100  0.28910  0.87570  Biso   1.000  H
  C391     1.0000 0.41980  0.29950  0.92560  Biso   1.000  C
  H217     1.0000 0.41140  0.27550  0.93300  Biso   1.000  H
  C392     1.0000 0.42660  0.32650  0.94740  Biso   1.000  C
  C393     1.0000 0.44050  0.36330  0.93710  Biso   1.000  C
  H218     1.0000 0.44570  0.38190  0.95250  Biso   1.000  H
  C394     1.0000 0.44640  0.37150  0.90340  Biso   1.000  C
  H219     1.0000 0.45630  0.39590  0.89610  Biso   1.000  H
  C395     1.0000 0.41860  0.31830  0.98130  Biso   1.000  C
  C396     1.0000 0.42570  0.29540  0.99680  Biso   1.000  C
  H220     1.0000 0.43990  0.28700  0.98610  Biso   1.000  H
  C397     1.0000 0.41350  0.28350  0.02760  Biso   1.000  C
  C398     1.0000 0.40050  0.30110  0.04390  Biso   1.000  C
  H221     1.0000 0.39490  0.29530  0.06630  Biso   1.000  H
  C399     1.0000 0.39470  0.32780  0.03030  Biso   1.000  C
  C400     1.0000 0.40430  0.33610  0.99790  Biso   1.000  C
  H222     1.0000 0.40100  0.35410  0.98730  Biso   1.000  H
  C401     1.0000 0.37630  0.34380  0.04750  Biso   1.000  C
  C402     1.0000 0.34960  0.32580  0.06840  Biso   1.000  C
  H223     1.0000 0.34260  0.30120  0.07280  Biso   1.000  H
  C403     1.0000 0.33150  0.34030  0.08430  Biso   1.000  C
  H224     1.0000 0.31190  0.32650  0.09880  Biso   1.000  H
  C404     1.0000 0.34400  0.37730  0.07740  Biso   1.000  C
  C405     1.0000 0.37080  0.39610  0.05770  Biso   1.000  C
  H225     1.0000 0.37930  0.42130  0.05480  Biso   1.000  H
  C406     1.0000 0.38670  0.38040  0.04130  Biso   1.000  C
  H226     1.0000 0.40490  0.39380  0.02550  Biso   1.000  H
  C407     1.0000 0.32560  0.39450  0.09460  Biso   1.000  C
  C408     1.0000 0.41970  0.25810  0.04250  Biso   1.000  C
  C409     1.0000 0.44750  0.25090  0.03210  Biso   1.000  C
  H227     1.0000 0.46090  0.26160  0.01270  Biso   1.000  H
  C410     1.0000 0.45510  0.22720  0.05140  Biso   1.000  C
  H228     1.0000 0.47620  0.22560  0.04710  Biso   1.000  H
  C411     1.0000 0.43150  0.20630  0.07660  Biso   1.000  C
  C412     1.0000 0.40160  0.21130  0.08550  Biso   1.000  C
  H229     1.0000 0.38620  0.19820  0.10330  Biso   1.000  H
  C413     1.0000 0.39500  0.23600  0.06730  Biso   1.000  C
  H230     1.0000 0.37400  0.23780  0.07170  Biso   1.000  H
  C414     1.0000 0.43500  0.17770  0.09620  Biso   1.000  C
  C415     1.0000 0.49450  0.43410  0.75910  Biso   1.000  C
  C416     1.0000 0.51200  0.46930  0.74390  Biso   1.000  C
  C417     1.0000 0.52340  0.50070  0.76080  Biso   1.000  C
  H231     1.0000 0.51880  0.49910  0.78350  Biso   1.000  H
  C418     1.0000 0.54010  0.53230  0.74780  Biso   1.000  C
  H232     1.0000 0.54800  0.55300  0.76140  Biso   1.000  H
  C419     1.0000 0.54700  0.53720  0.71460  Biso   1.000  C
  C420     1.0000 0.53750  0.50610  0.69630  Biso   1.000  C
  H233     1.0000 0.54370  0.50820  0.67380  Biso   1.000  H
  C421     1.0000 0.51950  0.47260  0.71080  Biso   1.000  C
  H234     1.0000 0.51200  0.45140  0.69800  Biso   1.000  H
  C422     1.0000 0.56630  0.57220  0.69870  Biso   1.000  C
  C423     1.0000 0.59830  0.60050  0.71570  Biso   1.000  C
  H235     1.0000 0.60550  0.59660  0.73660  Biso   1.000  H
  C424     1.0000 0.61670  0.63230  0.69970  Biso   1.000  C
  C425     1.0000 0.60860  0.63780  0.67120  Biso   1.000  C
  H236     1.0000 0.62400  0.66060  0.66130  Biso   1.000  H
  C426     1.0000 0.57870  0.61270  0.65370  Biso   1.000  C
  C427     1.0000 0.55670  0.57750  0.66840  Biso   1.000  C
  H237     1.0000 0.53620  0.55870  0.65740  Biso   1.000  H
  C428     1.0000 0.56930  0.61930  0.62210  Biso   1.000  C
  C429     1.0000 0.57800  0.65090  0.61110  Biso   1.000  C
  H238     1.0000 0.59090  0.67140  0.62500  Biso   1.000  H
  C430     1.0000 0.56990  0.65650  0.58040  Biso   1.000  C
  H239     1.0000 0.57390  0.67990  0.57480  Biso   1.000  H
  C431     1.0000 0.55690  0.63130  0.55890  Biso   1.000  C
  C432     1.0000 0.54980  0.59710  0.56870  Biso   1.000  C
  H240     1.0000 0.53950  0.57700  0.55420  Biso   1.000  H
  C433     1.0000 0.55810  0.59370  0.60000  Biso   1.000  C
  H241     1.0000 0.55570  0.57110  0.60630  Biso   1.000  H
  C434     1.0000 0.55050  0.63700  0.52750  Biso   1.000  C
  C435     1.0000 0.64880  0.67120  0.74650  Biso   1.000  C
  H242     1.0000 0.62660  0.65870  0.75820  Biso   1.000  H
  C436     1.0000 0.65020  0.66320  0.71330  Biso   1.000  C
  C437     1.0000 0.68260  0.68190  0.69480  Biso   1.000  C
  H243     1.0000 0.68330  0.67540  0.67280  Biso   1.000  H
  C438     1.0000 0.71470  0.71140  0.71030  Biso   1.000  C
  H244     1.0000 0.73600  0.72580  0.69800  Biso   1.000  H
  C439     1.0000 0.71350  0.71820  0.74390  Biso   1.000  C
  C440     1.0000 0.68160  0.69880  0.76250  Biso   1.000  C
  H245     1.0000 0.68150  0.70360  0.78500  Biso   1.000  H
  C441     1.0000 0.74400  0.74370  0.75910  Biso   1.000  C
  Eu8      1.0000 0.13085  0.70632  0.12171  Biso   1.000  Eu
  In8      1.0000 0.11020  0.47245  0.46994  Biso   1.000  In
  O99      1.0000 0.15889  0.67647  0.10515  Biso   1.000  O
  O100     1.0000 0.18604  0.72160  0.13995  Biso   1.000  O
  O101     1.0000 0.12273  0.71775  0.17229  Biso   1.000  O
  O102     1.0000 0.10776  0.66293  0.16124  Biso   1.000  O
  O103     1.0000 0.96593  0.70837  0.44451  Biso   1.000  O
  O104     1.0000 0.00354  0.76106  0.42233  Biso   1.000  O
  O105     1.0000 0.15397  0.73953  0.07574  Biso   1.000  O
  O106     1.0000 0.15215  0.76503  0.12113  Biso   1.000  O
  O107     1.0000 0.08077  0.49223  0.45133  Biso   1.000  O
  O108     1.0000 0.12547  0.50853  0.42203  Biso   1.000  O
  O109     1.0000 0.22127  0.99853  0.85123  Biso   1.000  O
  O110     1.0000 0.20637  0.94363  0.84113  Biso   1.000  O
  O111     1.0000 0.40667  0.08463  0.11773  Biso   1.000  O
  O112     1.0000 0.43747  0.08973  0.07363  Biso   1.000  O
  C442     1.0000 0.18517  0.69623  0.12363  Biso   1.000  C
  C443     1.0000 0.21526  0.68963  0.12483  Biso   1.000  C
  C444     1.0000 0.24617  0.71243  0.14293  Biso   1.000  C
  H246     1.0000 0.24757  0.73203  0.15523  Biso   1.000  H
  C445     1.0000 0.27527  0.70563  0.14253  Biso   1.000  C
  H247     1.0000 0.29607  0.72043  0.15543  Biso   1.000  H
  C446     1.0000 0.27487  0.67813  0.12403  Biso   1.000  C
  C447     1.0000 0.24297  0.65563  0.10613  Biso   1.000  C
  H248     1.0000 0.24147  0.63603  0.09373  Biso   1.000  H
  C448     1.0000 0.21377  0.66153  0.10643  Biso   1.000  C
  H249     1.0000 0.19267  0.64643  0.09403  Biso   1.000  H
  C449     1.0000 0.30457  0.67293  0.12383  Biso   1.000  C
  C450     1.0000 0.33797  0.69983  0.12423  Biso   1.000  C
  H250     1.0000 0.34177  0.72383  0.12493  Biso   1.000  H
  C451     1.0000 0.11197  0.68783  0.18163  Biso   1.000  C
  C452     1.0000 0.10417  0.67623  0.21383  Biso   1.000  C
  C453     1.0000 0.09217  0.64103  0.22423  Biso   1.000  C
  H251     1.0000 0.08767  0.62243  0.20903  Biso   1.000  H
  C454     1.0000 0.08647  0.63283  0.25893  Biso   1.000  C
  H252     1.0000 0.07807  0.60883  0.26633  Biso   1.000  H
  C455     1.0000 0.09327  0.65983  0.28073  Biso   1.000  C
  C456     1.0000 0.10717  0.69663  0.27043  Biso   1.000  C
  H253     1.0000 0.11237  0.71523  0.28583  Biso   1.000  H
  C457     1.0000 0.11307  0.70483  0.23673  Biso   1.000  C
  H254     1.0000 0.12297  0.72923  0.22943  Biso   1.000  H
  C458     1.0000 0.08527  0.65163  0.31463  Biso   1.000  C
  C459     1.0000 0.09237  0.62873  0.33013  Biso   1.000  C
  H255     1.0000 0.10657  0.62033  0.31943  Biso   1.000  H
  C460     1.0000 0.08017  0.61683  0.36093  Biso   1.000  C
  C461     1.0000 0.06717  0.63443  0.37723  Biso   1.000  C
  H256     1.0000 0.06157  0.62863  0.39963  Biso   1.000  H
  C462     1.0000 0.06137  0.66113  0.36363  Biso   1.000  C
  C463     1.0000 0.07097  0.66943  0.33123  Biso   1.000  C
  H257     1.0000 0.06767  0.68743  0.32063  Biso   1.000  H
  C464     1.0000 0.04297  0.67713  0.38083  Biso   1.000  C
  C465     1.0000 0.01627  0.65913  0.40173  Biso   1.000  C
  H258     1.0000 0.00927  0.63453  0.40613  Biso   1.000  H
  C466     1.0000 0.99817  0.67363  0.41763  Biso   1.000  C
  H259     1.0000 0.97857  0.65983  0.43213  Biso   1.000  H
  C467     1.0000 0.01067  0.71063  0.41073  Biso   1.000  C
  C468     1.0000 0.03747  0.72943  0.39103  Biso   1.000  C
  H260     1.0000 0.04597  0.75463  0.38813  Biso   1.000  H
  C469     1.0000 0.05337  0.71373  0.37463  Biso   1.000  C
  H261     1.0000 0.07157  0.72713  0.35883  Biso   1.000  H
  C470     1.0000 0.99227  0.72783  0.42793  Biso   1.000  C
  C471     1.0000 0.08637  0.59143  0.37583  Biso   1.000  C
  C472     1.0000 0.11417  0.58423  0.36543  Biso   1.000  C
  H262     1.0000 0.12757  0.59493  0.34603  Biso   1.000  H
  C473     1.0000 0.12177  0.56053  0.38473  Biso   1.000  C
  H263     1.0000 0.14287  0.55893  0.38043  Biso   1.000  H
  C474     1.0000 0.09817  0.53963  0.40993  Biso   1.000  C
  C475     1.0000 0.06827  0.54463  0.41883  Biso   1.000  C
  H264     1.0000 0.05287  0.53153  0.43663  Biso   1.000  H
  C476     1.0000 0.06167  0.56933  0.40063  Biso   1.000  C
  H265     1.0000 0.04067  0.57113  0.40503  Biso   1.000  H
  C477     1.0000 0.10167  0.51103  0.42953  Biso   1.000  C
  C478     1.0000 0.16117  0.76743  0.09243  Biso   1.000  C
  C479     1.0000 0.17867  0.80263  0.07723  Biso   1.000  C
  C480     1.0000 0.19007  0.83403  0.09413  Biso   1.000  C
  H266     1.0000 0.18547  0.83243  0.11683  Biso   1.000  H
  C481     1.0000 0.20677  0.86563  0.08113  Biso   1.000  C
  H267     1.0000 0.21467  0.88633  0.09473  Biso   1.000  H
  C482     1.0000 0.21367  0.87053  0.04793  Biso   1.000  C
  C483     1.0000 0.20417  0.83943  0.02963  Biso   1.000  C
  H268     1.0000 0.21037  0.84153  0.00713  Biso   1.000  H
  C484     1.0000 0.18617  0.80593  0.04413  Biso   1.000  C
  H269     1.0000 0.17867  0.78473  0.03133  Biso   1.000  H
  C485     1.0000 0.23297  0.90553  0.03203  Biso   1.000  C
  C486     1.0000 0.26497  0.93383  0.04903  Biso   1.000  C
  H270     1.0000 0.27217  0.92993  0.06993  Biso   1.000  H
  C487     1.0000 0.28337  0.96563  0.03303  Biso   1.000  C
  C488     1.0000 0.27527  0.97113  0.00453  Biso   1.000  C
  H271     1.0000 0.29067  0.99393  0.99463  Biso   1.000  H
  C489     1.0000 0.24537  0.94603  0.98703  Biso   1.000  C
  C490     1.0000 0.22337  0.91083  0.00173  Biso   1.000  C
  H272     1.0000 0.20287  0.89203  0.99073  Biso   1.000  H
  C491     1.0000 0.23597  0.95263  0.95543  Biso   1.000  C
  C492     1.0000 0.24467  0.98423  0.94443  Biso   1.000  C
  H273     1.0000 0.25757  0.00473  0.95833  Biso   1.000  H
  C493     1.0000 0.23657  0.98983  0.91373  Biso   1.000  C
  H274     1.0000 0.24057  0.01323  0.90813  Biso   1.000  H
  C494     1.0000 0.22357  0.96463  0.89223  Biso   1.000  C
  C495     1.0000 0.21647  0.93043  0.90203  Biso   1.000  C
  H275     1.0000 0.20617  0.91033  0.88753  Biso   1.000  H
  C496     1.0000 0.22477  0.92703  0.93333  Biso   1.000  C
  H276     1.0000 0.22237  0.90443  0.93963  Biso   1.000  H
  C497     1.0000 0.21717  0.97033  0.86083  Biso   1.000  C
  C498     1.0000 0.31547  0.00453  0.07983  Biso   1.000  C
  H277     1.0000 0.29327  0.99203  0.09153  Biso   1.000  H
  C499     1.0000 0.31687  0.99653  0.04663  Biso   1.000  C
  C500     1.0000 0.34927  0.01523  0.02813  Biso   1.000  C
  H278     1.0000 0.34997  0.00873  0.00613  Biso   1.000  H
  C501     1.0000 0.38137  0.04473  0.04363  Biso   1.000  C
  H279     1.0000 0.40267  0.05913  0.03133  Biso   1.000  H
  C502     1.0000 0.38017  0.05153  0.07723  Biso   1.000  C
  C503     1.0000 0.34827  0.03213  0.09583  Biso   1.000  C
  H280     1.0000 0.34817  0.03693  0.11833  Biso   1.000  H
  C504     1.0000 0.41067  0.07703  0.09243  Biso   1.000  C
  Eu9      1.0000 0.79752  0.03966  0.45504  Biso   1.000  Eu
  In9      1.0000 0.77686  0.80579  0.80328  Biso   1.000  In
  O113     1.0000 0.82555  0.00981  0.43849  Biso   1.000  O
  O114     1.0000 0.85270  0.05494  0.47329  Biso   1.000  O
  O115     1.0000 0.78939  0.05109  0.50563  Biso   1.000  O
  O116     1.0000 0.77442  0.99627  0.49458  Biso   1.000  O
  O117     1.0000 0.63259  0.04171  0.77785  Biso   1.000  O
  O118     1.0000 0.67020  0.09440  0.75567  Biso   1.000  O
  O119     1.0000 0.82063  0.07287  0.40908  Biso   1.000  O
  O120     1.0000 0.81881  0.09837  0.45447  Biso   1.000  O
  O121     1.0000 0.74743  0.82557  0.78467  Biso   1.000  O
  O122     1.0000 0.79213  0.84187  0.75537  Biso   1.000  O
  O123     1.0000 0.88793  0.33187  0.18457  Biso   1.000  O
  O124     1.0000 0.87303  0.27697  0.17447  Biso   1.000  O
  O125     1.0000 0.07333  0.41797  0.45107  Biso   1.000  O
  O126     1.0000 0.10413  0.42307  0.40697  Biso   1.000  O
  C505     1.0000 0.85183  0.02957  0.45697  Biso   1.000  C
  C506     1.0000 0.88192  0.02297  0.45817  Biso   1.000  C
  C507     1.0000 0.91283  0.04577  0.47627  Biso   1.000  C
  H281     1.0000 0.91423  0.06537  0.48857  Biso   1.000  H
  C508     1.0000 0.94193  0.03897  0.47587  Biso   1.000  C
  H282     1.0000 0.96273  0.05377  0.48877  Biso   1.000  H
  C509     1.0000 0.94153  0.01147  0.45737  Biso   1.000  C
  C510     1.0000 0.90963  0.98897  0.43947  Biso   1.000  C
  H283     1.0000 0.90813  0.96937  0.42707  Biso   1.000  H
  C511     1.0000 0.88043  0.99487  0.43977  Biso   1.000  C
  H284     1.0000 0.85933  0.97977  0.42737  Biso   1.000  H
  C512     1.0000 0.97123  0.00627  0.45717  Biso   1.000  C
  C513     1.0000 0.00463  0.03317  0.45757  Biso   1.000  C
  H285     1.0000 0.00843  0.05717  0.45827  Biso   1.000  H
  C514     1.0000 0.77863  0.02117  0.51497  Biso   1.000  C
  C515     1.0000 0.77083  0.00957  0.54717  Biso   1.000  C
  C516     1.0000 0.75883  0.97437  0.55757  Biso   1.000  C
  H286     1.0000 0.75433  0.95577  0.54237  Biso   1.000  H
  C517     1.0000 0.75313  0.96617  0.59227  Biso   1.000  C
  H287     1.0000 0.74473  0.94217  0.59967  Biso   1.000  H
  C518     1.0000 0.75993  0.99317  0.61407  Biso   1.000  C
  C519     1.0000 0.77383  0.02997  0.60377  Biso   1.000  C
  H288     1.0000 0.77903  0.04857  0.61917  Biso   1.000  H
  C520     1.0000 0.77973  0.03817  0.57007  Biso   1.000  C
  H289     1.0000 0.78963  0.06257  0.56277  Biso   1.000  H
  C521     1.0000 0.75193  0.98497  0.64797  Biso   1.000  C
  C522     1.0000 0.75903  0.96207  0.66347  Biso   1.000  C
  H290     1.0000 0.77323  0.95367  0.65277  Biso   1.000  H
  C523     1.0000 0.74683  0.95017  0.69427  Biso   1.000  C
  C524     1.0000 0.73383  0.96777  0.71057  Biso   1.000  C
  H291     1.0000 0.72823  0.96197  0.73297  Biso   1.000  H
  C525     1.0000 0.72803  0.99447  0.69697  Biso   1.000  C
  C526     1.0000 0.73763  0.00277  0.66457  Biso   1.000  C
  H292     1.0000 0.73433  0.02077  0.65397  Biso   1.000  H
  C527     1.0000 0.70963  0.01047  0.71417  Biso   1.000  C
  C528     1.0000 0.68293  0.99247  0.73507  Biso   1.000  C
  H293     1.0000 0.67593  0.96787  0.73947  Biso   1.000  H
  C529     1.0000 0.66483  0.00697  0.75097  Biso   1.000  C
  H294     1.0000 0.64523  0.99317  0.76547  Biso   1.000  H
  C530     1.0000 0.67733  0.04397  0.74407  Biso   1.000  C
  C531     1.0000 0.70413  0.06277  0.72437  Biso   1.000  C
  H295     1.0000 0.71263  0.08797  0.72147  Biso   1.000  H
  C532     1.0000 0.72003  0.04707  0.70797  Biso   1.000  C
  H296     1.0000 0.73823  0.06047  0.69217  Biso   1.000  H
  C533     1.0000 0.65893  0.06117  0.76127  Biso   1.000  C
  C534     1.0000 0.75303  0.92477  0.70917  Biso   1.000  C
  C535     1.0000 0.78083  0.91757  0.69877  Biso   1.000  C
  H297     1.0000 0.79423  0.92827  0.67937  Biso   1.000  H
  C536     1.0000 0.78843  0.89387  0.71807  Biso   1.000  C
  H298     1.0000 0.80953  0.89227  0.71377  Biso   1.000  H
  C537     1.0000 0.76483  0.87297  0.74327  Biso   1.000  C
  C538     1.0000 0.73493  0.87797  0.75217  Biso   1.000  C
  H299     1.0000 0.71953  0.86487  0.76997  Biso   1.000  H
  C539     1.0000 0.72833  0.90267  0.73397  Biso   1.000  C
  H300     1.0000 0.70733  0.90447  0.73837  Biso   1.000  H
  C540     1.0000 0.76833  0.84437  0.76287  Biso   1.000  C
  C541     1.0000 0.82783  0.10077  0.42577  Biso   1.000  C
  C542     1.0000 0.84533  0.13597  0.41057  Biso   1.000  C
  C543     1.0000 0.85673  0.16737  0.42747  Biso   1.000  C
  H301     1.0000 0.85213  0.16577  0.45017  Biso   1.000  H
  C544     1.0000 0.87343  0.19897  0.41447  Biso   1.000  C
  H302     1.0000 0.88133  0.21967  0.42807  Biso   1.000  H
  C545     1.0000 0.88033  0.20387  0.38127  Biso   1.000  C
  C546     1.0000 0.87083  0.17277  0.36297  Biso   1.000  C
  H303     1.0000 0.87703  0.17487  0.34047  Biso   1.000  H
  C547     1.0000 0.85283  0.13927  0.37747  Biso   1.000  C
  H304     1.0000 0.84533  0.11807  0.36467  Biso   1.000  H
  C548     1.0000 0.89963  0.23887  0.36537  Biso   1.000  C
  C549     1.0000 0.93163  0.26717  0.38237  Biso   1.000  C
  H305     1.0000 0.93883  0.26327  0.40327  Biso   1.000  H
  C550     1.0000 0.95003  0.29897  0.36637  Biso   1.000  C
  C551     1.0000 0.94193  0.30447  0.33787  Biso   1.000  C
  H306     1.0000 0.95733  0.32727  0.32797  Biso   1.000  H
  C552     1.0000 0.91203  0.27937  0.32037  Biso   1.000  C
  C553     1.0000 0.89003  0.24417  0.33507  Biso   1.000  C
  H307     1.0000 0.86953  0.22537  0.32407  Biso   1.000  H
  C554     1.0000 0.90263  0.28597  0.28877  Biso   1.000  C
  C555     1.0000 0.91133  0.31757  0.27777  Biso   1.000  C
  H308     1.0000 0.92423  0.33807  0.29167  Biso   1.000  H
  C556     1.0000 0.90323  0.32317  0.24707  Biso   1.000  C
  H309     1.0000 0.90723  0.34657  0.24147  Biso   1.000  H
  C557     1.0000 0.89023  0.29797  0.22557  Biso   1.000  C
  C558     1.0000 0.88313  0.26377  0.23537  Biso   1.000  C
  H310     1.0000 0.87283  0.24367  0.22087  Biso   1.000  H
  C559     1.0000 0.89143  0.26037  0.26667  Biso   1.000  C
  H311     1.0000 0.88903  0.23777  0.27297  Biso   1.000  H
  C560     1.0000 0.88383  0.30367  0.19417  Biso   1.000  C
  C561     1.0000 0.98213  0.33787  0.41317  Biso   1.000  C
  H312     1.0000 0.95993  0.32537  0.42487  Biso   1.000  H
  C562     1.0000 0.98353  0.32987  0.37997  Biso   1.000  C
  C563     1.0000 0.01593  0.34857  0.36147  Biso   1.000  C
  H313     1.0000 0.01663  0.34207  0.33947  Biso   1.000  H
  C564     1.0000 0.04803  0.37807  0.37697  Biso   1.000  C
  H314     1.0000 0.06933  0.39247  0.36467  Biso   1.000  H
  C565     1.0000 0.04683  0.38487  0.41057  Biso   1.000  C
  C566     1.0000 0.01493  0.36547  0.42917  Biso   1.000  C
  H315     1.0000 0.01483  0.37027  0.45167  Biso   1.000  H
  C567     1.0000 0.07733  0.41037  0.42577  Biso   1.000  C
  Eu10     1.0000 0.37299  0.90881  0.21163  Biso   1.000  Eu
  In10     1.0000 0.13912  0.69559  0.86339  Biso   1.000  In
  O127     1.0000 0.34314  0.85092  0.22818  Biso   1.000  O
  O128     1.0000 0.38827  0.86890  0.19338  Biso   1.000  O
  O129     1.0000 0.38442  0.92836  0.16104  Biso   1.000  O
  O130     1.0000 0.32960  0.88851  0.17209  Biso   1.000  O
  O131     1.0000 0.37504  0.07578  0.88882  Biso   1.000  O
  O132     1.0000 0.42773  0.09086  0.91100  Biso   1.000  O
  O133     1.0000 0.40620  0.91890  0.25759  Biso   1.000  O
  O134     1.0000 0.43170  0.94622  0.21220  Biso   1.000  O
  O135     1.0000 0.15890  0.74480  0.88200  Biso   1.000  O
  O136     1.0000 0.17520  0.71640  0.91130  Biso   1.000  O
  O137     1.0000 0.66520  0.11060  0.48210  Biso   1.000  O
  O138     1.0000 0.61030  0.07060  0.49220  Biso   1.000  O
  O139     1.0000 0.75130  0.01130  0.21560  Biso   1.000  O
  O140     1.0000 0.75640  0.98560  0.25970  Biso   1.000  O
  C568     1.0000 0.36290  0.84440  0.20970  Biso   1.000  C
  C569     1.0000 0.35630  0.80771  0.20850  Biso   1.000  C
  C570     1.0000 0.37910  0.79960  0.19040  Biso   1.000  C
  H316     1.0000 0.39870  0.81780  0.17810  Biso   1.000  H
  C571     1.0000 0.37230  0.76370  0.19080  Biso   1.000  C
  H317     1.0000 0.38710  0.75770  0.17790  Biso   1.000  H
  C572     1.0000 0.34480  0.73660  0.20930  Biso   1.000  C
  C573     1.0000 0.32230  0.74600  0.22720  Biso   1.000  C
  H318     1.0000 0.30270  0.72790  0.23960  Biso   1.000  H
  C574     1.0000 0.32820  0.78110  0.22690  Biso   1.000  C
  H319     1.0000 0.31310  0.78710  0.23930  Biso   1.000  H
  C575     1.0000 0.33960  0.70170  0.20950  Biso   1.000  C
  C576     1.0000 0.36650  0.69520  0.20910  Biso   1.000  C
  H320     1.0000 0.39050  0.71540  0.20840  Biso   1.000  H
  C577     1.0000 0.35450  0.90920  0.15170  Biso   1.000  C
  C578     1.0000 0.34290  0.90540  0.11950  Biso   1.000  C
  C579     1.0000 0.30770  0.88220  0.10910  Biso   1.000  C
  H321     1.0000 0.28910  0.86810  0.12430  Biso   1.000  H
  C580     1.0000 0.29950  0.87970  0.07440  Biso   1.000  C
  H322     1.0000 0.27550  0.86410  0.06700  Biso   1.000  H
  C581     1.0000 0.32650  0.89990  0.05260  Biso   1.000  C
  C582     1.0000 0.36330  0.92280  0.06290  Biso   1.000  C
  H323     1.0000 0.38190  0.93620  0.04750  Biso   1.000  H
  C583     1.0000 0.37150  0.92510  0.09660  Biso   1.000  C
  H324     1.0000 0.39590  0.93960  0.10390  Biso   1.000  H
  C584     1.0000 0.31830  0.89970  0.01870  Biso   1.000  C
  C585     1.0000 0.29540  0.86970  0.00320  Biso   1.000  C
  H325     1.0000 0.28700  0.84710  0.01390  Biso   1.000  H
  C586     1.0000 0.28350  0.87000  0.97240  Biso   1.000  C
  C587     1.0000 0.30110  0.90060  0.95610  Biso   1.000  C
  H326     1.0000 0.29530  0.90040  0.93370  Biso   1.000  H
  C588     1.0000 0.32780  0.93310  0.96970  Biso   1.000  C
  C589     1.0000 0.33610  0.93180  0.00210  Biso   1.000  C
  H327     1.0000 0.35410  0.95310  0.01270  Biso   1.000  H
  C590     1.0000 0.34380  0.96750  0.95250  Biso   1.000  C
  C591     1.0000 0.32580  0.97620  0.93160  Biso   1.000  C
  H328     1.0000 0.30120  0.95860  0.92720  Biso   1.000  H
  C592     1.0000 0.34030  0.00880  0.91570  Biso   1.000  C
  H329     1.0000 0.32650  0.01460  0.90120  Biso   1.000  H
  C593     1.0000 0.37730  0.03330  0.92260  Biso   1.000  C
  C594     1.0000 0.39610  0.02530  0.94230  Biso   1.000  C
  H330     1.0000 0.42130  0.04200  0.94520  Biso   1.000  H
  C595     1.0000 0.38040  0.99370  0.95870  Biso   1.000  C
  H331     1.0000 0.39380  0.98890  0.97450  Biso   1.000  H
  C596     1.0000 0.39450  0.06890  0.90540  Biso   1.000  C
  C597     1.0000 0.25810  0.83840  0.95750  Biso   1.000  C
  C598     1.0000 0.25090  0.80340  0.96790  Biso   1.000  C
  H332     1.0000 0.26160  0.80070  0.98730  Biso   1.000  H
  C599     1.0000 0.22720  0.77210  0.94860  Biso   1.000  C
  H333     1.0000 0.22560  0.74940  0.95290  Biso   1.000  H
  C600     1.0000 0.20630  0.77480  0.92340  Biso   1.000  C
  C601     1.0000 0.21130  0.80970  0.91450  Biso   1.000  C
  H334     1.0000 0.19820  0.81200  0.89670  Biso   1.000  H
  C602     1.0000 0.23600  0.84100  0.93270  Biso   1.000  C
  H335     1.0000 0.23780  0.86380  0.92830  Biso   1.000  H
  C603     1.0000 0.17770  0.74270  0.90380  Biso   1.000  C
  C604     1.0000 0.43410  0.93960  0.24090  Biso   1.000  C
  C605     1.0000 0.46930  0.95730  0.25610  Biso   1.000  C
  C606     1.0000 0.50070  0.97730  0.23920  Biso   1.000  C
  H336     1.0000 0.49910  0.98030  0.21650  Biso   1.000  H
  C607     1.0000 0.53230  0.99220  0.25220  Biso   1.000  C
  H337     1.0000 0.55300  0.00500  0.23860  Biso   1.000  H
  C608     1.0000 0.53720  0.99020  0.28540  Biso   1.000  C
  C609     1.0000 0.50610  0.96860  0.30370  Biso   1.000  C
  H338     1.0000 0.50820  0.96450  0.32620  Biso   1.000  H
  C610     1.0000 0.47260  0.95310  0.28920  Biso   1.000  C
  H339     1.0000 0.45140  0.93940  0.30200  Biso   1.000  H
  C611     1.0000 0.57220  0.00590  0.30130  Biso   1.000  C
  C612     1.0000 0.60050  0.00220  0.28430  Biso   1.000  C
  H340     1.0000 0.59660  0.99110  0.26340  Biso   1.000  H
  C613     1.0000 0.63230  0.01560  0.30030  Biso   1.000  C
  C614     1.0000 0.63780  0.02920  0.32880  Biso   1.000  C
  H341     1.0000 0.66060  0.03660  0.33870  Biso   1.000  H
  C615     1.0000 0.61270  0.03400  0.34630  Biso   1.000  C
  C616     1.0000 0.57750  0.02080  0.33160  Biso   1.000  C
  H342     1.0000 0.55870  0.02250  0.34260  Biso   1.000  H
  C617     1.0000 0.61930  0.05000  0.37790  Biso   1.000  C
  C618     1.0000 0.65090  0.07290  0.38890  Biso   1.000  C
  H343     1.0000 0.67140  0.08050  0.37500  Biso   1.000  H
  C619     1.0000 0.65650  0.08660  0.41960  Biso   1.000  C
  H344     1.0000 0.67990  0.10600  0.42520  Biso   1.000  H
  C620     1.0000 0.63130  0.07440  0.44110  Biso   1.000  C
  C621     1.0000 0.59710  0.04730  0.43130  Biso   1.000  C
  H345     1.0000 0.57700  0.03750  0.44580  Biso   1.000  H
  C622     1.0000 0.59370  0.03560  0.40000  Biso   1.000  C
  H346     1.0000 0.57110  0.01540  0.39370  Biso   1.000  H
  C623     1.0000 0.63700  0.08650  0.47250  Biso   1.000  C
  C624     1.0000 0.67120  0.02240  0.25350  Biso   1.000  C
  H347     1.0000 0.65870  0.03210  0.24180  Biso   1.000  H
  C625     1.0000 0.66320  0.01300  0.28670  Biso   1.000  C
  C626     1.0000 0.68190  0.99930  0.30520  Biso   1.000  C
  H348     1.0000 0.67540  0.99210  0.32720  Biso   1.000  H
  C627     1.0000 0.71140  0.99670  0.28970  Biso   1.000  C
  H349     1.0000 0.72580  0.98980  0.30200  Biso   1.000  H
  C628     1.0000 0.71820  0.00470  0.25610  Biso   1.000  C
  C629     1.0000 0.69880  0.01720  0.23750  Biso   1.000  C
  H350     1.0000 0.70360  0.02210  0.21500  Biso   1.000  H
  C630     1.0000 0.74370  0.99970  0.24090  Biso   1.000  C
  Eu11     1.0000 0.03966  0.24214  0.54496  Biso   1.000  Eu
  In11     1.0000 0.80579  0.02892  0.19672  Biso   1.000  In
  O141     1.0000 0.00981  0.18425  0.56151  Biso   1.000  O
  O142     1.0000 0.05494  0.20223  0.52671  Biso   1.000  O
  O143     1.0000 0.05109  0.26169  0.49437  Biso   1.000  O
  O144     1.0000 0.99627  0.22184  0.50542  Biso   1.000  O
  O145     1.0000 0.04171  0.40911  0.22215  Biso   1.000  O
  O146     1.0000 0.09440  0.42419  0.24433  Biso   1.000  O
  O147     1.0000 0.07287  0.25223  0.59092  Biso   1.000  O
  O148     1.0000 0.09837  0.27955  0.54553  Biso   1.000  O
  O149     1.0000 0.82557  0.07813  0.21533  Biso   1.000  O
  O150     1.0000 0.84187  0.04973  0.24463  Biso   1.000  O
  O151     1.0000 0.33187  0.44393  0.81543  Biso   1.000  O
  O152     1.0000 0.27697  0.40393  0.82553  Biso   1.000  O
  O153     1.0000 0.41797  0.34463  0.54893  Biso   1.000  O
  O154     1.0000 0.42307  0.31893  0.59303  Biso   1.000  O
  C631     1.0000 0.02957  0.17773  0.54303  Biso   1.000  C
  C632     1.0000 0.02297  0.14104  0.54183  Biso   1.000  C
  C633     1.0000 0.04577  0.13293  0.52373  Biso   1.000  C
  H351     1.0000 0.06537  0.15113  0.51143  Biso   1.000  H
  C634     1.0000 0.03897  0.09703  0.52413  Biso   1.000  C
  H352     1.0000 0.05377  0.09103  0.51123  Biso   1.000  H
  C635     1.0000 0.01147  0.06993  0.54263  Biso   1.000  C
  C636     1.0000 0.98897  0.07933  0.56053  Biso   1.000  C
  H353     1.0000 0.96937  0.06123  0.57293  Biso   1.000  H
  C637     1.0000 0.99487  0.11443  0.56023  Biso   1.000  C
  H354     1.0000 0.97977  0.12043  0.57263  Biso   1.000  H
  C638     1.0000 0.00627  0.03503  0.54283  Biso   1.000  C
  C639     1.0000 0.03317  0.02853  0.54243  Biso   1.000  C
  H355     1.0000 0.05717  0.04873  0.54173  Biso   1.000  H
  C640     1.0000 0.02117  0.24253  0.48503  Biso   1.000  C
  C641     1.0000 0.00957  0.23873  0.45283  Biso   1.000  C
  C642     1.0000 0.97437  0.21553  0.44243  Biso   1.000  C
  H356     1.0000 0.95577  0.20143  0.45763  Biso   1.000  H
  C643     1.0000 0.96617  0.21303  0.40773  Biso   1.000  C
  H357     1.0000 0.94217  0.19743  0.40033  Biso   1.000  H
  C644     1.0000 0.99317  0.23323  0.38593  Biso   1.000  C
  C645     1.0000 0.02997  0.25613  0.39623  Biso   1.000  C
  H358     1.0000 0.04857  0.26953  0.38083  Biso   1.000  H
  C646     1.0000 0.03817  0.25843  0.42993  Biso   1.000  C
  H359     1.0000 0.06257  0.27293  0.43723  Biso   1.000  H
  C647     1.0000 0.98497  0.23303  0.35203  Biso   1.000  C
  C648     1.0000 0.96207  0.20303  0.33653  Biso   1.000  C
  H360     1.0000 0.95367  0.18043  0.34723  Biso   1.000  H
  C649     1.0000 0.95017  0.20333  0.30573  Biso   1.000  C
  C650     1.0000 0.96777  0.23393  0.28943  Biso   1.000  C
  H361     1.0000 0.96197  0.23373  0.26703  Biso   1.000  H
  C651     1.0000 0.99447  0.26643  0.30303  Biso   1.000  C
  C652     1.0000 0.00277  0.26513  0.33543  Biso   1.000  C
  H362     1.0000 0.02077  0.28643  0.34603  Biso   1.000  H
  C653     1.0000 0.01047  0.30083  0.28583  Biso   1.000  C
  C654     1.0000 0.99247  0.30953  0.26493  Biso   1.000  C
  H363     1.0000 0.96787  0.29193  0.26053  Biso   1.000  H
  C655     1.0000 0.00697  0.34213  0.24903  Biso   1.000  C
  H364     1.0000 0.99317  0.34793  0.23453  Biso   1.000  H
  C656     1.0000 0.04397  0.36663  0.25593  Biso   1.000  C
  C657     1.0000 0.06277  0.35863  0.27563  Biso   1.000  C
  H365     1.0000 0.08797  0.37533  0.27853  Biso   1.000  H
  C658     1.0000 0.04707  0.32703  0.29203  Biso   1.000  C
  H366     1.0000 0.06047  0.32223  0.30783  Biso   1.000  H
  C659     1.0000 0.06117  0.40223  0.23873  Biso   1.000  C
  C660     1.0000 0.92477  0.17173  0.29083  Biso   1.000  C
  C661     1.0000 0.91757  0.13673  0.30123  Biso   1.000  C
  H367     1.0000 0.92827  0.13403  0.32063  Biso   1.000  H
  C662     1.0000 0.89387  0.10543  0.28193  Biso   1.000  C
  H368     1.0000 0.89227  0.08273  0.28623  Biso   1.000  H
  C663     1.0000 0.87297  0.10813  0.25673  Biso   1.000  C
  C664     1.0000 0.87797  0.14303  0.24783  Biso   1.000  C
  H369     1.0000 0.86487  0.14533  0.23003  Biso   1.000  H
  C665     1.0000 0.90267  0.17433  0.26603  Biso   1.000  C
  H370     1.0000 0.90447  0.19713  0.26163  Biso   1.000  H
  C666     1.0000 0.84437  0.07603  0.23713  Biso   1.000  C
  C667     1.0000 0.10077  0.27293  0.57423  Biso   1.000  C
  C668     1.0000 0.13597  0.29063  0.58943  Biso   1.000  C
  C669     1.0000 0.16737  0.31063  0.57253  Biso   1.000  C
  H371     1.0000 0.16577  0.31363  0.54983  Biso   1.000  H
  C670     1.0000 0.19897  0.32553  0.58553  Biso   1.000  C
  H372     1.0000 0.21967  0.33833  0.57193  Biso   1.000  H
  C671     1.0000 0.20387  0.32353  0.61873  Biso   1.000  C
  C672     1.0000 0.17277  0.30193  0.63703  Biso   1.000  C
  H373     1.0000 0.17487  0.29783  0.65953  Biso   1.000  H
  C673     1.0000 0.13927  0.28643  0.62253  Biso   1.000  C
  H374     1.0000 0.11807  0.27273  0.63533  Biso   1.000  H
  C674     1.0000 0.23887  0.33923  0.63463  Biso   1.000  C
  C675     1.0000 0.26717  0.33553  0.61763  Biso   1.000  C
  H375     1.0000 0.26327  0.32443  0.59673  Biso   1.000  H
  C676     1.0000 0.29897  0.34893  0.63363  Biso   1.000  C
  C677     1.0000 0.30447  0.36253  0.66213  Biso   1.000  C
  H376     1.0000 0.32727  0.36993  0.67203  Biso   1.000  H
  C678     1.0000 0.27937  0.36733  0.67963  Biso   1.000  C
  C679     1.0000 0.24417  0.35413  0.66493  Biso   1.000  C
  H377     1.0000 0.22537  0.35583  0.67593  Biso   1.000  H
  C680     1.0000 0.28597  0.38333  0.71123  Biso   1.000  C
  C681     1.0000 0.31757  0.40623  0.72223  Biso   1.000  C
  H378     1.0000 0.33807  0.41383  0.70833  Biso   1.000  H
  C682     1.0000 0.32317  0.41993  0.75293  Biso   1.000  C
  H379     1.0000 0.34657  0.43933  0.75853  Biso   1.000  H
  C683     1.0000 0.29797  0.40773  0.77443  Biso   1.000  C
  C684     1.0000 0.26377  0.38063  0.76463  Biso   1.000  C
  H380     1.0000 0.24367  0.37083  0.77913  Biso   1.000  H
  C685     1.0000 0.26037  0.36893  0.73333  Biso   1.000  C
  H381     1.0000 0.23777  0.34873  0.72703  Biso   1.000  H
  C686     1.0000 0.30367  0.41983  0.80583  Biso   1.000  C
  C687     1.0000 0.33787  0.35573  0.58683  Biso   1.000  C
  H382     1.0000 0.32537  0.36543  0.57513  Biso   1.000  H
  C688     1.0000 0.32987  0.34633  0.62003  Biso   1.000  C
  C689     1.0000 0.34857  0.33263  0.63853  Biso   1.000  C
  H383     1.0000 0.34207  0.32543  0.66053  Biso   1.000  H
  C690     1.0000 0.37807  0.33003  0.62303  Biso   1.000  C
  H384     1.0000 0.39247  0.32313  0.63533  Biso   1.000  H
  C691     1.0000 0.38487  0.33803  0.58943  Biso   1.000  C
  C692     1.0000 0.36547  0.35053  0.57083  Biso   1.000  C
  H385     1.0000 0.37027  0.35543  0.54833  Biso   1.000  H
  C693     1.0000 0.41037  0.33303  0.57423  Biso   1.000  C
  Eu12     1.0000 0.70632  0.57547  0.87829  Biso   1.000  Eu
  In12     1.0000 0.47245  0.36226  0.53006  Biso   1.000  In
  O155     1.0000 0.67647  0.51759  0.89485  Biso   1.000  O
  O156     1.0000 0.72160  0.53557  0.86005  Biso   1.000  O
  O157     1.0000 0.71775  0.59503  0.82771  Biso   1.000  O
  O158     1.0000 0.66293  0.55518  0.83876  Biso   1.000  O
  O159     1.0000 0.70837  0.74245  0.55549  Biso   1.000  O
  O160     1.0000 0.76106  0.75753  0.57767  Biso   1.000  O
  O161     1.0000 0.73953  0.58557  0.92426  Biso   1.000  O
  O162     1.0000 0.76503  0.61289  0.87887  Biso   1.000  O
  O163     1.0000 0.49223  0.41147  0.54867  Biso   1.000  O
  O164     1.0000 0.50853  0.38307  0.57797  Biso   1.000  O
  O165     1.0000 0.99853  0.77727  0.14877  Biso   1.000  O
  O166     1.0000 0.94363  0.73727  0.15887  Biso   1.000  O
  O167     1.0000 0.08463  0.67797  0.88227  Biso   1.000  O
  O168     1.0000 0.08973  0.65227  0.92637  Biso   1.000  O
  C694     1.0000 0.69623  0.51107  0.87637  Biso   1.000  C
  C695     1.0000 0.68963  0.47438  0.87517  Biso   1.000  C
  C696     1.0000 0.71243  0.46627  0.85707  Biso   1.000  C
  H386     1.0000 0.73203  0.48447  0.84477  Biso   1.000  H
  C697     1.0000 0.70563  0.43037  0.85747  Biso   1.000  C
  H387     1.0000 0.72043  0.42437  0.84457  Biso   1.000  H
  C698     1.0000 0.67813  0.40327  0.87597  Biso   1.000  C
  C699     1.0000 0.65563  0.41267  0.89387  Biso   1.000  C
  H388     1.0000 0.63603  0.39457  0.90627  Biso   1.000  H
  C700     1.0000 0.66153  0.44777  0.89357  Biso   1.000  C
  H389     1.0000 0.64643  0.45377  0.90597  Biso   1.000  H
  C701     1.0000 0.67293  0.36837  0.87617  Biso   1.000  C
  C702     1.0000 0.69983  0.36187  0.87577  Biso   1.000  C
  H390     1.0000 0.72383  0.38207  0.87507  Biso   1.000  H
  C703     1.0000 0.68783  0.57587  0.81837  Biso   1.000  C
  C704     1.0000 0.67623  0.57207  0.78617  Biso   1.000  C
  C705     1.0000 0.64103  0.54887  0.77577  Biso   1.000  C
  H391     1.0000 0.62243  0.53477  0.79097  Biso   1.000  H
  C706     1.0000 0.63283  0.54637  0.74107  Biso   1.000  C
  H392     1.0000 0.60883  0.53077  0.73367  Biso   1.000  H
  C707     1.0000 0.65983  0.56657  0.71927  Biso   1.000  C
  C708     1.0000 0.69663  0.58947  0.72957  Biso   1.000  C
  H393     1.0000 0.71523  0.60287  0.71417  Biso   1.000  H
  C709     1.0000 0.70483  0.59177  0.76327  Biso   1.000  C
  H394     1.0000 0.72923  0.60627  0.77057  Biso   1.000  H
  C710     1.0000 0.65163  0.56637  0.68537  Biso   1.000  C
  C711     1.0000 0.62873  0.53637  0.66987  Biso   1.000  C
  H395     1.0000 0.62033  0.51377  0.68057  Biso   1.000  H
  C712     1.0000 0.61683  0.53667  0.63907  Biso   1.000  C
  C713     1.0000 0.63443  0.56727  0.62277  Biso   1.000  C
  H396     1.0000 0.62863  0.56707  0.60037  Biso   1.000  H
  C714     1.0000 0.66113  0.59977  0.63637  Biso   1.000  C
  C715     1.0000 0.66943  0.59847  0.66877  Biso   1.000  C
  H397     1.0000 0.68743  0.61977  0.67937  Biso   1.000  H
  C716     1.0000 0.67713  0.63417  0.61917  Biso   1.000  C
  C717     1.0000 0.65913  0.64287  0.59827  Biso   1.000  C
  H398     1.0000 0.63453  0.62527  0.59387  Biso   1.000  H
  C718     1.0000 0.67363  0.67547  0.58237  Biso   1.000  C
  H399     1.0000 0.65983  0.68127  0.56787  Biso   1.000  H
  C719     1.0000 0.71063  0.69997  0.58927  Biso   1.000  C
  C720     1.0000 0.72943  0.69197  0.60897  Biso   1.000  C
  H400     1.0000 0.75463  0.70867  0.61187  Biso   1.000  H
  C721     1.0000 0.71373  0.66037  0.62537  Biso   1.000  C
  H401     1.0000 0.72713  0.65557  0.64117  Biso   1.000  H
  C722     1.0000 0.72783  0.73557  0.57207  Biso   1.000  C
  C723     1.0000 0.59143  0.50507  0.62417  Biso   1.000  C
  C724     1.0000 0.58423  0.47007  0.63457  Biso   1.000  C
  H402     1.0000 0.59493  0.46737  0.65397  Biso   1.000  H
  C725     1.0000 0.56053  0.43877  0.61527  Biso   1.000  C
  H403     1.0000 0.55893  0.41607  0.61957  Biso   1.000  H
  C726     1.0000 0.53963  0.44147  0.59007  Biso   1.000  C
  C727     1.0000 0.54463  0.47637  0.58117  Biso   1.000  C
  H404     1.0000 0.53153  0.47867  0.56337  Biso   1.000  H
  C728     1.0000 0.56933  0.50767  0.59937  Biso   1.000  C
  H405     1.0000 0.57113  0.53047  0.59497  Biso   1.000  H
  C729     1.0000 0.51103  0.40937  0.57047  Biso   1.000  C
  C730     1.0000 0.76743  0.60627  0.90757  Biso   1.000  C
  C731     1.0000 0.80263  0.62397  0.92277  Biso   1.000  C
  C732     1.0000 0.83403  0.64397  0.90587  Biso   1.000  C
  H406     1.0000 0.83243  0.64697  0.88317  Biso   1.000  H
  C733     1.0000 0.86563  0.65887  0.91887  Biso   1.000  C
  H407     1.0000 0.88633  0.67167  0.90527  Biso   1.000  H
  C734     1.0000 0.87053  0.65687  0.95207  Biso   1.000  C
  C735     1.0000 0.83943  0.63527  0.97037  Biso   1.000  C
  H408     1.0000 0.84153  0.63117  0.99287  Biso   1.000  H
  C736     1.0000 0.80593  0.61977  0.95587  Biso   1.000  C
  H409     1.0000 0.78473  0.60607  0.96867  Biso   1.000  H
  C737     1.0000 0.90553  0.67257  0.96797  Biso   1.000  C
  C738     1.0000 0.93383  0.66887  0.95097  Biso   1.000  C
  H410     1.0000 0.92993  0.65777  0.93007  Biso   1.000  H
  C739     1.0000 0.96563  0.68227  0.96697  Biso   1.000  C
  C740     1.0000 0.97113  0.69587  0.99547  Biso   1.000  C
  H411     1.0000 0.99393  0.70327  0.00537  Biso   1.000  H
  C741     1.0000 0.94603  0.70067  0.01297  Biso   1.000  C
  C742     1.0000 0.91083  0.68747  0.99827  Biso   1.000  C
  H412     1.0000 0.89203  0.68917  0.00927  Biso   1.000  H
  C743     1.0000 0.95263  0.71667  0.04457  Biso   1.000  C
  C744     1.0000 0.98423  0.73957  0.05557  Biso   1.000  C
  H413     1.0000 0.00473  0.74717  0.04167  Biso   1.000  H
  C745     1.0000 0.98983  0.75327  0.08627  Biso   1.000  C
  H414     1.0000 0.01323  0.77267  0.09187  Biso   1.000  H
  C746     1.0000 0.96463  0.74107  0.10777  Biso   1.000  C
  C747     1.0000 0.93043  0.71397  0.09797  Biso   1.000  C
  H415     1.0000 0.91033  0.70417  0.11247  Biso   1.000  H
  C748     1.0000 0.92703  0.70227  0.06667  Biso   1.000  C
  H416     1.0000 0.90443  0.68207  0.06037  Biso   1.000  H
  C749     1.0000 0.97033  0.75317  0.13917  Biso   1.000  C
  C750     1.0000 0.00453  0.68907  0.92017  Biso   1.000  C
  H417     1.0000 0.99203  0.69877  0.90847  Biso   1.000  H
  C751     1.0000 0.99653  0.67967  0.95337  Biso   1.000  C
  C752     1.0000 0.01523  0.66597  0.97187  Biso   1.000  C
  H418     1.0000 0.00873  0.65877  0.99387  Biso   1.000  H
  C753     1.0000 0.04473  0.66337  0.95637  Biso   1.000  C
  H419     1.0000 0.05913  0.65647  0.96867  Biso   1.000  H
  C754     1.0000 0.05153  0.67137  0.92277  Biso   1.000  C
  C755     1.0000 0.03213  0.68387  0.90417  Biso   1.000  C
  H420     1.0000 0.03693  0.68877  0.88167  Biso   1.000  H
  C756     1.0000 0.07703  0.66637  0.90757  Biso   1.000  C
  Eu13     1.0000 0.09120  0.46418  0.21163  Biso   1.000  Eu
  In13     1.0000 0.30441  0.44353  0.86339  Biso   1.000  In
  O169     1.0000 0.14908  0.49222  0.22818  Biso   1.000  O
  O170     1.0000 0.13110  0.51937  0.19338  Biso   1.000  O
  O171     1.0000 0.07164  0.45606  0.16104  Biso   1.000  O
  O172     1.0000 0.11149  0.44109  0.17209  Biso   1.000  O
  O173     1.0000 0.92422  0.29926  0.88882  Biso   1.000  O
  O174     1.0000 0.90914  0.33687  0.91100  Biso   1.000  O
  O175     1.0000 0.08110  0.48730  0.25759  Biso   1.000  O
  O176     1.0000 0.05378  0.48548  0.21220  Biso   1.000  O
  O177     1.0000 0.25520  0.41410  0.88200  Biso   1.000  O
  O178     1.0000 0.28360  0.45880  0.91130  Biso   1.000  O
  O179     1.0000 0.88940  0.55460  0.48210  Biso   1.000  O
  O180     1.0000 0.92940  0.53970  0.49220  Biso   1.000  O
  O181     1.0000 0.98870  0.74000  0.21560  Biso   1.000  O
  O182     1.0000 0.01440  0.77080  0.25970  Biso   1.000  O
  C757     1.0000 0.15560  0.51850  0.20970  Biso   1.000  C
  C758     1.0000 0.19229  0.54859  0.20850  Biso   1.000  C
  C759     1.0000 0.20040  0.57950  0.19040  Biso   1.000  C
  H421     1.0000 0.18220  0.58090  0.17810  Biso   1.000  H
  C760     1.0000 0.23630  0.60860  0.19080  Biso   1.000  C
  H422     1.0000 0.24230  0.62940  0.17790  Biso   1.000  H
  C761     1.0000 0.26340  0.60820  0.20930  Biso   1.000  C
  C762     1.0000 0.25400  0.57630  0.22720  Biso   1.000  C
  H423     1.0000 0.27210  0.57480  0.23960  Biso   1.000  H
  C763     1.0000 0.21890  0.54710  0.22690  Biso   1.000  C
  H424     1.0000 0.21290  0.52600  0.23930  Biso   1.000  H
  C764     1.0000 0.29830  0.63790  0.20950  Biso   1.000  C
  C765     1.0000 0.30480  0.67130  0.20910  Biso   1.000  C
  H425     1.0000 0.28460  0.67510  0.20840  Biso   1.000  H
  C766     1.0000 0.09080  0.44530  0.15170  Biso   1.000  C
  C767     1.0000 0.09460  0.43750  0.11950  Biso   1.000  C
  C768     1.0000 0.11780  0.42550  0.10910  Biso   1.000  C
  H426     1.0000 0.13190  0.42100  0.12430  Biso   1.000  H
  C769     1.0000 0.12030  0.41980  0.07440  Biso   1.000  C
  H427     1.0000 0.13590  0.41140  0.06700  Biso   1.000  H
  C770     1.0000 0.10010  0.42660  0.05260  Biso   1.000  C
  C771     1.0000 0.07720  0.44050  0.06290  Biso   1.000  C
  H428     1.0000 0.06380  0.44570  0.04750  Biso   1.000  H
  C772     1.0000 0.07490  0.44640  0.09660  Biso   1.000  C
  H429     1.0000 0.06040  0.45630  0.10390  Biso   1.000  H
  C773     1.0000 0.10030  0.41860  0.01870  Biso   1.000  C
  C774     1.0000 0.13030  0.42570  0.00320  Biso   1.000  C
  H430     1.0000 0.15290  0.43990  0.01390  Biso   1.000  H
  C775     1.0000 0.13000  0.41350  0.97240  Biso   1.000  C
  C776     1.0000 0.09940  0.40050  0.95610  Biso   1.000  C
  H431     1.0000 0.09960  0.39490  0.93370  Biso   1.000  H
  C777     1.0000 0.06690  0.39470  0.96970  Biso   1.000  C
  C778     1.0000 0.06820  0.40430  0.00210  Biso   1.000  C
  H432     1.0000 0.04690  0.40100  0.01270  Biso   1.000  H
  C779     1.0000 0.03250  0.37630  0.95250  Biso   1.000  C
  C780     1.0000 0.02380  0.34960  0.93160  Biso   1.000  C
  H433     1.0000 0.04140  0.34260  0.92720  Biso   1.000  H
  C781     1.0000 0.99120  0.33150  0.91570  Biso   1.000  C
  H434     1.0000 0.98540  0.31190  0.90120  Biso   1.000  H
  C782     1.0000 0.96670  0.34400  0.92260  Biso   1.000  C
  C783     1.0000 0.97470  0.37080  0.94230  Biso   1.000  C
  H435     1.0000 0.95800  0.37930  0.94520  Biso   1.000  H
  C784     1.0000 0.00630  0.38670  0.95870  Biso   1.000  C
  H436     1.0000 0.01110  0.40490  0.97450  Biso   1.000  H
  C785     1.0000 0.93110  0.32560  0.90540  Biso   1.000  C
  C786     1.0000 0.16160  0.41970  0.95750  Biso   1.000  C
  C787     1.0000 0.19660  0.44750  0.96790  Biso   1.000  C
  H437     1.0000 0.19930  0.46090  0.98730  Biso   1.000  H
  C788     1.0000 0.22790  0.45510  0.94860  Biso   1.000  C
  H438     1.0000 0.25060  0.47620  0.95290  Biso   1.000  H
  C789     1.0000 0.22520  0.43150  0.92340  Biso   1.000  C
  C790     1.0000 0.19030  0.40160  0.91450  Biso   1.000  C
  H439     1.0000 0.18800  0.38620  0.89670  Biso   1.000  H
  C791     1.0000 0.15900  0.39500  0.93270  Biso   1.000  C
  H440     1.0000 0.13620  0.37400  0.92830  Biso   1.000  H
  C792     1.0000 0.25730  0.43500  0.90380  Biso   1.000  C
  C793     1.0000 0.06040  0.49450  0.24090  Biso   1.000  C
  C794     1.0000 0.04270  0.51200  0.25610  Biso   1.000  C
  C795     1.0000 0.02270  0.52340  0.23920  Biso   1.000  C
  H441     1.0000 0.01970  0.51880  0.21650  Biso   1.000  H
  C796     1.0000 0.00780  0.54010  0.25220  Biso   1.000  C
  H442     1.0000 0.99500  0.54800  0.23860  Biso   1.000  H
  C797     1.0000 0.00980  0.54700  0.28540  Biso   1.000  C
  C798     1.0000 0.03140  0.53750  0.30370  Biso   1.000  C
  H443     1.0000 0.03550  0.54370  0.32620  Biso   1.000  H
  C799     1.0000 0.04690  0.51950  0.28920  Biso   1.000  C
  H444     1.0000 0.06060  0.51200  0.30200  Biso   1.000  H
  C800     1.0000 0.99410  0.56630  0.30130  Biso   1.000  C
  C801     1.0000 0.99780  0.59830  0.28430  Biso   1.000  C
  H445     1.0000 0.00890  0.60550  0.26340  Biso   1.000  H
  C802     1.0000 0.98440  0.61670  0.30030  Biso   1.000  C
  C803     1.0000 0.97080  0.60860  0.32880  Biso   1.000  C
  H446     1.0000 0.96340  0.62400  0.33870  Biso   1.000  H
  C804     1.0000 0.96600  0.57870  0.34630  Biso   1.000  C
  C805     1.0000 0.97920  0.55670  0.33160  Biso   1.000  C
  H447     1.0000 0.97750  0.53620  0.34260  Biso   1.000  H
  C806     1.0000 0.95000  0.56930  0.37790  Biso   1.000  C
  C807     1.0000 0.92710  0.57800  0.38890  Biso   1.000  C
  H448     1.0000 0.91950  0.59090  0.37500  Biso   1.000  H
  C808     1.0000 0.91340  0.56990  0.41960  Biso   1.000  C
  H449     1.0000 0.89400  0.57390  0.42520  Biso   1.000  H
  C809     1.0000 0.92560  0.55690  0.44110  Biso   1.000  C
  C810     1.0000 0.95270  0.54980  0.43130  Biso   1.000  C
  H450     1.0000 0.96250  0.53950  0.44580  Biso   1.000  H
  C811     1.0000 0.96440  0.55810  0.40000  Biso   1.000  C
  H451     1.0000 0.98460  0.55570  0.39370  Biso   1.000  H
  C812     1.0000 0.91350  0.55050  0.47250  Biso   1.000  C
  C813     1.0000 0.97760  0.64880  0.25350  Biso   1.000  C
  H452     1.0000 0.96790  0.62660  0.24180  Biso   1.000  H
  C814     1.0000 0.98700  0.65020  0.28670  Biso   1.000  C
  C815     1.0000 0.00070  0.68260  0.30520  Biso   1.000  C
  H453     1.0000 0.00790  0.68330  0.32720  Biso   1.000  H
  C816     1.0000 0.00330  0.71470  0.28970  Biso   1.000  C
  H454     1.0000 0.01020  0.73600  0.30200  Biso   1.000  H
  C817     1.0000 0.99530  0.71350  0.25610  Biso   1.000  C
  C818     1.0000 0.98280  0.68160  0.23750  Biso   1.000  C
  H455     1.0000 0.97790  0.68150  0.21500  Biso   1.000  H
  C819     1.0000 0.00030  0.74400  0.24090  Biso   1.000  C
  Eu14     1.0000 0.75786  0.79752  0.54496  Biso   1.000  Eu
  In14     1.0000 0.97108  0.77686  0.19672  Biso   1.000  In
  O183     1.0000 0.81575  0.82555  0.56151  Biso   1.000  O
  O184     1.0000 0.79777  0.85270  0.52671  Biso   1.000  O
  O185     1.0000 0.73831  0.78939  0.49437  Biso   1.000  O
  O186     1.0000 0.77816  0.77442  0.50542  Biso   1.000  O
  O187     1.0000 0.59089  0.63259  0.22215  Biso   1.000  O
  O188     1.0000 0.57581  0.67020  0.24433  Biso   1.000  O
  O189     1.0000 0.74777  0.82063  0.59092  Biso   1.000  O
  O190     1.0000 0.72045  0.81881  0.54553  Biso   1.000  O
  O191     1.0000 0.92187  0.74743  0.21533  Biso   1.000  O
  O192     1.0000 0.95027  0.79213  0.24463  Biso   1.000  O
  O193     1.0000 0.55607  0.88793  0.81543  Biso   1.000  O
  O194     1.0000 0.59607  0.87303  0.82553  Biso   1.000  O
  O195     1.0000 0.65537  0.07333  0.54893  Biso   1.000  O
  O196     1.0000 0.68107  0.10413  0.59303  Biso   1.000  O
  C820     1.0000 0.82227  0.85183  0.54303  Biso   1.000  C
  C821     1.0000 0.85896  0.88192  0.54183  Biso   1.000  C
  C822     1.0000 0.86707  0.91283  0.52373  Biso   1.000  C
  H456     1.0000 0.84887  0.91423  0.51143  Biso   1.000  H
  C823     1.0000 0.90297  0.94193  0.52413  Biso   1.000  C
  H457     1.0000 0.90897  0.96273  0.51123  Biso   1.000  H
  C824     1.0000 0.93007  0.94153  0.54263  Biso   1.000  C
  C825     1.0000 0.92067  0.90963  0.56053  Biso   1.000  C
  H458     1.0000 0.93877  0.90813  0.57293  Biso   1.000  H
  C826     1.0000 0.88557  0.88043  0.56023  Biso   1.000  C
  H459     1.0000 0.87957  0.85933  0.57263  Biso   1.000  H
  C827     1.0000 0.96497  0.97123  0.54283  Biso   1.000  C
  C828     1.0000 0.97147  0.00463  0.54243  Biso   1.000  C
  H460     1.0000 0.95127  0.00843  0.54173  Biso   1.000  H
  C829     1.0000 0.75747  0.77863  0.48503  Biso   1.000  C
  C830     1.0000 0.76127  0.77083  0.45283  Biso   1.000  C
  C831     1.0000 0.78447  0.75883  0.44243  Biso   1.000  C
  H461     1.0000 0.79857  0.75433  0.45763  Biso   1.000  H
  C832     1.0000 0.78697  0.75313  0.40773  Biso   1.000  C
  H462     1.0000 0.80257  0.74473  0.40033  Biso   1.000  H
  C833     1.0000 0.76677  0.75993  0.38593  Biso   1.000  C
  C834     1.0000 0.74387  0.77383  0.39623  Biso   1.000  C
  H463     1.0000 0.73047  0.77903  0.38083  Biso   1.000  H
  C835     1.0000 0.74157  0.77973  0.42993  Biso   1.000  C
  H464     1.0000 0.72707  0.78963  0.43723  Biso   1.000  H
  C836     1.0000 0.76697  0.75193  0.35203  Biso   1.000  C
  C837     1.0000 0.79697  0.75903  0.33653  Biso   1.000  C
  H465     1.0000 0.81957  0.77323  0.34723  Biso   1.000  H
  C838     1.0000 0.79667  0.74683  0.30573  Biso   1.000  C
  C839     1.0000 0.76607  0.73383  0.28943  Biso   1.000  C
  H466     1.0000 0.76627  0.72823  0.26703  Biso   1.000  H
  C840     1.0000 0.73357  0.72803  0.30303  Biso   1.000  C
  C841     1.0000 0.73487  0.73763  0.33543  Biso   1.000  C
  H467     1.0000 0.71357  0.73433  0.34603  Biso   1.000  H
  C842     1.0000 0.69917  0.70963  0.28583  Biso   1.000  C
  C843     1.0000 0.69047  0.68293  0.26493  Biso   1.000  C
  H468     1.0000 0.70807  0.67593  0.26053  Biso   1.000  H
  C844     1.0000 0.65787  0.66483  0.24903  Biso   1.000  C
  H469     1.0000 0.65207  0.64523  0.23453  Biso   1.000  H
  C845     1.0000 0.63337  0.67733  0.25593  Biso   1.000  C
  C846     1.0000 0.64137  0.70413  0.27563  Biso   1.000  C
  H470     1.0000 0.62467  0.71263  0.27853  Biso   1.000  H
  C847     1.0000 0.67297  0.72003  0.29203  Biso   1.000  C
  H471     1.0000 0.67777  0.73823  0.30783  Biso   1.000  H
  C848     1.0000 0.59777  0.65893  0.23873  Biso   1.000  C
  C849     1.0000 0.82827  0.75303  0.29083  Biso   1.000  C
  C850     1.0000 0.86327  0.78083  0.30123  Biso   1.000  C
  H472     1.0000 0.86597  0.79423  0.32063  Biso   1.000  H
  C851     1.0000 0.89457  0.78843  0.28193  Biso   1.000  C
  H473     1.0000 0.91727  0.80953  0.28623  Biso   1.000  H
  C852     1.0000 0.89187  0.76483  0.25673  Biso   1.000  C
  C853     1.0000 0.85697  0.73493  0.24783  Biso   1.000  C
  H474     1.0000 0.85467  0.71953  0.23003  Biso   1.000  H
  C854     1.0000 0.82567  0.72833  0.26603  Biso   1.000  C
  H475     1.0000 0.80287  0.70733  0.26163  Biso   1.000  H
  C855     1.0000 0.92397  0.76833  0.23713  Biso   1.000  C
  C856     1.0000 0.72707  0.82783  0.57423  Biso   1.000  C
  C857     1.0000 0.70937  0.84533  0.58943  Biso   1.000  C
  C858     1.0000 0.68937  0.85673  0.57253  Biso   1.000  C
  H476     1.0000 0.68637  0.85213  0.54983  Biso   1.000  H
  C859     1.0000 0.67447  0.87343  0.58553  Biso   1.000  C
  H477     1.0000 0.66167  0.88133  0.57193  Biso   1.000  H
  C860     1.0000 0.67647  0.88033  0.61873  Biso   1.000  C
  C861     1.0000 0.69807  0.87083  0.63703  Biso   1.000  C
  H478     1.0000 0.70217  0.87703  0.65953  Biso   1.000  H
  C862     1.0000 0.71357  0.85283  0.62253  Biso   1.000  C
  H479     1.0000 0.72727  0.84533  0.63533  Biso   1.000  H
  C863     1.0000 0.66077  0.89963  0.63463  Biso   1.000  C
  C864     1.0000 0.66447  0.93163  0.61763  Biso   1.000  C
  H480     1.0000 0.67557  0.93883  0.59673  Biso   1.000  H
  C865     1.0000 0.65107  0.95003  0.63363  Biso   1.000  C
  C866     1.0000 0.63747  0.94193  0.66213  Biso   1.000  C
  H481     1.0000 0.63007  0.95733  0.67203  Biso   1.000  H
  C867     1.0000 0.63267  0.91203  0.67963  Biso   1.000  C
  C868     1.0000 0.64587  0.89003  0.66493  Biso   1.000  C
  H482     1.0000 0.64417  0.86953  0.67593  Biso   1.000  H
  C869     1.0000 0.61667  0.90263  0.71123  Biso   1.000  C
  C870     1.0000 0.59377  0.91133  0.72223  Biso   1.000  C
  H483     1.0000 0.58617  0.92423  0.70833  Biso   1.000  H
  C871     1.0000 0.58007  0.90323  0.75293  Biso   1.000  C
  H484     1.0000 0.56067  0.90723  0.75853  Biso   1.000  H
  C872     1.0000 0.59227  0.89023  0.77443  Biso   1.000  C
  C873     1.0000 0.61937  0.88313  0.76463  Biso   1.000  C
  H485     1.0000 0.62917  0.87283  0.77913  Biso   1.000  H
  C874     1.0000 0.63107  0.89143  0.73333  Biso   1.000  C
  H486     1.0000 0.65127  0.88903  0.72703  Biso   1.000  H
  C875     1.0000 0.58017  0.88383  0.80583  Biso   1.000  C
  C876     1.0000 0.64427  0.98213  0.58683  Biso   1.000  C
  H487     1.0000 0.63457  0.95993  0.57513  Biso   1.000  H
  C877     1.0000 0.65367  0.98353  0.62003  Biso   1.000  C
  C878     1.0000 0.66737  0.01593  0.63853  Biso   1.000  C
  H488     1.0000 0.67457  0.01663  0.66053  Biso   1.000  H
  C879     1.0000 0.66997  0.04803  0.62303  Biso   1.000  C
  H489     1.0000 0.67687  0.06933  0.63533  Biso   1.000  H
  C880     1.0000 0.66197  0.04683  0.58943  Biso   1.000  C
  C881     1.0000 0.64947  0.01493  0.57083  Biso   1.000  C
  H490     1.0000 0.64457  0.01483  0.54833  Biso   1.000  H
  C882     1.0000 0.66697  0.07733  0.57423  Biso   1.000  C
  Eu15     1.0000 0.42453  0.13085  0.87829  Biso   1.000  Eu
  In15     1.0000 0.63774  0.11020  0.53006  Biso   1.000  In
  O197     1.0000 0.48241  0.15889  0.89485  Biso   1.000  O
  O198     1.0000 0.46443  0.18604  0.86005  Biso   1.000  O
  O199     1.0000 0.40497  0.12273  0.82771  Biso   1.000  O
  O200     1.0000 0.44482  0.10776  0.83876  Biso   1.000  O
  O201     1.0000 0.25755  0.96593  0.55549  Biso   1.000  O
  O202     1.0000 0.24247  0.00354  0.57767  Biso   1.000  O
  O203     1.0000 0.41443  0.15397  0.92426  Biso   1.000  O
  O204     1.0000 0.38711  0.15215  0.87887  Biso   1.000  O
  O205     1.0000 0.58853  0.08077  0.54867  Biso   1.000  O
  O206     1.0000 0.61693  0.12547  0.57797  Biso   1.000  O
  O207     1.0000 0.22273  0.22127  0.14877  Biso   1.000  O
  O208     1.0000 0.26273  0.20637  0.15887  Biso   1.000  O
  O209     1.0000 0.32203  0.40667  0.88227  Biso   1.000  O
  O210     1.0000 0.34773  0.43747  0.92637  Biso   1.000  O
  C883     1.0000 0.48893  0.18517  0.87637  Biso   1.000  C
  C884     1.0000 0.52562  0.21526  0.87517  Biso   1.000  C
  C885     1.0000 0.53373  0.24617  0.85707  Biso   1.000  C
  H491     1.0000 0.51553  0.24757  0.84477  Biso   1.000  H
  C886     1.0000 0.56963  0.27527  0.85747  Biso   1.000  C
  H492     1.0000 0.57563  0.29607  0.84457  Biso   1.000  H
  C887     1.0000 0.59673  0.27487  0.87597  Biso   1.000  C
  C888     1.0000 0.58733  0.24297  0.89387  Biso   1.000  C
  H493     1.0000 0.60543  0.24147  0.90627  Biso   1.000  H
  C889     1.0000 0.55223  0.21377  0.89357  Biso   1.000  C
  H494     1.0000 0.54623  0.19267  0.90597  Biso   1.000  H
  C890     1.0000 0.63163  0.30457  0.87617  Biso   1.000  C
  C891     1.0000 0.63813  0.33797  0.87577  Biso   1.000  C
  H495     1.0000 0.61793  0.34177  0.87507  Biso   1.000  H
  C892     1.0000 0.42413  0.11197  0.81837  Biso   1.000  C
  C893     1.0000 0.42793  0.10417  0.78617  Biso   1.000  C
  C894     1.0000 0.45113  0.09217  0.77577  Biso   1.000  C
  H496     1.0000 0.46523  0.08767  0.79097  Biso   1.000  H
  C895     1.0000 0.45363  0.08647  0.74107  Biso   1.000  C
  H497     1.0000 0.46923  0.07807  0.73367  Biso   1.000  H
  C896     1.0000 0.43343  0.09327  0.71927  Biso   1.000  C
  C897     1.0000 0.41053  0.10717  0.72957  Biso   1.000  C
  H498     1.0000 0.39713  0.11237  0.71417  Biso   1.000  H
  C898     1.0000 0.40823  0.11307  0.76327  Biso   1.000  C
  H499     1.0000 0.39373  0.12297  0.77057  Biso   1.000  H
  C899     1.0000 0.43363  0.08527  0.68537  Biso   1.000  C
  C900     1.0000 0.46363  0.09237  0.66987  Biso   1.000  C
  H500     1.0000 0.48623  0.10657  0.68057  Biso   1.000  H
  C901     1.0000 0.46333  0.08017  0.63907  Biso   1.000  C
  C902     1.0000 0.43273  0.06717  0.62277  Biso   1.000  C
  H501     1.0000 0.43293  0.06157  0.60037  Biso   1.000  H
  C903     1.0000 0.40023  0.06137  0.63637  Biso   1.000  C
  C904     1.0000 0.40153  0.07097  0.66877  Biso   1.000  C
  H502     1.0000 0.38023  0.06767  0.67937  Biso   1.000  H
  C905     1.0000 0.36583  0.04297  0.61917  Biso   1.000  C
  C906     1.0000 0.35713  0.01627  0.59827  Biso   1.000  C
  H503     1.0000 0.37473  0.00927  0.59387  Biso   1.000  H
  C907     1.0000 0.32453  0.99817  0.58237  Biso   1.000  C
  H504     1.0000 0.31873  0.97857  0.56787  Biso   1.000  H
  C908     1.0000 0.30003  0.01067  0.58927  Biso   1.000  C
  C909     1.0000 0.30803  0.03747  0.60897  Biso   1.000  C
  H505     1.0000 0.29133  0.04597  0.61187  Biso   1.000  H
  C910     1.0000 0.33963  0.05337  0.62537  Biso   1.000  C
  H506     1.0000 0.34443  0.07157  0.64117  Biso   1.000  H
  C911     1.0000 0.26443  0.99227  0.57207  Biso   1.000  C
  C912     1.0000 0.49493  0.08637  0.62417  Biso   1.000  C
  C913     1.0000 0.52993  0.11417  0.63457  Biso   1.000  C
  H507     1.0000 0.53263  0.12757  0.65397  Biso   1.000  H
  C914     1.0000 0.56123  0.12177  0.61527  Biso   1.000  C
  H508     1.0000 0.58393  0.14287  0.61957  Biso   1.000  H
  C915     1.0000 0.55853  0.09817  0.59007  Biso   1.000  C
  C916     1.0000 0.52363  0.06827  0.58117  Biso   1.000  C
  H509     1.0000 0.52133  0.05287  0.56337  Biso   1.000  H
  C917     1.0000 0.49233  0.06167  0.59937  Biso   1.000  C
  H510     1.0000 0.46953  0.04067  0.59497  Biso   1.000  H
  C918     1.0000 0.59063  0.10167  0.57047  Biso   1.000  C
  C919     1.0000 0.39373  0.16117  0.90757  Biso   1.000  C
  C920     1.0000 0.37603  0.17867  0.92277  Biso   1.000  C
  C921     1.0000 0.35603  0.19007  0.90587  Biso   1.000  C
  H511     1.0000 0.35303  0.18547  0.88317  Biso   1.000  H
  C922     1.0000 0.34113  0.20677  0.91887  Biso   1.000  C
  H512     1.0000 0.32833  0.21467  0.90527  Biso   1.000  H
  C923     1.0000 0.34313  0.21367  0.95207  Biso   1.000  C
  C924     1.0000 0.36473  0.20417  0.97037  Biso   1.000  C
  H513     1.0000 0.36883  0.21037  0.99287  Biso   1.000  H
  C925     1.0000 0.38023  0.18617  0.95587  Biso   1.000  C
  H514     1.0000 0.39393  0.17867  0.96867  Biso   1.000  H
  C926     1.0000 0.32743  0.23297  0.96797  Biso   1.000  C
  C927     1.0000 0.33113  0.26497  0.95097  Biso   1.000  C
  H515     1.0000 0.34223  0.27217  0.93007  Biso   1.000  H
  C928     1.0000 0.31773  0.28337  0.96697  Biso   1.000  C
  C929     1.0000 0.30413  0.27527  0.99547  Biso   1.000  C
  H516     1.0000 0.29673  0.29067  0.00537  Biso   1.000  H
  C930     1.0000 0.29933  0.24537  0.01297  Biso   1.000  C
  C931     1.0000 0.31253  0.22337  0.99827  Biso   1.000  C
  H517     1.0000 0.31083  0.20287  0.00927  Biso   1.000  H
  C932     1.0000 0.28333  0.23597  0.04457  Biso   1.000  C
  C933     1.0000 0.26043  0.24467  0.05557  Biso   1.000  C
  H518     1.0000 0.25283  0.25757  0.04167  Biso   1.000  H
  C934     1.0000 0.24673  0.23657  0.08627  Biso   1.000  C
  H519     1.0000 0.22733  0.24057  0.09187  Biso   1.000  H
  C935     1.0000 0.25893  0.22357  0.10777  Biso   1.000  C
  C936     1.0000 0.28603  0.21647  0.09797  Biso   1.000  C
  H520     1.0000 0.29583  0.20617  0.11247  Biso   1.000  H
  C937     1.0000 0.29773  0.22477  0.06667  Biso   1.000  C
  H521     1.0000 0.31793  0.22237  0.06037  Biso   1.000  H
  C938     1.0000 0.24683  0.21717  0.13917  Biso   1.000  C
  C939     1.0000 0.31093  0.31547  0.92017  Biso   1.000  C
  H522     1.0000 0.30123  0.29327  0.90847  Biso   1.000  H
  C940     1.0000 0.32033  0.31687  0.95337  Biso   1.000  C
  C941     1.0000 0.33403  0.34927  0.97187  Biso   1.000  C
  H523     1.0000 0.34123  0.34997  0.99387  Biso   1.000  H
  C942     1.0000 0.33663  0.38137  0.95637  Biso   1.000  C
  H524     1.0000 0.34353  0.40267  0.96867  Biso   1.000  H
  C943     1.0000 0.32863  0.38017  0.92277  Biso   1.000  C
  C944     1.0000 0.31613  0.34827  0.90417  Biso   1.000  C
  H525     1.0000 0.31123  0.34817  0.88167  Biso   1.000  H
  C945     1.0000 0.33363  0.41067  0.90757  Biso   1.000  C
  Eu16     1.0000 0.53582  0.62701  0.21163  Biso   1.000  Eu
  In16     1.0000 0.55647  0.86088  0.86339  Biso   1.000  In
  O211     1.0000 0.50778  0.65686  0.22818  Biso   1.000  O
  O212     1.0000 0.48063  0.61173  0.19338  Biso   1.000  O
  O213     1.0000 0.54394  0.61558  0.16104  Biso   1.000  O
  O214     1.0000 0.55891  0.67040  0.17209  Biso   1.000  O
  O215     1.0000 0.70074  0.62496  0.88882  Biso   1.000  O
  O216     1.0000 0.66313  0.57227  0.91100  Biso   1.000  O
  O217     1.0000 0.51270  0.59380  0.25759  Biso   1.000  O
  O218     1.0000 0.51452  0.56830  0.21220  Biso   1.000  O
  O219     1.0000 0.58590  0.84110  0.88200  Biso   1.000  O
  O220     1.0000 0.54120  0.82480  0.91130  Biso   1.000  O
  O221     1.0000 0.44540  0.33480  0.48210  Biso   1.000  O
  O222     1.0000 0.46030  0.38970  0.49220  Biso   1.000  O
  O223     1.0000 0.26000  0.24870  0.21560  Biso   1.000  O
  O224     1.0000 0.22920  0.24360  0.25970  Biso   1.000  O
  C946     1.0000 0.48150  0.63710  0.20970  Biso   1.000  C
  C947     1.0000 0.45141  0.64370  0.20850  Biso   1.000  C
  C948     1.0000 0.42050  0.62090  0.19040  Biso   1.000  C
  H526     1.0000 0.41910  0.60130  0.17810  Biso   1.000  H
  C949     1.0000 0.39140  0.62770  0.19080  Biso   1.000  C
  H527     1.0000 0.37060  0.61290  0.17790  Biso   1.000  H
  C950     1.0000 0.39180  0.65520  0.20930  Biso   1.000  C
  C951     1.0000 0.42370  0.67770  0.22720  Biso   1.000  C
  H528     1.0000 0.42520  0.69730  0.23960  Biso   1.000  H
  C952     1.0000 0.45290  0.67180  0.22690  Biso   1.000  C
  H529     1.0000 0.47400  0.68690  0.23930  Biso   1.000  H
  C953     1.0000 0.36210  0.66040  0.20950  Biso   1.000  C
  C954     1.0000 0.32870  0.63350  0.20910  Biso   1.000  C
  H530     1.0000 0.32490  0.60950  0.20840  Biso   1.000  H
  C955     1.0000 0.55470  0.64550  0.15170  Biso   1.000  C
  C956     1.0000 0.56250  0.65710  0.11950  Biso   1.000  C
  C957     1.0000 0.57450  0.69230  0.10910  Biso   1.000  C
  H531     1.0000 0.57900  0.71090  0.12430  Biso   1.000  H
  C958     1.0000 0.58020  0.70050  0.07440  Biso   1.000  C
  H532     1.0000 0.58860  0.72450  0.06700  Biso   1.000  H
  C959     1.0000 0.57340  0.67350  0.05260  Biso   1.000  C
  C960     1.0000 0.55950  0.63670  0.06290  Biso   1.000  C
  H533     1.0000 0.55430  0.61810  0.04750  Biso   1.000  H
  C961     1.0000 0.55360  0.62850  0.09660  Biso   1.000  C
  H534     1.0000 0.54370  0.60410  0.10390  Biso   1.000  H
  C962     1.0000 0.58140  0.68170  0.01870  Biso   1.000  C
  C963     1.0000 0.57430  0.70460  0.00320  Biso   1.000  C
  H535     1.0000 0.56010  0.71300  0.01390  Biso   1.000  H
  C964     1.0000 0.58650  0.71650  0.97240  Biso   1.000  C
  C965     1.0000 0.59950  0.69890  0.95610  Biso   1.000  C
  H536     1.0000 0.60510  0.70470  0.93370  Biso   1.000  H
  C966     1.0000 0.60530  0.67220  0.96970  Biso   1.000  C
  C967     1.0000 0.59570  0.66390  0.00210  Biso   1.000  C
  H537     1.0000 0.59900  0.64590  0.01270  Biso   1.000  H
  C968     1.0000 0.62370  0.65620  0.95250  Biso   1.000  C
  C969     1.0000 0.65040  0.67420  0.93160  Biso   1.000  C
  H538     1.0000 0.65740  0.69880  0.92720  Biso   1.000  H
  C970     1.0000 0.66850  0.65970  0.91570  Biso   1.000  C
  H539     1.0000 0.68810  0.67350  0.90120  Biso   1.000  H
  C971     1.0000 0.65600  0.62270  0.92260  Biso   1.000  C
  C972     1.0000 0.62920  0.60390  0.94230  Biso   1.000  C
  H540     1.0000 0.62070  0.57870  0.94520  Biso   1.000  H
  C973     1.0000 0.61330  0.61960  0.95870  Biso   1.000  C
  H541     1.0000 0.59510  0.60620  0.97450  Biso   1.000  H
  C974     1.0000 0.67440  0.60550  0.90540  Biso   1.000  C
  C975     1.0000 0.58030  0.74190  0.95750  Biso   1.000  C
  C976     1.0000 0.55250  0.74910  0.96790  Biso   1.000  C
  H542     1.0000 0.53910  0.73840  0.98730  Biso   1.000  H
  C977     1.0000 0.54490  0.77280  0.94860  Biso   1.000  C
  H543     1.0000 0.52380  0.77440  0.95290  Biso   1.000  H
  C978     1.0000 0.56850  0.79370  0.92340  Biso   1.000  C
  C979     1.0000 0.59840  0.78870  0.91450  Biso   1.000  C
  H544     1.0000 0.61380  0.80180  0.89670  Biso   1.000  H
  C980     1.0000 0.60500  0.76400  0.93270  Biso   1.000  C
  H545     1.0000 0.62600  0.76220  0.92830  Biso   1.000  H
  C981     1.0000 0.56500  0.82230  0.90380  Biso   1.000  C
  C982     1.0000 0.50550  0.56590  0.24090  Biso   1.000  C
  C983     1.0000 0.48800  0.53070  0.25610  Biso   1.000  C
  C984     1.0000 0.47660  0.49930  0.23920  Biso   1.000  C
  H546     1.0000 0.48120  0.50090  0.21650  Biso   1.000  H
  C985     1.0000 0.45990  0.46770  0.25220  Biso   1.000  C
  H547     1.0000 0.45200  0.44700  0.23860  Biso   1.000  H
  C986     1.0000 0.45300  0.46280  0.28540  Biso   1.000  C
  C987     1.0000 0.46250  0.49390  0.30370  Biso   1.000  C
  H548     1.0000 0.45630  0.49180  0.32620  Biso   1.000  H
  C988     1.0000 0.48050  0.52740  0.28920  Biso   1.000  C
  H549     1.0000 0.48800  0.54860  0.30200  Biso   1.000  H
  C989     1.0000 0.43370  0.42780  0.30130  Biso   1.000  C
  C990     1.0000 0.40170  0.39950  0.28430  Biso   1.000  C
  H550     1.0000 0.39450  0.40340  0.26340  Biso   1.000  H
  C991     1.0000 0.38330  0.36770  0.30030  Biso   1.000  C
  C992     1.0000 0.39140  0.36220  0.32880  Biso   1.000  C
  H551     1.0000 0.37600  0.33940  0.33870  Biso   1.000  H
  C993     1.0000 0.42130  0.38730  0.34630  Biso   1.000  C
  C994     1.0000 0.44330  0.42250  0.33160  Biso   1.000  C
  H552     1.0000 0.46380  0.44130  0.34260  Biso   1.000  H
  C995     1.0000 0.43070  0.38070  0.37790  Biso   1.000  C
  C996     1.0000 0.42200  0.34910  0.38890  Biso   1.000  C
  H553     1.0000 0.40910  0.32860  0.37500  Biso   1.000  H
  C997     1.0000 0.43010  0.34350  0.41960  Biso   1.000  C
  H554     1.0000 0.42610  0.32010  0.42520  Biso   1.000  H
  C998     1.0000 0.44310  0.36870  0.44110  Biso   1.000  C
  C999     1.0000 0.45020  0.40290  0.43130  Biso   1.000  C
  H555     1.0000 0.46050  0.42300  0.44580  Biso   1.000  H
  C1000    1.0000 0.44190  0.40630  0.40000  Biso   1.000  C
  H556     1.0000 0.44430  0.42890  0.39370  Biso   1.000  H
  C1001    1.0000 0.44950  0.36300  0.47250  Biso   1.000  C
  C1002    1.0000 0.35120  0.32880  0.25350  Biso   1.000  C
  H557     1.0000 0.37340  0.34130  0.24180  Biso   1.000  H
  C1003    1.0000 0.34980  0.33680  0.28670  Biso   1.000  C
  C1004    1.0000 0.31740  0.31810  0.30520  Biso   1.000  C
  H558     1.0000 0.31670  0.32460  0.32720  Biso   1.000  H
  C1005    1.0000 0.28530  0.28860  0.28970  Biso   1.000  C
  H559     1.0000 0.26400  0.27420  0.30200  Biso   1.000  H
  C1006    1.0000 0.28650  0.28180  0.25610  Biso   1.000  C
  C1007    1.0000 0.31840  0.30120  0.23750  Biso   1.000  C
  H560     1.0000 0.31850  0.29640  0.21500  Biso   1.000  H
  C1008    1.0000 0.25600  0.25630  0.24090  Biso   1.000  C
  Eu17     1.0000 0.20248  0.96034  0.54496  Biso   1.000  Eu
  In17     1.0000 0.22314  0.19421  0.19672  Biso   1.000  In
  O225     1.0000 0.17445  0.99019  0.56151  Biso   1.000  O
  O226     1.0000 0.14730  0.94506  0.52671  Biso   1.000  O
  O227     1.0000 0.21061  0.94891  0.49437  Biso   1.000  O
  O228     1.0000 0.22558  0.00373  0.50542  Biso   1.000  O
  O229     1.0000 0.36741  0.95829  0.22215  Biso   1.000  O
  O230     1.0000 0.32980  0.90560  0.24433  Biso   1.000  O
  O231     1.0000 0.17937  0.92713  0.59092  Biso   1.000  O
  O232     1.0000 0.18119  0.90163  0.54553  Biso   1.000  O
  O233     1.0000 0.25257  0.17443  0.21533  Biso   1.000  O
  O234     1.0000 0.20787  0.15813  0.24463  Biso   1.000  O
  O235     1.0000 0.11207  0.66813  0.81543  Biso   1.000  O
  O236     1.0000 0.12697  0.72303  0.82553  Biso   1.000  O
  O237     1.0000 0.92667  0.58203  0.54893  Biso   1.000  O
  O238     1.0000 0.89587  0.57693  0.59303  Biso   1.000  O
  C1009    1.0000 0.14817  0.97043  0.54303  Biso   1.000  C
  C1010    1.0000 0.11808  0.97703  0.54183  Biso   1.000  C
  C1011    1.0000 0.08717  0.95423  0.52373  Biso   1.000  C
  H561     1.0000 0.08577  0.93463  0.51143  Biso   1.000  H
  C1012    1.0000 0.05807  0.96103  0.52413  Biso   1.000  C
  H562     1.0000 0.03727  0.94623  0.51123  Biso   1.000  H
  C1013    1.0000 0.05847  0.98853  0.54263  Biso   1.000  C
  C1014    1.0000 0.09037  0.01103  0.56053  Biso   1.000  C
  H563     1.0000 0.09187  0.03063  0.57293  Biso   1.000  H
  C1015    1.0000 0.11957  0.00513  0.56023  Biso   1.000  C
  H564     1.0000 0.14067  0.02023  0.57263  Biso   1.000  H
  C1016    1.0000 0.02877  0.99373  0.54283  Biso   1.000  C
  C1017    1.0000 0.99537  0.96683  0.54243  Biso   1.000  C
  H565     1.0000 0.99157  0.94283  0.54173  Biso   1.000  H
  C1018    1.0000 0.22137  0.97883  0.48503  Biso   1.000  C
  C1019    1.0000 0.22917  0.99043  0.45283  Biso   1.000  C
  C1020    1.0000 0.24117  0.02563  0.44243  Biso   1.000  C
  H566     1.0000 0.24567  0.04423  0.45763  Biso   1.000  H
  C1021    1.0000 0.24687  0.03383  0.40773  Biso   1.000  C
  H567     1.0000 0.25527  0.05783  0.40033  Biso   1.000  H
  C1022    1.0000 0.24007  0.00683  0.38593  Biso   1.000  C
  C1023    1.0000 0.22617  0.97003  0.39623  Biso   1.000  C
  H568     1.0000 0.22097  0.95143  0.38083  Biso   1.000  H
  C1024    1.0000 0.22027  0.96183  0.42993  Biso   1.000  C
  H569     1.0000 0.21037  0.93743  0.43723  Biso   1.000  H
  C1025    1.0000 0.24807  0.01503  0.35203  Biso   1.000  C
  C1026    1.0000 0.24097  0.03793  0.33653  Biso   1.000  C
  H570     1.0000 0.22677  0.04633  0.34723  Biso   1.000  H
  C1027    1.0000 0.25317  0.04983  0.30573  Biso   1.000  C
  C1028    1.0000 0.26617  0.03223  0.28943  Biso   1.000  C
  H571     1.0000 0.27177  0.03803  0.26703  Biso   1.000  H
  C1029    1.0000 0.27197  0.00553  0.30303  Biso   1.000  C
  C1030    1.0000 0.26237  0.99723  0.33543  Biso   1.000  C
  H572     1.0000 0.26567  0.97923  0.34603  Biso   1.000  H
  C1031    1.0000 0.29037  0.98953  0.28583  Biso   1.000  C
  C1032    1.0000 0.31707  0.00753  0.26493  Biso   1.000  C
  H573     1.0000 0.32407  0.03213  0.26053  Biso   1.000  H
  C1033    1.0000 0.33517  0.99303  0.24903  Biso   1.000  C
  H574     1.0000 0.35477  0.00683  0.23453  Biso   1.000  H
  C1034    1.0000 0.32267  0.95603  0.25593  Biso   1.000  C
  C1035    1.0000 0.29587  0.93723  0.27563  Biso   1.000  C
  H575     1.0000 0.28737  0.91203  0.27853  Biso   1.000  H
  C1036    1.0000 0.27997  0.95293  0.29203  Biso   1.000  C
  H576     1.0000 0.26177  0.93953  0.30783  Biso   1.000  H
  C1037    1.0000 0.34107  0.93883  0.23873  Biso   1.000  C
  C1038    1.0000 0.24697  0.07523  0.29083  Biso   1.000  C
  C1039    1.0000 0.21917  0.08243  0.30123  Biso   1.000  C
  H577     1.0000 0.20577  0.07173  0.32063  Biso   1.000  H
  C1040    1.0000 0.21157  0.10613  0.28193  Biso   1.000  C
  H578     1.0000 0.19047  0.10773  0.28623  Biso   1.000  H
  C1041    1.0000 0.23517  0.12703  0.25673  Biso   1.000  C
  C1042    1.0000 0.26507  0.12203  0.24783  Biso   1.000  C
  H579     1.0000 0.28047  0.13513  0.23003  Biso   1.000  H
  C1043    1.0000 0.27167  0.09733  0.26603  Biso   1.000  C
  H580     1.0000 0.29267  0.09553  0.26163  Biso   1.000  H
  C1044    1.0000 0.23167  0.15563  0.23713  Biso   1.000  C
  C1045    1.0000 0.17217  0.89923  0.57423  Biso   1.000  C
  C1046    1.0000 0.15467  0.86403  0.58943  Biso   1.000  C
  C1047    1.0000 0.14327  0.83263  0.57253  Biso   1.000  C
  H581     1.0000 0.14787  0.83423  0.54983  Biso   1.000  H
  C1048    1.0000 0.12657  0.80103  0.58553  Biso   1.000  C
  H582     1.0000 0.11867  0.78033  0.57193  Biso   1.000  H
  C1049    1.0000 0.11967  0.79613  0.61873  Biso   1.000  C
  C1050    1.0000 0.12917  0.82723  0.63703  Biso   1.000  C
  H583     1.0000 0.12297  0.82513  0.65953  Biso   1.000  H
  C1051    1.0000 0.14717  0.86073  0.62253  Biso   1.000  C
  H584     1.0000 0.15467  0.88193  0.63533  Biso   1.000  H
  C1052    1.0000 0.10037  0.76113  0.63463  Biso   1.000  C
  C1053    1.0000 0.06837  0.73283  0.61763  Biso   1.000  C
  H585     1.0000 0.06117  0.73673  0.59673  Biso   1.000  H
  C1054    1.0000 0.04997  0.70103  0.63363  Biso   1.000  C
  C1055    1.0000 0.05807  0.69553  0.66213  Biso   1.000  C
  H586     1.0000 0.04267  0.67273  0.67203  Biso   1.000  H
  C1056    1.0000 0.08797  0.72063  0.67963  Biso   1.000  C
  C1057    1.0000 0.10997  0.75583  0.66493  Biso   1.000  C
  H587     1.0000 0.13047  0.77463  0.67593  Biso   1.000  H
  C1058    1.0000 0.09737  0.71403  0.71123  Biso   1.000  C
  C1059    1.0000 0.08867  0.68243  0.72223  Biso   1.000  C
  H588     1.0000 0.07577  0.66193  0.70833  Biso   1.000  H
  C1060    1.0000 0.09677  0.67683  0.75293  Biso   1.000  C
  H589     1.0000 0.09277  0.65343  0.75853  Biso   1.000  H
  C1061    1.0000 0.10977  0.70203  0.77443  Biso   1.000  C
  C1062    1.0000 0.11687  0.73623  0.76463  Biso   1.000  C
  H590     1.0000 0.12717  0.75633  0.77913  Biso   1.000  H
  C1063    1.0000 0.10857  0.73963  0.73333  Biso   1.000  C
  H591     1.0000 0.11097  0.76223  0.72703  Biso   1.000  H
  C1064    1.0000 0.11617  0.69633  0.80583  Biso   1.000  C
  C1065    1.0000 0.01787  0.66213  0.58683  Biso   1.000  C
  H592     1.0000 0.04007  0.67463  0.57513  Biso   1.000  H
  C1066    1.0000 0.01647  0.67013  0.62003  Biso   1.000  C
  C1067    1.0000 0.98407  0.65143  0.63853  Biso   1.000  C
  H593     1.0000 0.98337  0.65793  0.66053  Biso   1.000  H
  C1068    1.0000 0.95197  0.62193  0.62303  Biso   1.000  C
  H594     1.0000 0.93067  0.60753  0.63533  Biso   1.000  H
  C1069    1.0000 0.95317  0.61513  0.58943  Biso   1.000  C
  C1070    1.0000 0.98507  0.63453  0.57083  Biso   1.000  C
  H595     1.0000 0.98517  0.62973  0.54833  Biso   1.000  H
  C1071    1.0000 0.92267  0.58963  0.57423  Biso   1.000  C
  Eu18     1.0000 0.86915  0.29368  0.87829  Biso   1.000  Eu
  In18     1.0000 0.88980  0.52755  0.53006  Biso   1.000  In
  O239     1.0000 0.84111  0.32353  0.89485  Biso   1.000  O
  O240     1.0000 0.81396  0.27840  0.86005  Biso   1.000  O
  O241     1.0000 0.87727  0.28225  0.82771  Biso   1.000  O
  O242     1.0000 0.89224  0.33707  0.83876  Biso   1.000  O
  O243     1.0000 0.03407  0.29163  0.55549  Biso   1.000  O
  O244     1.0000 0.99646  0.23894  0.57767  Biso   1.000  O
  O245     1.0000 0.84603  0.26047  0.92426  Biso   1.000  O
  O246     1.0000 0.84785  0.23497  0.87887  Biso   1.000  O
  O247     1.0000 0.91923  0.50777  0.54867  Biso   1.000  O
  O248     1.0000 0.87453  0.49147  0.57797  Biso   1.000  O
  O249     1.0000 0.77873  0.00147  0.14877  Biso   1.000  O
  O250     1.0000 0.79363  0.05637  0.15887  Biso   1.000  O
  O251     1.0000 0.59333  0.91537  0.88227  Biso   1.000  O
  O252     1.0000 0.56253  0.91027  0.92637  Biso   1.000  O
  C1072    1.0000 0.81483  0.30377  0.87637  Biso   1.000  C
  C1073    1.0000 0.78474  0.31037  0.87517  Biso   1.000  C
  C1074    1.0000 0.75383  0.28757  0.85707  Biso   1.000  C
  H596     1.0000 0.75243  0.26797  0.84477  Biso   1.000  H
  C1075    1.0000 0.72473  0.29437  0.85747  Biso   1.000  C
  H597     1.0000 0.70393  0.27957  0.84457  Biso   1.000  H
  C1076    1.0000 0.72513  0.32187  0.87597  Biso   1.000  C
  C1077    1.0000 0.75703  0.34437  0.89387  Biso   1.000  C
  H598     1.0000 0.75853  0.36397  0.90627  Biso   1.000  H
  C1078    1.0000 0.78623  0.33847  0.89357  Biso   1.000  C
  H599     1.0000 0.80733  0.35357  0.90597  Biso   1.000  H
  C1079    1.0000 0.69543  0.32707  0.87617  Biso   1.000  C
  C1080    1.0000 0.66203  0.30017  0.87577  Biso   1.000  C
  H600     1.0000 0.65823  0.27617  0.87507  Biso   1.000  H
  C1081    1.0000 0.88803  0.31217  0.81837  Biso   1.000  C
  C1082    1.0000 0.89583  0.32377  0.78617  Biso   1.000  C
  C1083    1.0000 0.90783  0.35897  0.77577  Biso   1.000  C
  H601     1.0000 0.91233  0.37757  0.79097  Biso   1.000  H
  C1084    1.0000 0.91353  0.36717  0.74107  Biso   1.000  C
  H602     1.0000 0.92193  0.39117  0.73367  Biso   1.000  H
  C1085    1.0000 0.90673  0.34017  0.71927  Biso   1.000  C
  C1086    1.0000 0.89283  0.30337  0.72957  Biso   1.000  C
  H603     1.0000 0.88763  0.28477  0.71417  Biso   1.000  H
  C1087    1.0000 0.88693  0.29517  0.76327  Biso   1.000  C
  H604     1.0000 0.87703  0.27077  0.77057  Biso   1.000  H
  C1088    1.0000 0.91473  0.34837  0.68537  Biso   1.000  C
  C1089    1.0000 0.90763  0.37127  0.66987  Biso   1.000  C
  H605     1.0000 0.89343  0.37967  0.68057  Biso   1.000  H
  C1090    1.0000 0.91983  0.38317  0.63907  Biso   1.000  C
  C1091    1.0000 0.93283  0.36557  0.62277  Biso   1.000  C
  H606     1.0000 0.93843  0.37137  0.60037  Biso   1.000  H
  C1092    1.0000 0.93863  0.33887  0.63637  Biso   1.000  C
  C1093    1.0000 0.92903  0.33057  0.66877  Biso   1.000  C
  H607     1.0000 0.93233  0.31257  0.67937  Biso   1.000  H
  C1094    1.0000 0.95703  0.32287  0.61917  Biso   1.000  C
  C1095    1.0000 0.98373  0.34087  0.59827  Biso   1.000  C
  H608     1.0000 0.99073  0.36547  0.59387  Biso   1.000  H
  C1096    1.0000 0.00183  0.32637  0.58237  Biso   1.000  C
  H609     1.0000 0.02143  0.34017  0.56787  Biso   1.000  H
  C1097    1.0000 0.98933  0.28937  0.58927  Biso   1.000  C
  C1098    1.0000 0.96253  0.27057  0.60897  Biso   1.000  C
  H610     1.0000 0.95403  0.24537  0.61187  Biso   1.000  H
  C1099    1.0000 0.94663  0.28627  0.62537  Biso   1.000  C
  H611     1.0000 0.92843  0.27287  0.64117  Biso   1.000  H
  C1100    1.0000 0.00773  0.27217  0.57207  Biso   1.000  C
  C1101    1.0000 0.91363  0.40857  0.62417  Biso   1.000  C
  C1102    1.0000 0.88583  0.41577  0.63457  Biso   1.000  C
  H612     1.0000 0.87243  0.40507  0.65397  Biso   1.000  H
  C1103    1.0000 0.87823  0.43947  0.61527  Biso   1.000  C
  H613     1.0000 0.85713  0.44107  0.61957  Biso   1.000  H
  C1104    1.0000 0.90183  0.46037  0.59007  Biso   1.000  C
  C1105    1.0000 0.93173  0.45537  0.58117  Biso   1.000  C
  H614     1.0000 0.94713  0.46847  0.56337  Biso   1.000  H
  C1106    1.0000 0.93833  0.43067  0.59937  Biso   1.000  C
  H615     1.0000 0.95933  0.42887  0.59497  Biso   1.000  H
  C1107    1.0000 0.89833  0.48897  0.57047  Biso   1.000  C
  C1108    1.0000 0.83883  0.23257  0.90757  Biso   1.000  C
  C1109    1.0000 0.82133  0.19737  0.92277  Biso   1.000  C
  C1110    1.0000 0.80993  0.16597  0.90587  Biso   1.000  C
  H616     1.0000 0.81453  0.16757  0.88317  Biso   1.000  H
  C1111    1.0000 0.79323  0.13437  0.91887  Biso   1.000  C
  H617     1.0000 0.78533  0.11367  0.90527  Biso   1.000  H
  C1112    1.0000 0.78633  0.12947  0.95207  Biso   1.000  C
  C1113    1.0000 0.79583  0.16057  0.97037  Biso   1.000  C
  H618     1.0000 0.78963  0.15847  0.99287  Biso   1.000  H
  C1114    1.0000 0.81383  0.19407  0.95587  Biso   1.000  C
  H619     1.0000 0.82133  0.21527  0.96867  Biso   1.000  H
  C1115    1.0000 0.76703  0.09447  0.96797  Biso   1.000  C
  C1116    1.0000 0.73503  0.06617  0.95097  Biso   1.000  C
  H620     1.0000 0.72783  0.07007  0.93007  Biso   1.000  H
  C1117    1.0000 0.71663  0.03437  0.96697  Biso   1.000  C
  C1118    1.0000 0.72473  0.02887  0.99547  Biso   1.000  C
  H621     1.0000 0.70933  0.00607  0.00537  Biso   1.000  H
  C1119    1.0000 0.75463  0.05397  0.01297  Biso   1.000  C
  C1120    1.0000 0.77663  0.08917  0.99827  Biso   1.000  C
  H622     1.0000 0.79713  0.10797  0.00927  Biso   1.000  H
  C1121    1.0000 0.76403  0.04737  0.04457  Biso   1.000  C
  C1122    1.0000 0.75533  0.01577  0.05557  Biso   1.000  C
  H623     1.0000 0.74243  0.99527  0.04167  Biso   1.000  H
  C1123    1.0000 0.76343  0.01017  0.08627  Biso   1.000  C
  H624     1.0000 0.75943  0.98677  0.09187  Biso   1.000  H
  C1124    1.0000 0.77643  0.03537  0.10777  Biso   1.000  C
  C1125    1.0000 0.78353  0.06957  0.09797  Biso   1.000  C
  H625     1.0000 0.79383  0.08967  0.11247  Biso   1.000  H
  C1126    1.0000 0.77523  0.07297  0.06667  Biso   1.000  C
  H626     1.0000 0.77763  0.09557  0.06037  Biso   1.000  H
  C1127    1.0000 0.78283  0.02967  0.13917  Biso   1.000  C
  C1128    1.0000 0.68453  0.99547  0.92017  Biso   1.000  C
  H627     1.0000 0.70673  0.00797  0.90847  Biso   1.000  H
  C1129    1.0000 0.68313  0.00347  0.95337  Biso   1.000  C
  C1130    1.0000 0.65073  0.98477  0.97187  Biso   1.000  C
  H628     1.0000 0.65003  0.99127  0.99387  Biso   1.000  H
  C1131    1.0000 0.61863  0.95527  0.95637  Biso   1.000  C
  H629     1.0000 0.59733  0.94087  0.96867  Biso   1.000  H
  C1132    1.0000 0.61983  0.94847  0.92277  Biso   1.000  C
  C1133    1.0000 0.65173  0.96787  0.90417  Biso   1.000  C
  H630     1.0000 0.65183  0.96307  0.88167  Biso   1.000  H
  C1134    1.0000 0.58933  0.92297  0.90757  Biso   1.000  C
