data_image0
_cell_length_a       14.2697
_cell_length_b       40.363
_cell_length_c       30.931
_cell_angle_alpha    90
_cell_angle_beta     102.623
_cell_angle_gamma    90

_symmetry_space_group_name_H-M    "P 1"
_symmetry_int_tables_number       1

loop_
  _symmetry_equiv_pos_as_xyz
  'x, y, z'

loop_
  _atom_site_label
  _atom_site_occupancy
  _atom_site_fract_x
  _atom_site_fract_y
  _atom_site_fract_z
  _atom_site_thermal_displace_type
  _atom_site_B_iso_or_equiv
  _atom_site_type_symbol
  Co1      1.0000 0.60056  0.60493  0.27734  Biso   1.000  Co
  Co2      1.0000 0.82856  0.35353  0.22755  Biso   1.000  Co
  Co3      1.0000 0.60224  0.69814  0.77751  Biso   1.000  Co
  Co4      1.0000 0.33024  0.44819  0.72924  Biso   1.000  Co
  Cd1      1.0000 0.75289  0.52549  0.00659  Biso   1.000  Cd
  Cd2      1.0000 0.24810  0.27534  0.50239  Biso   1.000  Cd
  N1       1.0000 0.49860  0.62070  0.29610  Biso   1.000  N
  N2       1.0000 0.51430  0.58820  0.23020  Biso   1.000  N
  N3       1.0000 0.70770  0.36517  0.20280  Biso   1.000  N
  N4       1.0000 0.77160  0.34010  0.27220  Biso   1.000  N
  N5       1.0000 0.50650  0.71150  0.72720  Biso   1.000  N
  N6       1.0000 0.49350  0.68452  0.80160  Biso   1.000  N
  N7       1.0000 0.27880  0.46720  0.77310  Biso   1.000  N
  N8       1.0000 0.20590  0.42900  0.70380  Biso   1.000  N
  O1       1.0000 0.71750  0.72272  0.48023  Biso   1.000  O
  O2       1.0000 0.56000  0.71915  0.45660  Biso   1.000  O
  O3       1.0000 0.69370  0.61872  0.32770  Biso   1.000  O
  O4       1.0000 0.70610  0.59286  0.25296  Biso   1.000  O
  O5       1.0000 0.64110  0.54382  0.05250  Biso   1.000  O
  O6       1.0000 0.79620  0.54330  0.07350  Biso   1.000  O
  O7       1.0000 0.65080  0.47050  0.04360  Biso   1.000  O
  O8       1.0000 0.81440  0.47500  0.03540  Biso   1.000  O
  O9       1.0000 0.88040  0.36715  0.18207  Biso   1.000  O
  O10      1.0000 0.95810  0.34092  0.25894  Biso   1.000  O
  O11      1.0000 0.18730  0.28650  0.43920  Biso   1.000  O
  O12      1.0000 0.04260  0.29590  0.45710  Biso   1.000  O
  O13      1.0000 0.80200  0.75690  0.57780  Biso   1.000  O
  O14      1.0000 0.64660  0.76030  0.55610  Biso   1.000  O
  O15      1.0000 0.69990  0.70990  0.75330  Biso   1.000  O
  O16      1.0000 0.68580  0.68516  0.82700  Biso   1.000  O
  O17      1.0000 0.55590  0.58070  0.95570  Biso   1.000  O
  O18      1.0000 0.72220  0.57910  0.97890  Biso   1.000  O
  O19      1.0000 0.54220  0.50275  0.95934  Biso   1.000  O
  O20      1.0000 0.67720  0.50630  0.93840  Biso   1.000  O
  O21      1.0000 0.44790  0.45789  0.75601  Biso   1.000  O
  O22      1.0000 0.38430  0.43440  0.67880  Biso   1.000  O
  O23      1.0000 0.28340  0.33090  0.52870  Biso   1.000  O
  O24      1.0000 0.13660  0.33930  0.53850  Biso   1.000  O
  C1       1.0000 0.64160  0.71137  0.45450  Biso   1.000  C
  C2       1.0000 0.65320  0.68073  0.42568  Biso   1.000  C
  C3       1.0000 0.74340  0.66789  0.42542  Biso   1.000  C
  H1       1.0000 0.79680  0.67510  0.44620  Biso   1.000  H
  C4       1.0000 0.75380  0.64427  0.39410  Biso   1.000  C
  C5       1.0000 0.67400  0.63351  0.36300  Biso   1.000  C
  C6       1.0000 0.58370  0.64635  0.36328  Biso   1.000  C
  C7       1.0000 0.57330  0.66996  0.39461  Biso   1.000  C
  H2       1.0000 0.51290  0.67860  0.39480  Biso   1.000  H
  C8       1.0000 0.84190  0.58746  0.40180  Biso   1.000  C
  H3       1.0000 0.80930  0.58090  0.42440  Biso   1.000  H
  H4       1.0000 0.90500  0.57780  0.40770  Biso   1.000  H
  H5       1.0000 0.80630  0.57990  0.37350  Biso   1.000  H
  C9       1.0000 0.85030  0.62572  0.40120  Biso   1.000  C
  C10      1.0000 0.89840  0.63420  0.36240  Biso   1.000  C
  H6       1.0000 0.90400  0.65780  0.36010  Biso   1.000  H
  H7       1.0000 0.86000  0.62570  0.33520  Biso   1.000  H
  H8       1.0000 0.96120  0.62440  0.36760  Biso   1.000  H
  C11      1.0000 0.92610  0.63550  0.44300  Biso   1.000  C
  H9       1.0000 0.93210  0.65920  0.44450  Biso   1.000  H
  H10      1.0000 0.98690  0.62580  0.44170  Biso   1.000  H
  H11      1.0000 0.90630  0.62750  0.46890  Biso   1.000  H
  C12      1.0000 0.50650  0.63680  0.33040  Biso   1.000  C
  H12      1.0000 0.44790  0.64410  0.33530  Biso   1.000  H
  C13      1.0000 0.40740  0.61230  0.26740  Biso   1.000  C
  H13      1.0000 0.40440  0.62920  0.24440  Biso   1.000  H
  C14      1.0000 0.31370  0.61920  0.28110  Biso   1.000  C
  H14      1.0000 0.31170  0.64210  0.29030  Biso   1.000  H
  H15      1.0000 0.30810  0.60510  0.30580  Biso   1.000  H
  C15      1.0000 0.22820  0.61210  0.24030  Biso   1.000  C
  H16      1.0000 0.16770  0.61240  0.24980  Biso   1.000  H
  H17      1.0000 0.22600  0.62910  0.21800  Biso   1.000  H
  C16      1.0000 0.24320  0.57880  0.22140  Biso   1.000  C
  H18      1.0000 0.18610  0.57270  0.19950  Biso   1.000  H
  H19      1.0000 0.25250  0.56240  0.24490  Biso   1.000  H
  C17      1.0000 0.33030  0.57840  0.19970  Biso   1.000  C
  H20      1.0000 0.32840  0.59690  0.17940  Biso   1.000  H
  H21      1.0000 0.33400  0.55780  0.18400  Biso   1.000  H
  C18      1.0000 0.41660  0.58190  0.24120  Biso   1.000  C
  H22      1.0000 0.41990  0.56230  0.26000  Biso   1.000  H
  C19      1.0000 0.52710  0.57650  0.19270  Biso   1.000  C
  H23      1.0000 0.47400  0.56930  0.17170  Biso   1.000  H
  C20      1.0000 0.62170  0.57445  0.18249  Biso   1.000  C
  C21      1.0000 0.70610  0.58132  0.21324  Biso   1.000  C
  C22      1.0000 0.79420  0.57780  0.20155  Biso   1.000  C
  C23      1.0000 0.79800  0.56740  0.15910  Biso   1.000  C
  H24      1.0000 0.85700  0.56500  0.15130  Biso   1.000  H
  C24      1.0000 0.71350  0.56050  0.12837  Biso   1.000  C
  C25      1.0000 0.62540  0.56405  0.14005  Biso   1.000  C
  H25      1.0000 0.56890  0.55950  0.11950  Biso   1.000  H
  C26      1.0000 0.88920  0.58437  0.23604  Biso   1.000  C
  C27      1.0000 0.89480  0.56540  0.27980  Biso   1.000  C
  H26      1.0000 0.95510  0.57000  0.29970  Biso   1.000  H
  H27      1.0000 0.88970  0.54200  0.27380  Biso   1.000  H
  H28      1.0000 0.84320  0.57230  0.29310  Biso   1.000  H
  C28      1.0000 0.97510  0.57610  0.21520  Biso   1.000  C
  H29      1.0000 0.03380  0.57910  0.23690  Biso   1.000  H
  H30      1.0000 0.97460  0.59050  0.19050  Biso   1.000  H
  H31      1.0000 0.97040  0.55350  0.20530  Biso   1.000  H
  C29      1.0000 0.90210  0.62118  0.24990  Biso   1.000  C
  H32      1.0000 0.96060  0.62380  0.27190  Biso   1.000  H
  H33      1.0000 0.84880  0.62820  0.26200  Biso   1.000  H
  H34      1.0000 0.90490  0.63450  0.22450  Biso   1.000  H
  C30      1.0000 0.71870  0.55060  0.08300  Biso   1.000  C
  C31      1.0000 0.73470  0.45740  0.04590  Biso   1.000  C
  C32      1.0000 0.77400  0.43121  0.08241  Biso   1.000  C
  C33      1.0000 0.71640  0.41974  0.11010  Biso   1.000  C
  H35      1.0000 0.65400  0.42760  0.10690  Biso   1.000  H
  C34      1.0000 0.75210  0.39650  0.14270  Biso   1.000  C
  C35      1.0000 0.84540  0.38470  0.14760  Biso   1.000  C
  C36      1.0000 0.90290  0.39620  0.11990  Biso   1.000  C
  C37      1.0000 0.86720  0.41943  0.08730  Biso   1.000  C
  H36      1.0000 0.90580  0.42710  0.06870  Biso   1.000  H
  C38      1.0000 0.99270  0.37674  0.11490  Biso   1.000  C
  C39      1.0000 0.06680  0.38900  0.15580  Biso   1.000  C
  H37      1.0000 0.04540  0.38340  0.18220  Biso   1.000  H
  H38      1.0000 0.07350  0.41260  0.15410  Biso   1.000  H
  H39      1.0000 0.12770  0.37870  0.15650  Biso   1.000  H
  C40      1.0000 0.97920  0.33890  0.11090  Biso   1.000  C
  H40      1.0000 0.95200  0.33100  0.13480  Biso   1.000  H
  H41      1.0000 0.04040  0.32850  0.11240  Biso   1.000  H
  H42      1.0000 0.93700  0.33370  0.08310  Biso   1.000  H
  C41      1.0000 0.03620  0.38690  0.07610  Biso   1.000  C
  H43      1.0000 0.04940  0.41020  0.07770  Biso   1.000  H
  H44      1.0000 0.99180  0.38190  0.04880  Biso   1.000  H
  H45      1.0000 0.09490  0.37490  0.07740  Biso   1.000  H
  C42      1.0000 0.68730  0.38620  0.16740  Biso   1.000  C
  H46      1.0000 0.62480  0.39410  0.15910  Biso   1.000  H
  C43      1.0000 0.62980  0.35120  0.22230  Biso   1.000  C
  H47      1.0000 0.62470  0.32830  0.21190  Biso   1.000  H
  C44      1.0000 0.53730  0.36200  0.21260  Biso   1.000  C
  H48      1.0000 0.51200  0.35970  0.18100  Biso   1.000  H
  H49      1.0000 0.53640  0.38540  0.21990  Biso   1.000  H
  C45      1.0000 0.47100  0.34340  0.23720  Biso   1.000  C
  H50      1.0000 0.46730  0.32020  0.22870  Biso   1.000  H
  H51      1.0000 0.40680  0.35270  0.22940  Biso   1.000  H
  C46      1.0000 0.51060  0.34640  0.28750  Biso   1.000  C
  H52      1.0000 0.50690  0.36920  0.29710  Biso   1.000  H
  H53      1.0000 0.47470  0.33240  0.30360  Biso   1.000  H
  C47      1.0000 0.61470  0.33510  0.29500  Biso   1.000  C
  H54      1.0000 0.64450  0.33910  0.32590  Biso   1.000  H
  H55      1.0000 0.61450  0.31130  0.29050  Biso   1.000  H
  C48      1.0000 0.66840  0.34780  0.27170  Biso   1.000  C
  H56      1.0000 0.67210  0.37100  0.28150  Biso   1.000  H
  C49      1.0000 0.82540  0.32680  0.31270  Biso   1.000  C
  H57      1.0000 0.78980  0.31960  0.33270  Biso   1.000  H
  C50      1.0000 0.92390  0.32328  0.32601  Biso   1.000  C
  C51      1.0000 0.98650  0.32897  0.29814  Biso   1.000  C
  C52      1.0000 0.08450  0.32400  0.31348  Biso   1.000  C
  C53      1.0000 0.11990  0.31330  0.35670  Biso   1.000  C
  H58      1.0000 0.18550  0.31000  0.36700  Biso   1.000  H
  C54      1.0000 0.05730  0.30760  0.38457  Biso   1.000  C
  C55      1.0000 0.95920  0.31261  0.36923  Biso   1.000  C
  H59      1.0000 0.91730  0.30880  0.38790  Biso   1.000  H
  C56      1.0000 0.15330  0.32824  0.28110  Biso   1.000  C
  C57      1.0000 0.16130  0.36390  0.26470  Biso   1.000  C
  H60      1.0000 0.20600  0.36450  0.24560  Biso   1.000  H
  H61      1.0000 0.18330  0.37820  0.28970  Biso   1.000  H
  H62      1.0000 0.09940  0.37120  0.24870  Biso   1.000  H
  C58      1.0000 0.11560  0.31170  0.23520  Biso   1.000  C
  H63      1.0000 0.16070  0.31540  0.21680  Biso   1.000  H
  H64      1.0000 0.05480  0.32130  0.22140  Biso   1.000  H
  H65      1.0000 0.10790  0.28840  0.23910  Biso   1.000  H
  C59      1.0000 0.25170  0.31200  0.30070  Biso   1.000  C
  H66      1.0000 0.29410  0.31550  0.28090  Biso   1.000  H
  H67      1.0000 0.24320  0.28870  0.30440  Biso   1.000  H
  H68      1.0000 0.27900  0.32190  0.32890  Biso   1.000  H
  C60      1.0000 0.09240  0.29940  0.42740  Biso   1.000  C
  C61      1.0000 0.72000  0.75510  0.58316  Biso   1.000  C
  C62      1.0000 0.70950  0.74415  0.62823  Biso   1.000  C
  C63      1.0000 0.79470  0.73879  0.65918  Biso   1.000  C
  H69      1.0000 0.85330  0.74270  0.65160  Biso   1.000  H
  C64      1.0000 0.79220  0.72760  0.70141  Biso   1.000  C
  C65      1.0000 0.70450  0.72170  0.71269  Biso   1.000  C
  C66      1.0000 0.61940  0.72710  0.68174  Biso   1.000  C
  C67      1.0000 0.62180  0.73831  0.63951  Biso   1.000  C
  H70      1.0000 0.56490  0.74190  0.61880  Biso   1.000  H
  C68      1.0000 0.88790  0.72483  0.73500  Biso   1.000  C
  C69      1.0000 0.97710  0.73780  0.71980  Biso   1.000  C
  H71      1.0000 0.97940  0.72820  0.69160  Biso   1.000  H
  H72      1.0000 0.03400  0.73180  0.74120  Biso   1.000  H
  H73      1.0000 0.97350  0.76150  0.71700  Biso   1.000  H
  C70      1.0000 0.90210  0.68697  0.74200  Biso   1.000  C
  H74      1.0000 0.90010  0.67640  0.71400  Biso   1.000  H
  H75      1.0000 0.85180  0.67820  0.75480  Biso   1.000  H
  H76      1.0000 0.96310  0.68280  0.76150  Biso   1.000  H
  C71      1.0000 0.23570  0.70620  0.70860  Biso   1.000  C
  H77      1.0000 0.18510  0.72050  0.69260  Biso   1.000  H
  H78      1.0000 0.22690  0.68410  0.69620  Biso   1.000  H
  C72      1.0000 0.89400  0.74210  0.78070  Biso   1.000  C
  H79      1.0000 0.84020  0.73540  0.79270  Biso   1.000  H
  H80      1.0000 0.89290  0.76570  0.77690  Biso   1.000  H
  H81      1.0000 0.95250  0.73570  0.80080  Biso   1.000  H
  C73      1.0000 0.52740  0.72300  0.69110  Biso   1.000  C
  H82      1.0000 0.47560  0.72920  0.66870  Biso   1.000  H
  C74      1.0000 0.40760  0.70330  0.73166  Biso   1.000  C
  H83      1.0000 0.39770  0.68040  0.72120  Biso   1.000  H
  C75      1.0000 0.33510  0.71990  0.70730  Biso   1.000  C
  H84      1.0000 0.34210  0.71990  0.67680  Biso   1.000  H
  H85      1.0000 0.33870  0.74270  0.71730  Biso   1.000  H
  C76      1.0000 0.23720  0.70590  0.75730  Biso   1.000  C
  H86      1.0000 0.17790  0.69590  0.76130  Biso   1.000  H
  H87      1.0000 0.23750  0.72870  0.76730  Biso   1.000  H
  C77      1.0000 0.32050  0.68790  0.78720  Biso   1.000  C
  H88      1.0000 0.31720  0.69060  0.81800  Biso   1.000  H
  H89      1.0000 0.31760  0.66440  0.78030  Biso   1.000  H
  C78      1.0000 0.40590  0.70150  0.77993  Biso   1.000  C
  H90      1.0000 0.41010  0.72420  0.79130  Biso   1.000  H
  C79      1.0000 0.49520  0.66543  0.83270  Biso   1.000  C
  H91      1.0000 0.43710  0.65960  0.83950  Biso   1.000  H
  C80      1.0000 0.58750  0.65065  0.86082  Biso   1.000  C
  C81      1.0000 0.67750  0.66419  0.86187  Biso   1.000  C
  C82      1.0000 0.75580  0.65467  0.89470  Biso   1.000  C
  C83      1.0000 0.74410  0.63160  0.92650  Biso   1.000  C
  H92      1.0000 0.79650  0.62530  0.94850  Biso   1.000  H
  C84      1.0000 0.65410  0.61809  0.92540  Biso   1.000  C
  C85      1.0000 0.57570  0.62760  0.89261  Biso   1.000  C
  H93      1.0000 0.51550  0.61850  0.89190  Biso   1.000  H
  C86      1.0000 0.85620  0.67098  0.89913  Biso   1.000  C
  C87      1.0000 0.84030  0.70910  0.90010  Biso   1.000  C
  H94      1.0000 0.90090  0.72030  0.90340  Biso   1.000  H
  H95      1.0000 0.81200  0.71470  0.92470  Biso   1.000  H
  H96      1.0000 0.79820  0.71600  0.87300  Biso   1.000  H
  C88      1.0000 0.90230  0.66130  0.86100  Biso   1.000  C
  H97      1.0000 0.96380  0.67190  0.86470  Biso   1.000  H
  H98      1.0000 0.86180  0.66820  0.83350  Biso   1.000  H
  H99      1.0000 0.91050  0.63770  0.86080  Biso   1.000  H
  C89      1.0000 0.92630  0.66160  0.94200  Biso   1.000  C
  H100     1.0000 0.98610  0.67290  0.94350  Biso   1.000  H
  H101     1.0000 0.93680  0.63810  0.94260  Biso   1.000  H
  H102     1.0000 0.90000  0.66790  0.96680  Biso   1.000  H
  C90      1.0000 0.59250  0.50410  0.93142  Biso   1.000  C
  C91      1.0000 0.64400  0.59168  0.95960  Biso   1.000  C
  C92      1.0000 0.55300  0.49237  0.88252  Biso   1.000  C
  C93      1.0000 0.45490  0.48734  0.86744  Biso   1.000  C
  H103     1.0000 0.41320  0.49140  0.88610  Biso   1.000  H
  C94      1.0000 0.41920  0.47620  0.82447  Biso   1.000  C
  C95      1.0000 0.48150  0.47010  0.79658  Biso   1.000  C
  C96      1.0000 0.57960  0.47510  0.81166  Biso   1.000  C
  C97      1.0000 0.61530  0.48627  0.85463  Biso   1.000  C
  H104     1.0000 0.68090  0.48960  0.86470  Biso   1.000  H
  C98      1.0000 0.75900  0.47640  0.80520  Biso   1.000  C
  H105     1.0000 0.80020  0.47020  0.78580  Biso   1.000  H
  H106     1.0000 0.77900  0.46520  0.83300  Biso   1.000  H
  H107     1.0000 0.76250  0.49990  0.81000  Biso   1.000  H
  C99      1.0000 0.65430  0.46654  0.78380  Biso   1.000  C
  C100     1.0000 0.65060  0.42897  0.77460  Biso   1.000  C
  H108     1.0000 0.58610  0.42270  0.76070  Biso   1.000  H
  H109     1.0000 0.67050  0.41720  0.80200  Biso   1.000  H
  H110     1.0000 0.69280  0.42370  0.75530  Biso   1.000  H
  C101     1.0000 0.63490  0.48540  0.73980  Biso   1.000  C
  H111     1.0000 0.57090  0.48080  0.72360  Biso   1.000  H
  H112     1.0000 0.68010  0.47850  0.72270  Biso   1.000  H
  H113     1.0000 0.64170  0.50880  0.74550  Biso   1.000  H
  C102     1.0000 0.31510  0.47210  0.81150  Biso   1.000  C
  H114     1.0000 0.27760  0.47320  0.83250  Biso   1.000  H
  C103     1.0000 0.11510  0.47460  0.79660  Biso   1.000  C
  H115     1.0000 0.12650  0.45890  0.82080  Biso   1.000  H
  H116     1.0000 0.13240  0.49670  0.80820  Biso   1.000  H
  C104     1.0000 0.97370  0.44300  0.74380  Biso   1.000  C
  H117     1.0000 0.90560  0.44580  0.73140  Biso   1.000  H
  H118     1.0000 0.98060  0.42420  0.76390  Biso   1.000  H
  C105     1.0000 0.02220  0.43400  0.70580  Biso   1.000  C
  H119     1.0000 0.00750  0.45000  0.68190  Biso   1.000  H
  H120     1.0000 0.00360  0.41200  0.69420  Biso   1.000  H
  C106     1.0000 0.17530  0.41450  0.66930  Biso   1.000  C
  H121     1.0000 0.10980  0.41050  0.65980  Biso   1.000  H
  C107     1.0000 0.17300  0.46490  0.76010  Biso   1.000  C
  H122     1.0000 0.15710  0.48320  0.73900  Biso   1.000  H
  C108     1.0000 0.00950  0.47350  0.77050  Biso   1.000  C
  H123     1.0000 0.96900  0.47680  0.79160  Biso   1.000  H
  H124     1.0000 0.99930  0.49220  0.75050  Biso   1.000  H
  C109     1.0000 0.13850  0.43530  0.73160  Biso   1.000  C
  H125     1.0000 0.14680  0.41660  0.75230  Biso   1.000  H
  C110     1.0000 0.24660  0.40237  0.64097  Biso   1.000  C
  C111     1.0000 0.33820  0.41538  0.64471  Biso   1.000  C
  C112     1.0000 0.39320  0.40607  0.61480  Biso   1.000  C
  C113     1.0000 0.35660  0.38370  0.58110  Biso   1.000  C
  H126     1.0000 0.39350  0.37750  0.56110  Biso   1.000  H
  C114     1.0000 0.26500  0.37073  0.57736  Biso   1.000  C
  C115     1.0000 0.21000  0.38004  0.60729  Biso   1.000  C
  H127     1.0000 0.14870  0.37130  0.60480  Biso   1.000  H
  C116     1.0000 0.56450  0.41650  0.65240  Biso   1.000  C
  H128     1.0000 0.62610  0.42360  0.64810  Biso   1.000  H
  H129     1.0000 0.56640  0.39320  0.65870  Biso   1.000  H
  H130     1.0000 0.54910  0.42850  0.67670  Biso   1.000  H
  C117     1.0000 0.48760  0.42343  0.61010  Biso   1.000  C
  C118     1.0000 0.51630  0.41850  0.56520  Biso   1.000  C
  H131     1.0000 0.57600  0.42960  0.56570  Biso   1.000  H
  H132     1.0000 0.46730  0.42760  0.54190  Biso   1.000  H
  H133     1.0000 0.52330  0.39530  0.56000  Biso   1.000  H
  C119     1.0000 0.48130  0.46136  0.61460  Biso   1.000  C
  H134     1.0000 0.54140  0.47120  0.61250  Biso   1.000  H
  H135     1.0000 0.46750  0.46670  0.64280  Biso   1.000  H
  H136     1.0000 0.43110  0.46980  0.59140  Biso   1.000  H
  C120     1.0000 0.22650  0.34250  0.54880  Biso   1.000  C
  Co5      1.0000 0.10056  0.10493  0.27734  Biso   1.000  Co
  Co6      1.0000 0.32856  0.85353  0.22755  Biso   1.000  Co
  Co7      1.0000 0.10224  0.19814  0.77751  Biso   1.000  Co
  Co8      1.0000 0.83024  0.94819  0.72924  Biso   1.000  Co
  Cd3      1.0000 0.25289  0.02549  0.00659  Biso   1.000  Cd
  Cd4      1.0000 0.74810  0.77534  0.50239  Biso   1.000  Cd
  N9       1.0000 0.99860  0.12070  0.29610  Biso   1.000  N
  N10      1.0000 0.01430  0.08820  0.23020  Biso   1.000  N
  N11      1.0000 0.20770  0.86517  0.20280  Biso   1.000  N
  N12      1.0000 0.27160  0.84010  0.27220  Biso   1.000  N
  N13      1.0000 0.00650  0.21150  0.72720  Biso   1.000  N
  N14      1.0000 0.99350  0.18452  0.80160  Biso   1.000  N
  N15      1.0000 0.77880  0.96720  0.77310  Biso   1.000  N
  N16      1.0000 0.70590  0.92900  0.70380  Biso   1.000  N
  O25      1.0000 0.21750  0.22272  0.48023  Biso   1.000  O
  O26      1.0000 0.06000  0.21915  0.45660  Biso   1.000  O
  O27      1.0000 0.19370  0.11872  0.32770  Biso   1.000  O
  O28      1.0000 0.20610  0.09286  0.25296  Biso   1.000  O
  O29      1.0000 0.14110  0.04382  0.05250  Biso   1.000  O
  O30      1.0000 0.29620  0.04330  0.07350  Biso   1.000  O
  O31      1.0000 0.15080  0.97050  0.04360  Biso   1.000  O
  O32      1.0000 0.31440  0.97500  0.03540  Biso   1.000  O
  O33      1.0000 0.38040  0.86715  0.18207  Biso   1.000  O
  O34      1.0000 0.45810  0.84092  0.25894  Biso   1.000  O
  O35      1.0000 0.68730  0.78650  0.43920  Biso   1.000  O
  O36      1.0000 0.54260  0.79590  0.45710  Biso   1.000  O
  O37      1.0000 0.30200  0.25690  0.57780  Biso   1.000  O
  O38      1.0000 0.14660  0.26030  0.55610  Biso   1.000  O
  O39      1.0000 0.19990  0.20990  0.75330  Biso   1.000  O
  O40      1.0000 0.18580  0.18516  0.82700  Biso   1.000  O
  O41      1.0000 0.05590  0.08070  0.95570  Biso   1.000  O
  O42      1.0000 0.22220  0.07910  0.97890  Biso   1.000  O
  O43      1.0000 0.04220  0.00275  0.95934  Biso   1.000  O
  O44      1.0000 0.17720  0.00630  0.93840  Biso   1.000  O
  O45      1.0000 0.94790  0.95789  0.75601  Biso   1.000  O
  O46      1.0000 0.88430  0.93440  0.67880  Biso   1.000  O
  O47      1.0000 0.78340  0.83090  0.52870  Biso   1.000  O
  O48      1.0000 0.63660  0.83930  0.53850  Biso   1.000  O
  C121     1.0000 0.14160  0.21137  0.45450  Biso   1.000  C
  C122     1.0000 0.15320  0.18073  0.42568  Biso   1.000  C
  C123     1.0000 0.24340  0.16789  0.42542  Biso   1.000  C
  H137     1.0000 0.29680  0.17510  0.44620  Biso   1.000  H
  C124     1.0000 0.25380  0.14427  0.39410  Biso   1.000  C
  C125     1.0000 0.17400  0.13351  0.36300  Biso   1.000  C
  C126     1.0000 0.08370  0.14635  0.36328  Biso   1.000  C
  C127     1.0000 0.07330  0.16996  0.39461  Biso   1.000  C
  H138     1.0000 0.01290  0.17860  0.39480  Biso   1.000  H
  C128     1.0000 0.34190  0.08746  0.40180  Biso   1.000  C
  H139     1.0000 0.30930  0.08090  0.42440  Biso   1.000  H
  H140     1.0000 0.40500  0.07780  0.40770  Biso   1.000  H
  H141     1.0000 0.30630  0.07990  0.37350  Biso   1.000  H
  C129     1.0000 0.35030  0.12572  0.40120  Biso   1.000  C
  C130     1.0000 0.39840  0.13420  0.36240  Biso   1.000  C
  H142     1.0000 0.40400  0.15780  0.36010  Biso   1.000  H
  H143     1.0000 0.36000  0.12570  0.33520  Biso   1.000  H
  H144     1.0000 0.46120  0.12440  0.36760  Biso   1.000  H
  C131     1.0000 0.42610  0.13550  0.44300  Biso   1.000  C
  H145     1.0000 0.43210  0.15920  0.44450  Biso   1.000  H
  H146     1.0000 0.48690  0.12580  0.44170  Biso   1.000  H
  H147     1.0000 0.40630  0.12750  0.46890  Biso   1.000  H
  C132     1.0000 0.00650  0.13680  0.33040  Biso   1.000  C
  H148     1.0000 0.94790  0.14410  0.33530  Biso   1.000  H
  C133     1.0000 0.90740  0.11230  0.26740  Biso   1.000  C
  H149     1.0000 0.90440  0.12920  0.24440  Biso   1.000  H
  C134     1.0000 0.81370  0.11920  0.28110  Biso   1.000  C
  H150     1.0000 0.81170  0.14210  0.29030  Biso   1.000  H
  H151     1.0000 0.80810  0.10510  0.30580  Biso   1.000  H
  C135     1.0000 0.72820  0.11210  0.24030  Biso   1.000  C
  H152     1.0000 0.66770  0.11240  0.24980  Biso   1.000  H
  H153     1.0000 0.72600  0.12910  0.21800  Biso   1.000  H
  C136     1.0000 0.74320  0.07880  0.22140  Biso   1.000  C
  H154     1.0000 0.68610  0.07270  0.19950  Biso   1.000  H
  H155     1.0000 0.75250  0.06240  0.24490  Biso   1.000  H
  C137     1.0000 0.83030  0.07840  0.19970  Biso   1.000  C
  H156     1.0000 0.82840  0.09690  0.17940  Biso   1.000  H
  H157     1.0000 0.83400  0.05780  0.18400  Biso   1.000  H
  C138     1.0000 0.91660  0.08190  0.24120  Biso   1.000  C
  H158     1.0000 0.91990  0.06230  0.26000  Biso   1.000  H
  C139     1.0000 0.02710  0.07650  0.19270  Biso   1.000  C
  H159     1.0000 0.97400  0.06930  0.17170  Biso   1.000  H
  C140     1.0000 0.12170  0.07445  0.18249  Biso   1.000  C
  C141     1.0000 0.20610  0.08132  0.21324  Biso   1.000  C
  C142     1.0000 0.29420  0.07780  0.20155  Biso   1.000  C
  C143     1.0000 0.29800  0.06740  0.15910  Biso   1.000  C
  H160     1.0000 0.35700  0.06500  0.15130  Biso   1.000  H
  C144     1.0000 0.21350  0.06050  0.12837  Biso   1.000  C
  C145     1.0000 0.12540  0.06405  0.14005  Biso   1.000  C
  H161     1.0000 0.06890  0.05950  0.11950  Biso   1.000  H
  C146     1.0000 0.38920  0.08437  0.23604  Biso   1.000  C
  C147     1.0000 0.39480  0.06540  0.27980  Biso   1.000  C
  H162     1.0000 0.45510  0.07000  0.29970  Biso   1.000  H
  H163     1.0000 0.38970  0.04200  0.27380  Biso   1.000  H
  H164     1.0000 0.34320  0.07230  0.29310  Biso   1.000  H
  C148     1.0000 0.47510  0.07610  0.21520  Biso   1.000  C
  H165     1.0000 0.53380  0.07910  0.23690  Biso   1.000  H
  H166     1.0000 0.47460  0.09050  0.19050  Biso   1.000  H
  H167     1.0000 0.47040  0.05350  0.20530  Biso   1.000  H
  C149     1.0000 0.40210  0.12118  0.24990  Biso   1.000  C
  H168     1.0000 0.46060  0.12380  0.27190  Biso   1.000  H
  H169     1.0000 0.34880  0.12820  0.26200  Biso   1.000  H
  H170     1.0000 0.40490  0.13450  0.22450  Biso   1.000  H
  C150     1.0000 0.21870  0.05060  0.08300  Biso   1.000  C
  C151     1.0000 0.23470  0.95740  0.04590  Biso   1.000  C
  C152     1.0000 0.27400  0.93121  0.08241  Biso   1.000  C
  C153     1.0000 0.21640  0.91974  0.11010  Biso   1.000  C
  H171     1.0000 0.15400  0.92760  0.10690  Biso   1.000  H
  C154     1.0000 0.25210  0.89650  0.14270  Biso   1.000  C
  C155     1.0000 0.34540  0.88470  0.14760  Biso   1.000  C
  C156     1.0000 0.40290  0.89620  0.11990  Biso   1.000  C
  C157     1.0000 0.36720  0.91943  0.08730  Biso   1.000  C
  H172     1.0000 0.40580  0.92710  0.06870  Biso   1.000  H
  C158     1.0000 0.49270  0.87674  0.11490  Biso   1.000  C
  C159     1.0000 0.56680  0.88900  0.15580  Biso   1.000  C
  H173     1.0000 0.54540  0.88340  0.18220  Biso   1.000  H
  H174     1.0000 0.57350  0.91260  0.15410  Biso   1.000  H
  H175     1.0000 0.62770  0.87870  0.15650  Biso   1.000  H
  C160     1.0000 0.47920  0.83890  0.11090  Biso   1.000  C
  H176     1.0000 0.45200  0.83100  0.13480  Biso   1.000  H
  H177     1.0000 0.54040  0.82850  0.11240  Biso   1.000  H
  H178     1.0000 0.43700  0.83370  0.08310  Biso   1.000  H
  C161     1.0000 0.53620  0.88690  0.07610  Biso   1.000  C
  H179     1.0000 0.54940  0.91020  0.07770  Biso   1.000  H
  H180     1.0000 0.49180  0.88190  0.04880  Biso   1.000  H
  H181     1.0000 0.59490  0.87490  0.07740  Biso   1.000  H
  C162     1.0000 0.18730  0.88620  0.16740  Biso   1.000  C
  H182     1.0000 0.12480  0.89410  0.15910  Biso   1.000  H
  C163     1.0000 0.12980  0.85120  0.22230  Biso   1.000  C
  H183     1.0000 0.12470  0.82830  0.21190  Biso   1.000  H
  C164     1.0000 0.03730  0.86200  0.21260  Biso   1.000  C
  H184     1.0000 0.01200  0.85970  0.18100  Biso   1.000  H
  H185     1.0000 0.03640  0.88540  0.21990  Biso   1.000  H
  C165     1.0000 0.97100  0.84340  0.23720  Biso   1.000  C
  H186     1.0000 0.96730  0.82020  0.22870  Biso   1.000  H
  H187     1.0000 0.90680  0.85270  0.22940  Biso   1.000  H
  C166     1.0000 0.01060  0.84640  0.28750  Biso   1.000  C
  H188     1.0000 0.00690  0.86920  0.29710  Biso   1.000  H
  H189     1.0000 0.97470  0.83240  0.30360  Biso   1.000  H
  C167     1.0000 0.11470  0.83510  0.29500  Biso   1.000  C
  H190     1.0000 0.14450  0.83910  0.32590  Biso   1.000  H
  H191     1.0000 0.11450  0.81130  0.29050  Biso   1.000  H
  C168     1.0000 0.16840  0.84780  0.27170  Biso   1.000  C
  H192     1.0000 0.17210  0.87100  0.28150  Biso   1.000  H
  C169     1.0000 0.32540  0.82680  0.31270  Biso   1.000  C
  H193     1.0000 0.28980  0.81960  0.33270  Biso   1.000  H
  C170     1.0000 0.42390  0.82328  0.32601  Biso   1.000  C
  C171     1.0000 0.48650  0.82897  0.29814  Biso   1.000  C
  C172     1.0000 0.58450  0.82400  0.31348  Biso   1.000  C
  C173     1.0000 0.61990  0.81330  0.35670  Biso   1.000  C
  H194     1.0000 0.68550  0.81000  0.36700  Biso   1.000  H
  C174     1.0000 0.55730  0.80760  0.38457  Biso   1.000  C
  C175     1.0000 0.45920  0.81261  0.36923  Biso   1.000  C
  H195     1.0000 0.41730  0.80880  0.38790  Biso   1.000  H
  C176     1.0000 0.65330  0.82824  0.28110  Biso   1.000  C
  C177     1.0000 0.66130  0.86390  0.26470  Biso   1.000  C
  H196     1.0000 0.70600  0.86450  0.24560  Biso   1.000  H
  H197     1.0000 0.68330  0.87820  0.28970  Biso   1.000  H
  H198     1.0000 0.59940  0.87120  0.24870  Biso   1.000  H
  C178     1.0000 0.61560  0.81170  0.23520  Biso   1.000  C
  H199     1.0000 0.66070  0.81540  0.21680  Biso   1.000  H
  H200     1.0000 0.55480  0.82130  0.22140  Biso   1.000  H
  H201     1.0000 0.60790  0.78840  0.23910  Biso   1.000  H
  C179     1.0000 0.75170  0.81200  0.30070  Biso   1.000  C
  H202     1.0000 0.79410  0.81550  0.28090  Biso   1.000  H
  H203     1.0000 0.74320  0.78870  0.30440  Biso   1.000  H
  H204     1.0000 0.77900  0.82190  0.32890  Biso   1.000  H
  C180     1.0000 0.59240  0.79940  0.42740  Biso   1.000  C
  C181     1.0000 0.22000  0.25510  0.58316  Biso   1.000  C
  C182     1.0000 0.20950  0.24415  0.62823  Biso   1.000  C
  C183     1.0000 0.29470  0.23879  0.65918  Biso   1.000  C
  H205     1.0000 0.35330  0.24270  0.65160  Biso   1.000  H
  C184     1.0000 0.29220  0.22760  0.70141  Biso   1.000  C
  C185     1.0000 0.20450  0.22170  0.71269  Biso   1.000  C
  C186     1.0000 0.11940  0.22710  0.68174  Biso   1.000  C
  C187     1.0000 0.12180  0.23831  0.63951  Biso   1.000  C
  H206     1.0000 0.06490  0.24190  0.61880  Biso   1.000  H
  C188     1.0000 0.38790  0.22483  0.73500  Biso   1.000  C
  C189     1.0000 0.47710  0.23780  0.71980  Biso   1.000  C
  H207     1.0000 0.47940  0.22820  0.69160  Biso   1.000  H
  H208     1.0000 0.53400  0.23180  0.74120  Biso   1.000  H
  H209     1.0000 0.47350  0.26150  0.71700  Biso   1.000  H
  C190     1.0000 0.40210  0.18697  0.74200  Biso   1.000  C
  H210     1.0000 0.40010  0.17640  0.71400  Biso   1.000  H
  H211     1.0000 0.35180  0.17820  0.75480  Biso   1.000  H
  H212     1.0000 0.46310  0.18280  0.76150  Biso   1.000  H
  C191     1.0000 0.73570  0.20620  0.70860  Biso   1.000  C
  H213     1.0000 0.68510  0.22050  0.69260  Biso   1.000  H
  H214     1.0000 0.72690  0.18410  0.69620  Biso   1.000  H
  C192     1.0000 0.39400  0.24210  0.78070  Biso   1.000  C
  H215     1.0000 0.34020  0.23540  0.79270  Biso   1.000  H
  H216     1.0000 0.39290  0.26570  0.77690  Biso   1.000  H
  H217     1.0000 0.45250  0.23570  0.80080  Biso   1.000  H
  C193     1.0000 0.02740  0.22300  0.69110  Biso   1.000  C
  H218     1.0000 0.97560  0.22920  0.66870  Biso   1.000  H
  C194     1.0000 0.90760  0.20330  0.73166  Biso   1.000  C
  H219     1.0000 0.89770  0.18040  0.72120  Biso   1.000  H
  C195     1.0000 0.83510  0.21990  0.70730  Biso   1.000  C
  H220     1.0000 0.84210  0.21990  0.67680  Biso   1.000  H
  H221     1.0000 0.83870  0.24270  0.71730  Biso   1.000  H
  C196     1.0000 0.73720  0.20590  0.75730  Biso   1.000  C
  H222     1.0000 0.67790  0.19590  0.76130  Biso   1.000  H
  H223     1.0000 0.73750  0.22870  0.76730  Biso   1.000  H
  C197     1.0000 0.82050  0.18790  0.78720  Biso   1.000  C
  H224     1.0000 0.81720  0.19060  0.81800  Biso   1.000  H
  H225     1.0000 0.81760  0.16440  0.78030  Biso   1.000  H
  C198     1.0000 0.90590  0.20150  0.77993  Biso   1.000  C
  H226     1.0000 0.91010  0.22420  0.79130  Biso   1.000  H
  C199     1.0000 0.99520  0.16543  0.83270  Biso   1.000  C
  H227     1.0000 0.93710  0.15960  0.83950  Biso   1.000  H
  C200     1.0000 0.08750  0.15065  0.86082  Biso   1.000  C
  C201     1.0000 0.17750  0.16419  0.86187  Biso   1.000  C
  C202     1.0000 0.25580  0.15467  0.89470  Biso   1.000  C
  C203     1.0000 0.24410  0.13160  0.92650  Biso   1.000  C
  H228     1.0000 0.29650  0.12530  0.94850  Biso   1.000  H
  C204     1.0000 0.15410  0.11809  0.92540  Biso   1.000  C
  C205     1.0000 0.07570  0.12760  0.89261  Biso   1.000  C
  H229     1.0000 0.01550  0.11850  0.89190  Biso   1.000  H
  C206     1.0000 0.35620  0.17098  0.89913  Biso   1.000  C
  C207     1.0000 0.34030  0.20910  0.90010  Biso   1.000  C
  H230     1.0000 0.40090  0.22030  0.90340  Biso   1.000  H
  H231     1.0000 0.31200  0.21470  0.92470  Biso   1.000  H
  H232     1.0000 0.29820  0.21600  0.87300  Biso   1.000  H
  C208     1.0000 0.40230  0.16130  0.86100  Biso   1.000  C
  H233     1.0000 0.46380  0.17190  0.86470  Biso   1.000  H
  H234     1.0000 0.36180  0.16820  0.83350  Biso   1.000  H
  H235     1.0000 0.41050  0.13770  0.86080  Biso   1.000  H
  C209     1.0000 0.42630  0.16160  0.94200  Biso   1.000  C
  H236     1.0000 0.48610  0.17290  0.94350  Biso   1.000  H
  H237     1.0000 0.43680  0.13810  0.94260  Biso   1.000  H
  H238     1.0000 0.40000  0.16790  0.96680  Biso   1.000  H
  C210     1.0000 0.09250  0.00410  0.93142  Biso   1.000  C
  C211     1.0000 0.14400  0.09168  0.95960  Biso   1.000  C
  C212     1.0000 0.05300  0.99237  0.88252  Biso   1.000  C
  C213     1.0000 0.95490  0.98734  0.86744  Biso   1.000  C
  H239     1.0000 0.91320  0.99140  0.88610  Biso   1.000  H
  C214     1.0000 0.91920  0.97620  0.82447  Biso   1.000  C
  C215     1.0000 0.98150  0.97010  0.79658  Biso   1.000  C
  C216     1.0000 0.07960  0.97510  0.81166  Biso   1.000  C
  C217     1.0000 0.11530  0.98627  0.85463  Biso   1.000  C
  H240     1.0000 0.18090  0.98960  0.86470  Biso   1.000  H
  C218     1.0000 0.25900  0.97640  0.80520  Biso   1.000  C
  H241     1.0000 0.30020  0.97020  0.78580  Biso   1.000  H
  H242     1.0000 0.27900  0.96520  0.83300  Biso   1.000  H
  H243     1.0000 0.26250  0.99990  0.81000  Biso   1.000  H
  C219     1.0000 0.15430  0.96654  0.78380  Biso   1.000  C
  C220     1.0000 0.15060  0.92897  0.77460  Biso   1.000  C
  H244     1.0000 0.08610  0.92270  0.76070  Biso   1.000  H
  H245     1.0000 0.17050  0.91720  0.80200  Biso   1.000  H
  H246     1.0000 0.19280  0.92370  0.75530  Biso   1.000  H
  C221     1.0000 0.13490  0.98540  0.73980  Biso   1.000  C
  H247     1.0000 0.07090  0.98080  0.72360  Biso   1.000  H
  H248     1.0000 0.18010  0.97850  0.72270  Biso   1.000  H
  H249     1.0000 0.14170  0.00880  0.74550  Biso   1.000  H
  C222     1.0000 0.81510  0.97210  0.81150  Biso   1.000  C
  H250     1.0000 0.77760  0.97320  0.83250  Biso   1.000  H
  C223     1.0000 0.61510  0.97460  0.79660  Biso   1.000  C
  H251     1.0000 0.62650  0.95890  0.82080  Biso   1.000  H
  H252     1.0000 0.63240  0.99670  0.80820  Biso   1.000  H
  C224     1.0000 0.47370  0.94300  0.74380  Biso   1.000  C
  H253     1.0000 0.40560  0.94580  0.73140  Biso   1.000  H
  H254     1.0000 0.48060  0.92420  0.76390  Biso   1.000  H
  C225     1.0000 0.52220  0.93400  0.70580  Biso   1.000  C
  H255     1.0000 0.50750  0.95000  0.68190  Biso   1.000  H
  H256     1.0000 0.50360  0.91200  0.69420  Biso   1.000  H
  C226     1.0000 0.67530  0.91450  0.66930  Biso   1.000  C
  H257     1.0000 0.60980  0.91050  0.65980  Biso   1.000  H
  C227     1.0000 0.67300  0.96490  0.76010  Biso   1.000  C
  H258     1.0000 0.65710  0.98320  0.73900  Biso   1.000  H
  C228     1.0000 0.50950  0.97350  0.77050  Biso   1.000  C
  H259     1.0000 0.46900  0.97680  0.79160  Biso   1.000  H
  H260     1.0000 0.49930  0.99220  0.75050  Biso   1.000  H
  C229     1.0000 0.63850  0.93530  0.73160  Biso   1.000  C
  H261     1.0000 0.64680  0.91660  0.75230  Biso   1.000  H
  C230     1.0000 0.74660  0.90237  0.64097  Biso   1.000  C
  C231     1.0000 0.83820  0.91538  0.64471  Biso   1.000  C
  C232     1.0000 0.89320  0.90607  0.61480  Biso   1.000  C
  C233     1.0000 0.85660  0.88370  0.58110  Biso   1.000  C
  H262     1.0000 0.89350  0.87750  0.56110  Biso   1.000  H
  C234     1.0000 0.76500  0.87073  0.57736  Biso   1.000  C
  C235     1.0000 0.71000  0.88004  0.60729  Biso   1.000  C
  H263     1.0000 0.64870  0.87130  0.60480  Biso   1.000  H
  C236     1.0000 0.06450  0.91650  0.65240  Biso   1.000  C
  H264     1.0000 0.12610  0.92360  0.64810  Biso   1.000  H
  H265     1.0000 0.06640  0.89320  0.65870  Biso   1.000  H
  H266     1.0000 0.04910  0.92850  0.67670  Biso   1.000  H
  C237     1.0000 0.98760  0.92343  0.61010  Biso   1.000  C
  C238     1.0000 0.01630  0.91850  0.56520  Biso   1.000  C
  H267     1.0000 0.07600  0.92960  0.56570  Biso   1.000  H
  H268     1.0000 0.96730  0.92760  0.54190  Biso   1.000  H
  H269     1.0000 0.02330  0.89530  0.56000  Biso   1.000  H
  C239     1.0000 0.98130  0.96136  0.61460  Biso   1.000  C
  H270     1.0000 0.04140  0.97120  0.61250  Biso   1.000  H
  H271     1.0000 0.96750  0.96670  0.64280  Biso   1.000  H
  H272     1.0000 0.93110  0.96980  0.59140  Biso   1.000  H
  C240     1.0000 0.72650  0.84250  0.54880  Biso   1.000  C
  Co9      1.0000 0.39944  0.60493  0.72266  Biso   1.000  Co
  Co10     1.0000 0.17144  0.35353  0.77245  Biso   1.000  Co
  Co11     1.0000 0.39776  0.69814  0.22249  Biso   1.000  Co
  Co12     1.0000 0.66976  0.44819  0.27076  Biso   1.000  Co
  Cd5      1.0000 0.24711  0.52549  0.99341  Biso   1.000  Cd
  Cd6      1.0000 0.75190  0.27534  0.49761  Biso   1.000  Cd
  N17      1.0000 0.50140  0.62070  0.70390  Biso   1.000  N
  N18      1.0000 0.48570  0.58820  0.76980  Biso   1.000  N
  N19      1.0000 0.29230  0.36517  0.79720  Biso   1.000  N
  N20      1.0000 0.22840  0.34010  0.72780  Biso   1.000  N
  N21      1.0000 0.49350  0.71150  0.27280  Biso   1.000  N
  N22      1.0000 0.50650  0.68452  0.19840  Biso   1.000  N
  N23      1.0000 0.72120  0.46720  0.22690  Biso   1.000  N
  N24      1.0000 0.79410  0.42900  0.29620  Biso   1.000  N
  O49      1.0000 0.28250  0.72272  0.51977  Biso   1.000  O
  O50      1.0000 0.44000  0.71915  0.54340  Biso   1.000  O
  O51      1.0000 0.30630  0.61872  0.67230  Biso   1.000  O
  O52      1.0000 0.29390  0.59286  0.74704  Biso   1.000  O
  O53      1.0000 0.35890  0.54382  0.94750  Biso   1.000  O
  O54      1.0000 0.20380  0.54330  0.92650  Biso   1.000  O
  O55      1.0000 0.34920  0.47050  0.95640  Biso   1.000  O
  O56      1.0000 0.18560  0.47500  0.96460  Biso   1.000  O
  O57      1.0000 0.11960  0.36715  0.81793  Biso   1.000  O
  O58      1.0000 0.04190  0.34092  0.74106  Biso   1.000  O
  O59      1.0000 0.81270  0.28650  0.56080  Biso   1.000  O
  O60      1.0000 0.95740  0.29590  0.54290  Biso   1.000  O
  O61      1.0000 0.19800  0.75690  0.42220  Biso   1.000  O
  O62      1.0000 0.35340  0.76030  0.44390  Biso   1.000  O
  O63      1.0000 0.30010  0.70990  0.24670  Biso   1.000  O
  O64      1.0000 0.31420  0.68516  0.17300  Biso   1.000  O
  O65      1.0000 0.44410  0.58070  0.04430  Biso   1.000  O
  O66      1.0000 0.27780  0.57910  0.02110  Biso   1.000  O
  O67      1.0000 0.45780  0.50275  0.04066  Biso   1.000  O
  O68      1.0000 0.32280  0.50630  0.06160  Biso   1.000  O
  O69      1.0000 0.55210  0.45789  0.24399  Biso   1.000  O
  O70      1.0000 0.61570  0.43440  0.32120  Biso   1.000  O
  O71      1.0000 0.71660  0.33090  0.47130  Biso   1.000  O
  O72      1.0000 0.86340  0.33930  0.46150  Biso   1.000  O
  C241     1.0000 0.35840  0.71137  0.54550  Biso   1.000  C
  C242     1.0000 0.34680  0.68073  0.57432  Biso   1.000  C
  C243     1.0000 0.25660  0.66789  0.57458  Biso   1.000  C
  H273     1.0000 0.20320  0.67510  0.55380  Biso   1.000  H
  C244     1.0000 0.24620  0.64427  0.60590  Biso   1.000  C
  C245     1.0000 0.32600  0.63351  0.63700  Biso   1.000  C
  C246     1.0000 0.41630  0.64635  0.63672  Biso   1.000  C
  C247     1.0000 0.42670  0.66996  0.60539  Biso   1.000  C
  H274     1.0000 0.48710  0.67860  0.60520  Biso   1.000  H
  C248     1.0000 0.15810  0.58746  0.59820  Biso   1.000  C
  H275     1.0000 0.19070  0.58090  0.57560  Biso   1.000  H
  H276     1.0000 0.09500  0.57780  0.59230  Biso   1.000  H
  H277     1.0000 0.19370  0.57990  0.62650  Biso   1.000  H
  C249     1.0000 0.14970  0.62572  0.59880  Biso   1.000  C
  C250     1.0000 0.10160  0.63420  0.63760  Biso   1.000  C
  H278     1.0000 0.09600  0.65780  0.63990  Biso   1.000  H
  H279     1.0000 0.14000  0.62570  0.66480  Biso   1.000  H
  H280     1.0000 0.03880  0.62440  0.63240  Biso   1.000  H
  C251     1.0000 0.07390  0.63550  0.55700  Biso   1.000  C
  H281     1.0000 0.06790  0.65920  0.55550  Biso   1.000  H
  H282     1.0000 0.01310  0.62580  0.55830  Biso   1.000  H
  H283     1.0000 0.09370  0.62750  0.53110  Biso   1.000  H
  C252     1.0000 0.49350  0.63680  0.66960  Biso   1.000  C
  H284     1.0000 0.55210  0.64410  0.66470  Biso   1.000  H
  C253     1.0000 0.59260  0.61230  0.73260  Biso   1.000  C
  H285     1.0000 0.59560  0.62920  0.75560  Biso   1.000  H
  C254     1.0000 0.68630  0.61920  0.71890  Biso   1.000  C
  H286     1.0000 0.68830  0.64210  0.70970  Biso   1.000  H
  H287     1.0000 0.69190  0.60510  0.69420  Biso   1.000  H
  C255     1.0000 0.77180  0.61210  0.75970  Biso   1.000  C
  H288     1.0000 0.83230  0.61240  0.75020  Biso   1.000  H
  H289     1.0000 0.77400  0.62910  0.78200  Biso   1.000  H
  C256     1.0000 0.75680  0.57880  0.77860  Biso   1.000  C
  H290     1.0000 0.81390  0.57270  0.80050  Biso   1.000  H
  H291     1.0000 0.74750  0.56240  0.75510  Biso   1.000  H
  C257     1.0000 0.66970  0.57840  0.80030  Biso   1.000  C
  H292     1.0000 0.67160  0.59690  0.82060  Biso   1.000  H
  H293     1.0000 0.66600  0.55780  0.81600  Biso   1.000  H
  C258     1.0000 0.58340  0.58190  0.75880  Biso   1.000  C
  H294     1.0000 0.58010  0.56230  0.74000  Biso   1.000  H
  C259     1.0000 0.47290  0.57650  0.80730  Biso   1.000  C
  H295     1.0000 0.52600  0.56930  0.82830  Biso   1.000  H
  C260     1.0000 0.37830  0.57445  0.81751  Biso   1.000  C
  C261     1.0000 0.29390  0.58132  0.78676  Biso   1.000  C
  C262     1.0000 0.20580  0.57780  0.79845  Biso   1.000  C
  C263     1.0000 0.20200  0.56740  0.84090  Biso   1.000  C
  H296     1.0000 0.14300  0.56500  0.84870  Biso   1.000  H
  C264     1.0000 0.28650  0.56050  0.87163  Biso   1.000  C
  C265     1.0000 0.37460  0.56405  0.85995  Biso   1.000  C
  H297     1.0000 0.43110  0.55950  0.88050  Biso   1.000  H
  C266     1.0000 0.11080  0.58437  0.76396  Biso   1.000  C
  C267     1.0000 0.10520  0.56540  0.72020  Biso   1.000  C
  H298     1.0000 0.04490  0.57000  0.70030  Biso   1.000  H
  H299     1.0000 0.11030  0.54200  0.72620  Biso   1.000  H
  H300     1.0000 0.15680  0.57230  0.70690  Biso   1.000  H
  C268     1.0000 0.02490  0.57610  0.78480  Biso   1.000  C
  H301     1.0000 0.96620  0.57910  0.76310  Biso   1.000  H
  H302     1.0000 0.02540  0.59050  0.80950  Biso   1.000  H
  H303     1.0000 0.02960  0.55350  0.79470  Biso   1.000  H
  C269     1.0000 0.09790  0.62118  0.75010  Biso   1.000  C
  H304     1.0000 0.03940  0.62380  0.72810  Biso   1.000  H
  H305     1.0000 0.15120  0.62820  0.73800  Biso   1.000  H
  H306     1.0000 0.09510  0.63450  0.77550  Biso   1.000  H
  C270     1.0000 0.28130  0.55060  0.91700  Biso   1.000  C
  C271     1.0000 0.26530  0.45740  0.95410  Biso   1.000  C
  C272     1.0000 0.22600  0.43121  0.91759  Biso   1.000  C
  C273     1.0000 0.28360  0.41974  0.88990  Biso   1.000  C
  H307     1.0000 0.34600  0.42760  0.89310  Biso   1.000  H
  C274     1.0000 0.24790  0.39650  0.85730  Biso   1.000  C
  C275     1.0000 0.15460  0.38470  0.85240  Biso   1.000  C
  C276     1.0000 0.09710  0.39620  0.88010  Biso   1.000  C
  C277     1.0000 0.13280  0.41943  0.91270  Biso   1.000  C
  H308     1.0000 0.09420  0.42710  0.93130  Biso   1.000  H
  C278     1.0000 0.00730  0.37674  0.88510  Biso   1.000  C
  C279     1.0000 0.93320  0.38900  0.84420  Biso   1.000  C
  H309     1.0000 0.95460  0.38340  0.81780  Biso   1.000  H
  H310     1.0000 0.92650  0.41260  0.84590  Biso   1.000  H
  H311     1.0000 0.87230  0.37870  0.84350  Biso   1.000  H
  C280     1.0000 0.02080  0.33890  0.88910  Biso   1.000  C
  H312     1.0000 0.04800  0.33100  0.86520  Biso   1.000  H
  H313     1.0000 0.95960  0.32850  0.88760  Biso   1.000  H
  H314     1.0000 0.06300  0.33370  0.91690  Biso   1.000  H
  C281     1.0000 0.96380  0.38690  0.92390  Biso   1.000  C
  H315     1.0000 0.95060  0.41020  0.92230  Biso   1.000  H
  H316     1.0000 0.00820  0.38190  0.95120  Biso   1.000  H
  H317     1.0000 0.90510  0.37490  0.92260  Biso   1.000  H
  C282     1.0000 0.31270  0.38620  0.83260  Biso   1.000  C
  H318     1.0000 0.37520  0.39410  0.84090  Biso   1.000  H
  C283     1.0000 0.37020  0.35120  0.77770  Biso   1.000  C
  H319     1.0000 0.37530  0.32830  0.78810  Biso   1.000  H
  C284     1.0000 0.46270  0.36200  0.78740  Biso   1.000  C
  H320     1.0000 0.48800  0.35970  0.81900  Biso   1.000  H
  H321     1.0000 0.46360  0.38540  0.78010  Biso   1.000  H
  C285     1.0000 0.52900  0.34340  0.76280  Biso   1.000  C
  H322     1.0000 0.53270  0.32020  0.77130  Biso   1.000  H
  H323     1.0000 0.59320  0.35270  0.77060  Biso   1.000  H
  C286     1.0000 0.48940  0.34640  0.71250  Biso   1.000  C
  H324     1.0000 0.49310  0.36920  0.70290  Biso   1.000  H
  H325     1.0000 0.52530  0.33240  0.69640  Biso   1.000  H
  C287     1.0000 0.38530  0.33510  0.70500  Biso   1.000  C
  H326     1.0000 0.35550  0.33910  0.67410  Biso   1.000  H
  H327     1.0000 0.38550  0.31130  0.70950  Biso   1.000  H
  C288     1.0000 0.33160  0.34780  0.72830  Biso   1.000  C
  H328     1.0000 0.32790  0.37100  0.71850  Biso   1.000  H
  C289     1.0000 0.17460  0.32680  0.68730  Biso   1.000  C
  H329     1.0000 0.21020  0.31960  0.66730  Biso   1.000  H
  C290     1.0000 0.07610  0.32328  0.67399  Biso   1.000  C
  C291     1.0000 0.01350  0.32897  0.70186  Biso   1.000  C
  C292     1.0000 0.91550  0.32400  0.68652  Biso   1.000  C
  C293     1.0000 0.88010  0.31330  0.64330  Biso   1.000  C
  H330     1.0000 0.81450  0.31000  0.63300  Biso   1.000  H
  C294     1.0000 0.94270  0.30760  0.61543  Biso   1.000  C
  C295     1.0000 0.04080  0.31261  0.63077  Biso   1.000  C
  H331     1.0000 0.08270  0.30880  0.61210  Biso   1.000  H
  C296     1.0000 0.84670  0.32824  0.71890  Biso   1.000  C
  C297     1.0000 0.83870  0.36390  0.73530  Biso   1.000  C
  H332     1.0000 0.79400  0.36450  0.75440  Biso   1.000  H
  H333     1.0000 0.81670  0.37820  0.71030  Biso   1.000  H
  H334     1.0000 0.90060  0.37120  0.75130  Biso   1.000  H
  C298     1.0000 0.88440  0.31170  0.76480  Biso   1.000  C
  H335     1.0000 0.83930  0.31540  0.78320  Biso   1.000  H
  H336     1.0000 0.94520  0.32130  0.77860  Biso   1.000  H
  H337     1.0000 0.89210  0.28840  0.76090  Biso   1.000  H
  C299     1.0000 0.74830  0.31200  0.69930  Biso   1.000  C
  H338     1.0000 0.70590  0.31550  0.71910  Biso   1.000  H
  H339     1.0000 0.75680  0.28870  0.69560  Biso   1.000  H
  H340     1.0000 0.72100  0.32190  0.67110  Biso   1.000  H
  C300     1.0000 0.90760  0.29940  0.57260  Biso   1.000  C
  C301     1.0000 0.28000  0.75510  0.41684  Biso   1.000  C
  C302     1.0000 0.29050  0.74415  0.37177  Biso   1.000  C
  C303     1.0000 0.20530  0.73879  0.34082  Biso   1.000  C
  H341     1.0000 0.14670  0.74270  0.34840  Biso   1.000  H
  C304     1.0000 0.20780  0.72760  0.29859  Biso   1.000  C
  C305     1.0000 0.29550  0.72170  0.28731  Biso   1.000  C
  C306     1.0000 0.38060  0.72710  0.31826  Biso   1.000  C
  C307     1.0000 0.37820  0.73831  0.36049  Biso   1.000  C
  H342     1.0000 0.43510  0.74190  0.38120  Biso   1.000  H
  C308     1.0000 0.11210  0.72483  0.26500  Biso   1.000  C
  C309     1.0000 0.02290  0.73780  0.28020  Biso   1.000  C
  H343     1.0000 0.02060  0.72820  0.30840  Biso   1.000  H
  H344     1.0000 0.96600  0.73180  0.25880  Biso   1.000  H
  H345     1.0000 0.02650  0.76150  0.28300  Biso   1.000  H
  C310     1.0000 0.09790  0.68697  0.25800  Biso   1.000  C
  H346     1.0000 0.09990  0.67640  0.28600  Biso   1.000  H
  H347     1.0000 0.14820  0.67820  0.24520  Biso   1.000  H
  H348     1.0000 0.03690  0.68280  0.23850  Biso   1.000  H
  C311     1.0000 0.76430  0.70620  0.29140  Biso   1.000  C
  H349     1.0000 0.81490  0.72050  0.30740  Biso   1.000  H
  H350     1.0000 0.77310  0.68410  0.30380  Biso   1.000  H
  C312     1.0000 0.10600  0.74210  0.21930  Biso   1.000  C
  H351     1.0000 0.15980  0.73540  0.20730  Biso   1.000  H
  H352     1.0000 0.10710  0.76570  0.22310  Biso   1.000  H
  H353     1.0000 0.04750  0.73570  0.19920  Biso   1.000  H
  C313     1.0000 0.47260  0.72300  0.30890  Biso   1.000  C
  H354     1.0000 0.52440  0.72920  0.33130  Biso   1.000  H
  C314     1.0000 0.59240  0.70330  0.26834  Biso   1.000  C
  H355     1.0000 0.60230  0.68040  0.27880  Biso   1.000  H
  C315     1.0000 0.66490  0.71990  0.29270  Biso   1.000  C
  H356     1.0000 0.65790  0.71990  0.32320  Biso   1.000  H
  H357     1.0000 0.66130  0.74270  0.28270  Biso   1.000  H
  C316     1.0000 0.76280  0.70590  0.24270  Biso   1.000  C
  H358     1.0000 0.82210  0.69590  0.23870  Biso   1.000  H
  H359     1.0000 0.76250  0.72870  0.23270  Biso   1.000  H
  C317     1.0000 0.67950  0.68790  0.21280  Biso   1.000  C
  H360     1.0000 0.68280  0.69060  0.18200  Biso   1.000  H
  H361     1.0000 0.68240  0.66440  0.21970  Biso   1.000  H
  C318     1.0000 0.59410  0.70150  0.22007  Biso   1.000  C
  H362     1.0000 0.58990  0.72420  0.20870  Biso   1.000  H
  C319     1.0000 0.50480  0.66543  0.16730  Biso   1.000  C
  H363     1.0000 0.56290  0.65960  0.16050  Biso   1.000  H
  C320     1.0000 0.41250  0.65065  0.13918  Biso   1.000  C
  C321     1.0000 0.32250  0.66419  0.13813  Biso   1.000  C
  C322     1.0000 0.24420  0.65467  0.10530  Biso   1.000  C
  C323     1.0000 0.25590  0.63160  0.07350  Biso   1.000  C
  H364     1.0000 0.20350  0.62530  0.05150  Biso   1.000  H
  C324     1.0000 0.34590  0.61809  0.07460  Biso   1.000  C
  C325     1.0000 0.42430  0.62760  0.10739  Biso   1.000  C
  H365     1.0000 0.48450  0.61850  0.10810  Biso   1.000  H
  C326     1.0000 0.14380  0.67098  0.10087  Biso   1.000  C
  C327     1.0000 0.15970  0.70910  0.09990  Biso   1.000  C
  H366     1.0000 0.09910  0.72030  0.09660  Biso   1.000  H
  H367     1.0000 0.18800  0.71470  0.07530  Biso   1.000  H
  H368     1.0000 0.20180  0.71600  0.12700  Biso   1.000  H
  C328     1.0000 0.09770  0.66130  0.13900  Biso   1.000  C
  H369     1.0000 0.03620  0.67190  0.13530  Biso   1.000  H
  H370     1.0000 0.13820  0.66820  0.16650  Biso   1.000  H
  H371     1.0000 0.08950  0.63770  0.13920  Biso   1.000  H
  C329     1.0000 0.07370  0.66160  0.05800  Biso   1.000  C
  H372     1.0000 0.01390  0.67290  0.05650  Biso   1.000  H
  H373     1.0000 0.06320  0.63810  0.05740  Biso   1.000  H
  H374     1.0000 0.10000  0.66790  0.03320  Biso   1.000  H
  C330     1.0000 0.40750  0.50410  0.06858  Biso   1.000  C
  C331     1.0000 0.35600  0.59168  0.04040  Biso   1.000  C
  C332     1.0000 0.44700  0.49237  0.11748  Biso   1.000  C
  C333     1.0000 0.54510  0.48734  0.13256  Biso   1.000  C
  H375     1.0000 0.58680  0.49140  0.11390  Biso   1.000  H
  C334     1.0000 0.58080  0.47620  0.17553  Biso   1.000  C
  C335     1.0000 0.51850  0.47010  0.20342  Biso   1.000  C
  C336     1.0000 0.42040  0.47510  0.18834  Biso   1.000  C
  C337     1.0000 0.38470  0.48627  0.14537  Biso   1.000  C
  H376     1.0000 0.31910  0.48960  0.13530  Biso   1.000  H
  C338     1.0000 0.24100  0.47640  0.19480  Biso   1.000  C
  H377     1.0000 0.19980  0.47020  0.21420  Biso   1.000  H
  H378     1.0000 0.22100  0.46520  0.16700  Biso   1.000  H
  H379     1.0000 0.23750  0.49990  0.19000  Biso   1.000  H
  C339     1.0000 0.34570  0.46654  0.21620  Biso   1.000  C
  C340     1.0000 0.34940  0.42897  0.22540  Biso   1.000  C
  H380     1.0000 0.41390  0.42270  0.23930  Biso   1.000  H
  H381     1.0000 0.32950  0.41720  0.19800  Biso   1.000  H
  H382     1.0000 0.30720  0.42370  0.24470  Biso   1.000  H
  C341     1.0000 0.36510  0.48540  0.26020  Biso   1.000  C
  H383     1.0000 0.42910  0.48080  0.27640  Biso   1.000  H
  H384     1.0000 0.31990  0.47850  0.27730  Biso   1.000  H
  H385     1.0000 0.35830  0.50880  0.25450  Biso   1.000  H
  C342     1.0000 0.68490  0.47210  0.18850  Biso   1.000  C
  H386     1.0000 0.72240  0.47320  0.16750  Biso   1.000  H
  C343     1.0000 0.88490  0.47460  0.20340  Biso   1.000  C
  H387     1.0000 0.87350  0.45890  0.17920  Biso   1.000  H
  H388     1.0000 0.86760  0.49670  0.19180  Biso   1.000  H
  C344     1.0000 0.02630  0.44300  0.25620  Biso   1.000  C
  H389     1.0000 0.09440  0.44580  0.26860  Biso   1.000  H
  H390     1.0000 0.01940  0.42420  0.23610  Biso   1.000  H
  C345     1.0000 0.97780  0.43400  0.29420  Biso   1.000  C
  H391     1.0000 0.99250  0.45000  0.31810  Biso   1.000  H
  H392     1.0000 0.99640  0.41200  0.30580  Biso   1.000  H
  C346     1.0000 0.82470  0.41450  0.33070  Biso   1.000  C
  H393     1.0000 0.89020  0.41050  0.34020  Biso   1.000  H
  C347     1.0000 0.82700  0.46490  0.23990  Biso   1.000  C
  H394     1.0000 0.84290  0.48320  0.26100  Biso   1.000  H
  C348     1.0000 0.99050  0.47350  0.22950  Biso   1.000  C
  H395     1.0000 0.03100  0.47680  0.20840  Biso   1.000  H
  H396     1.0000 0.00070  0.49220  0.24950  Biso   1.000  H
  C349     1.0000 0.86150  0.43530  0.26840  Biso   1.000  C
  H397     1.0000 0.85320  0.41660  0.24770  Biso   1.000  H
  C350     1.0000 0.75340  0.40237  0.35903  Biso   1.000  C
  C351     1.0000 0.66180  0.41538  0.35529  Biso   1.000  C
  C352     1.0000 0.60680  0.40607  0.38520  Biso   1.000  C
  C353     1.0000 0.64340  0.38370  0.41890  Biso   1.000  C
  H398     1.0000 0.60650  0.37750  0.43890  Biso   1.000  H
  C354     1.0000 0.73500  0.37073  0.42264  Biso   1.000  C
  C355     1.0000 0.79000  0.38004  0.39271  Biso   1.000  C
  H399     1.0000 0.85130  0.37130  0.39520  Biso   1.000  H
  C356     1.0000 0.43550  0.41650  0.34760  Biso   1.000  C
  H400     1.0000 0.37390  0.42360  0.35190  Biso   1.000  H
  H401     1.0000 0.43360  0.39320  0.34130  Biso   1.000  H
  H402     1.0000 0.45090  0.42850  0.32330  Biso   1.000  H
  C357     1.0000 0.51240  0.42343  0.38990  Biso   1.000  C
  C358     1.0000 0.48370  0.41850  0.43480  Biso   1.000  C
  H403     1.0000 0.42400  0.42960  0.43430  Biso   1.000  H
  H404     1.0000 0.53270  0.42760  0.45810  Biso   1.000  H
  H405     1.0000 0.47670  0.39530  0.44000  Biso   1.000  H
  C359     1.0000 0.51870  0.46136  0.38540  Biso   1.000  C
  H406     1.0000 0.45860  0.47120  0.38750  Biso   1.000  H
  H407     1.0000 0.53250  0.46670  0.35720  Biso   1.000  H
  H408     1.0000 0.56890  0.46980  0.40860  Biso   1.000  H
  C360     1.0000 0.77350  0.34250  0.45120  Biso   1.000  C
  Co13     1.0000 0.89944  0.10493  0.72266  Biso   1.000  Co
  Co14     1.0000 0.67144  0.85353  0.77245  Biso   1.000  Co
  Co15     1.0000 0.89776  0.19814  0.22249  Biso   1.000  Co
  Co16     1.0000 0.16976  0.94819  0.27076  Biso   1.000  Co
  Cd7      1.0000 0.74711  0.02549  0.99341  Biso   1.000  Cd
  Cd8      1.0000 0.25190  0.77534  0.49761  Biso   1.000  Cd
  N25      1.0000 0.00140  0.12070  0.70390  Biso   1.000  N
  N26      1.0000 0.98570  0.08820  0.76980  Biso   1.000  N
  N27      1.0000 0.79230  0.86517  0.79720  Biso   1.000  N
  N28      1.0000 0.72840  0.84010  0.72780  Biso   1.000  N
  N29      1.0000 0.99350  0.21150  0.27280  Biso   1.000  N
  N30      1.0000 0.00650  0.18452  0.19840  Biso   1.000  N
  N31      1.0000 0.22120  0.96720  0.22690  Biso   1.000  N
  N32      1.0000 0.29410  0.92900  0.29620  Biso   1.000  N
  O73      1.0000 0.78250  0.22272  0.51977  Biso   1.000  O
  O74      1.0000 0.94000  0.21915  0.54340  Biso   1.000  O
  O75      1.0000 0.80630  0.11872  0.67230  Biso   1.000  O
  O76      1.0000 0.79390  0.09286  0.74704  Biso   1.000  O
  O77      1.0000 0.85890  0.04382  0.94750  Biso   1.000  O
  O78      1.0000 0.70380  0.04330  0.92650  Biso   1.000  O
  O79      1.0000 0.84920  0.97050  0.95640  Biso   1.000  O
  O80      1.0000 0.68560  0.97500  0.96460  Biso   1.000  O
  O81      1.0000 0.61960  0.86715  0.81793  Biso   1.000  O
  O82      1.0000 0.54190  0.84092  0.74106  Biso   1.000  O
  O83      1.0000 0.31270  0.78650  0.56080  Biso   1.000  O
  O84      1.0000 0.45740  0.79590  0.54290  Biso   1.000  O
  O85      1.0000 0.69800  0.25690  0.42220  Biso   1.000  O
  O86      1.0000 0.85340  0.26030  0.44390  Biso   1.000  O
  O87      1.0000 0.80010  0.20990  0.24670  Biso   1.000  O
  O88      1.0000 0.81420  0.18516  0.17300  Biso   1.000  O
  O89      1.0000 0.94410  0.08070  0.04430  Biso   1.000  O
  O90      1.0000 0.77780  0.07910  0.02110  Biso   1.000  O
  O91      1.0000 0.95780  0.00275  0.04066  Biso   1.000  O
  O92      1.0000 0.82280  0.00630  0.06160  Biso   1.000  O
  O93      1.0000 0.05210  0.95789  0.24399  Biso   1.000  O
  O94      1.0000 0.11570  0.93440  0.32120  Biso   1.000  O
  O95      1.0000 0.21660  0.83090  0.47130  Biso   1.000  O
  O96      1.0000 0.36340  0.83930  0.46150  Biso   1.000  O
  C361     1.0000 0.85840  0.21137  0.54550  Biso   1.000  C
  C362     1.0000 0.84680  0.18073  0.57432  Biso   1.000  C
  C363     1.0000 0.75660  0.16789  0.57458  Biso   1.000  C
  H409     1.0000 0.70320  0.17510  0.55380  Biso   1.000  H
  C364     1.0000 0.74620  0.14427  0.60590  Biso   1.000  C
  C365     1.0000 0.82600  0.13351  0.63700  Biso   1.000  C
  C366     1.0000 0.91630  0.14635  0.63672  Biso   1.000  C
  C367     1.0000 0.92670  0.16996  0.60539  Biso   1.000  C
  H410     1.0000 0.98710  0.17860  0.60520  Biso   1.000  H
  C368     1.0000 0.65810  0.08746  0.59820  Biso   1.000  C
  H411     1.0000 0.69070  0.08090  0.57560  Biso   1.000  H
  H412     1.0000 0.59500  0.07780  0.59230  Biso   1.000  H
  H413     1.0000 0.69370  0.07990  0.62650  Biso   1.000  H
  C369     1.0000 0.64970  0.12572  0.59880  Biso   1.000  C
  C370     1.0000 0.60160  0.13420  0.63760  Biso   1.000  C
  H414     1.0000 0.59600  0.15780  0.63990  Biso   1.000  H
  H415     1.0000 0.64000  0.12570  0.66480  Biso   1.000  H
  H416     1.0000 0.53880  0.12440  0.63240  Biso   1.000  H
  C371     1.0000 0.57390  0.13550  0.55700  Biso   1.000  C
  H417     1.0000 0.56790  0.15920  0.55550  Biso   1.000  H
  H418     1.0000 0.51310  0.12580  0.55830  Biso   1.000  H
  H419     1.0000 0.59370  0.12750  0.53110  Biso   1.000  H
  C372     1.0000 0.99350  0.13680  0.66960  Biso   1.000  C
  H420     1.0000 0.05210  0.14410  0.66470  Biso   1.000  H
  C373     1.0000 0.09260  0.11230  0.73260  Biso   1.000  C
  H421     1.0000 0.09560  0.12920  0.75560  Biso   1.000  H
  C374     1.0000 0.18630  0.11920  0.71890  Biso   1.000  C
  H422     1.0000 0.18830  0.14210  0.70970  Biso   1.000  H
  H423     1.0000 0.19190  0.10510  0.69420  Biso   1.000  H
  C375     1.0000 0.27180  0.11210  0.75970  Biso   1.000  C
  H424     1.0000 0.33230  0.11240  0.75020  Biso   1.000  H
  H425     1.0000 0.27400  0.12910  0.78200  Biso   1.000  H
  C376     1.0000 0.25680  0.07880  0.77860  Biso   1.000  C
  H426     1.0000 0.31390  0.07270  0.80050  Biso   1.000  H
  H427     1.0000 0.24750  0.06240  0.75510  Biso   1.000  H
  C377     1.0000 0.16970  0.07840  0.80030  Biso   1.000  C
  H428     1.0000 0.17160  0.09690  0.82060  Biso   1.000  H
  H429     1.0000 0.16600  0.05780  0.81600  Biso   1.000  H
  C378     1.0000 0.08340  0.08190  0.75880  Biso   1.000  C
  H430     1.0000 0.08010  0.06230  0.74000  Biso   1.000  H
  C379     1.0000 0.97290  0.07650  0.80730  Biso   1.000  C
  H431     1.0000 0.02600  0.06930  0.82830  Biso   1.000  H
  C380     1.0000 0.87830  0.07445  0.81751  Biso   1.000  C
  C381     1.0000 0.79390  0.08132  0.78676  Biso   1.000  C
  C382     1.0000 0.70580  0.07780  0.79845  Biso   1.000  C
  C383     1.0000 0.70200  0.06740  0.84090  Biso   1.000  C
  H432     1.0000 0.64300  0.06500  0.84870  Biso   1.000  H
  C384     1.0000 0.78650  0.06050  0.87163  Biso   1.000  C
  C385     1.0000 0.87460  0.06405  0.85995  Biso   1.000  C
  H433     1.0000 0.93110  0.05950  0.88050  Biso   1.000  H
  C386     1.0000 0.61080  0.08437  0.76396  Biso   1.000  C
  C387     1.0000 0.60520  0.06540  0.72020  Biso   1.000  C
  H434     1.0000 0.54490  0.07000  0.70030  Biso   1.000  H
  H435     1.0000 0.61030  0.04200  0.72620  Biso   1.000  H
  H436     1.0000 0.65680  0.07230  0.70690  Biso   1.000  H
  C388     1.0000 0.52490  0.07610  0.78480  Biso   1.000  C
  H437     1.0000 0.46620  0.07910  0.76310  Biso   1.000  H
  H438     1.0000 0.52540  0.09050  0.80950  Biso   1.000  H
  H439     1.0000 0.52960  0.05350  0.79470  Biso   1.000  H
  C389     1.0000 0.59790  0.12118  0.75010  Biso   1.000  C
  H440     1.0000 0.53940  0.12380  0.72810  Biso   1.000  H
  H441     1.0000 0.65120  0.12820  0.73800  Biso   1.000  H
  H442     1.0000 0.59510  0.13450  0.77550  Biso   1.000  H
  C390     1.0000 0.78130  0.05060  0.91700  Biso   1.000  C
  C391     1.0000 0.76530  0.95740  0.95410  Biso   1.000  C
  C392     1.0000 0.72600  0.93121  0.91759  Biso   1.000  C
  C393     1.0000 0.78360  0.91974  0.88990  Biso   1.000  C
  H443     1.0000 0.84600  0.92760  0.89310  Biso   1.000  H
  C394     1.0000 0.74790  0.89650  0.85730  Biso   1.000  C
  C395     1.0000 0.65460  0.88470  0.85240  Biso   1.000  C
  C396     1.0000 0.59710  0.89620  0.88010  Biso   1.000  C
  C397     1.0000 0.63280  0.91943  0.91270  Biso   1.000  C
  H444     1.0000 0.59420  0.92710  0.93130  Biso   1.000  H
  C398     1.0000 0.50730  0.87674  0.88510  Biso   1.000  C
  C399     1.0000 0.43320  0.88900  0.84420  Biso   1.000  C
  H445     1.0000 0.45460  0.88340  0.81780  Biso   1.000  H
  H446     1.0000 0.42650  0.91260  0.84590  Biso   1.000  H
  H447     1.0000 0.37230  0.87870  0.84350  Biso   1.000  H
  C400     1.0000 0.52080  0.83890  0.88910  Biso   1.000  C
  H448     1.0000 0.54800  0.83100  0.86520  Biso   1.000  H
  H449     1.0000 0.45960  0.82850  0.88760  Biso   1.000  H
  H450     1.0000 0.56300  0.83370  0.91690  Biso   1.000  H
  C401     1.0000 0.46380  0.88690  0.92390  Biso   1.000  C
  H451     1.0000 0.45060  0.91020  0.92230  Biso   1.000  H
  H452     1.0000 0.50820  0.88190  0.95120  Biso   1.000  H
  H453     1.0000 0.40510  0.87490  0.92260  Biso   1.000  H
  C402     1.0000 0.81270  0.88620  0.83260  Biso   1.000  C
  H454     1.0000 0.87520  0.89410  0.84090  Biso   1.000  H
  C403     1.0000 0.87020  0.85120  0.77770  Biso   1.000  C
  H455     1.0000 0.87530  0.82830  0.78810  Biso   1.000  H
  C404     1.0000 0.96270  0.86200  0.78740  Biso   1.000  C
  H456     1.0000 0.98800  0.85970  0.81900  Biso   1.000  H
  H457     1.0000 0.96360  0.88540  0.78010  Biso   1.000  H
  C405     1.0000 0.02900  0.84340  0.76280  Biso   1.000  C
  H458     1.0000 0.03270  0.82020  0.77130  Biso   1.000  H
  H459     1.0000 0.09320  0.85270  0.77060  Biso   1.000  H
  C406     1.0000 0.98940  0.84640  0.71250  Biso   1.000  C
  H460     1.0000 0.99310  0.86920  0.70290  Biso   1.000  H
  H461     1.0000 0.02530  0.83240  0.69640  Biso   1.000  H
  C407     1.0000 0.88530  0.83510  0.70500  Biso   1.000  C
  H462     1.0000 0.85550  0.83910  0.67410  Biso   1.000  H
  H463     1.0000 0.88550  0.81130  0.70950  Biso   1.000  H
  C408     1.0000 0.83160  0.84780  0.72830  Biso   1.000  C
  H464     1.0000 0.82790  0.87100  0.71850  Biso   1.000  H
  C409     1.0000 0.67460  0.82680  0.68730  Biso   1.000  C
  H465     1.0000 0.71020  0.81960  0.66730  Biso   1.000  H
  C410     1.0000 0.57610  0.82328  0.67399  Biso   1.000  C
  C411     1.0000 0.51350  0.82897  0.70186  Biso   1.000  C
  C412     1.0000 0.41550  0.82400  0.68652  Biso   1.000  C
  C413     1.0000 0.38010  0.81330  0.64330  Biso   1.000  C
  H466     1.0000 0.31450  0.81000  0.63300  Biso   1.000  H
  C414     1.0000 0.44270  0.80760  0.61543  Biso   1.000  C
  C415     1.0000 0.54080  0.81261  0.63077  Biso   1.000  C
  H467     1.0000 0.58270  0.80880  0.61210  Biso   1.000  H
  C416     1.0000 0.34670  0.82824  0.71890  Biso   1.000  C
  C417     1.0000 0.33870  0.86390  0.73530  Biso   1.000  C
  H468     1.0000 0.29400  0.86450  0.75440  Biso   1.000  H
  H469     1.0000 0.31670  0.87820  0.71030  Biso   1.000  H
  H470     1.0000 0.40060  0.87120  0.75130  Biso   1.000  H
  C418     1.0000 0.38440  0.81170  0.76480  Biso   1.000  C
  H471     1.0000 0.33930  0.81540  0.78320  Biso   1.000  H
  H472     1.0000 0.44520  0.82130  0.77860  Biso   1.000  H
  H473     1.0000 0.39210  0.78840  0.76090  Biso   1.000  H
  C419     1.0000 0.24830  0.81200  0.69930  Biso   1.000  C
  H474     1.0000 0.20590  0.81550  0.71910  Biso   1.000  H
  H475     1.0000 0.25680  0.78870  0.69560  Biso   1.000  H
  H476     1.0000 0.22100  0.82190  0.67110  Biso   1.000  H
  C420     1.0000 0.40760  0.79940  0.57260  Biso   1.000  C
  C421     1.0000 0.78000  0.25510  0.41684  Biso   1.000  C
  C422     1.0000 0.79050  0.24415  0.37177  Biso   1.000  C
  C423     1.0000 0.70530  0.23879  0.34082  Biso   1.000  C
  H477     1.0000 0.64670  0.24270  0.34840  Biso   1.000  H
  C424     1.0000 0.70780  0.22760  0.29859  Biso   1.000  C
  C425     1.0000 0.79550  0.22170  0.28731  Biso   1.000  C
  C426     1.0000 0.88060  0.22710  0.31826  Biso   1.000  C
  C427     1.0000 0.87820  0.23831  0.36049  Biso   1.000  C
  H478     1.0000 0.93510  0.24190  0.38120  Biso   1.000  H
  C428     1.0000 0.61210  0.22483  0.26500  Biso   1.000  C
  C429     1.0000 0.52290  0.23780  0.28020  Biso   1.000  C
  H479     1.0000 0.52060  0.22820  0.30840  Biso   1.000  H
  H480     1.0000 0.46600  0.23180  0.25880  Biso   1.000  H
  H481     1.0000 0.52650  0.26150  0.28300  Biso   1.000  H
  C430     1.0000 0.59790  0.18697  0.25800  Biso   1.000  C
  H482     1.0000 0.59990  0.17640  0.28600  Biso   1.000  H
  H483     1.0000 0.64820  0.17820  0.24520  Biso   1.000  H
  H484     1.0000 0.53690  0.18280  0.23850  Biso   1.000  H
  C431     1.0000 0.26430  0.20620  0.29140  Biso   1.000  C
  H485     1.0000 0.31490  0.22050  0.30740  Biso   1.000  H
  H486     1.0000 0.27310  0.18410  0.30380  Biso   1.000  H
  C432     1.0000 0.60600  0.24210  0.21930  Biso   1.000  C
  H487     1.0000 0.65980  0.23540  0.20730  Biso   1.000  H
  H488     1.0000 0.60710  0.26570  0.22310  Biso   1.000  H
  H489     1.0000 0.54750  0.23570  0.19920  Biso   1.000  H
  C433     1.0000 0.97260  0.22300  0.30890  Biso   1.000  C
  H490     1.0000 0.02440  0.22920  0.33130  Biso   1.000  H
  C434     1.0000 0.09240  0.20330  0.26834  Biso   1.000  C
  H491     1.0000 0.10230  0.18040  0.27880  Biso   1.000  H
  C435     1.0000 0.16490  0.21990  0.29270  Biso   1.000  C
  H492     1.0000 0.15790  0.21990  0.32320  Biso   1.000  H
  H493     1.0000 0.16130  0.24270  0.28270  Biso   1.000  H
  C436     1.0000 0.26280  0.20590  0.24270  Biso   1.000  C
  H494     1.0000 0.32210  0.19590  0.23870  Biso   1.000  H
  H495     1.0000 0.26250  0.22870  0.23270  Biso   1.000  H
  C437     1.0000 0.17950  0.18790  0.21280  Biso   1.000  C
  H496     1.0000 0.18280  0.19060  0.18200  Biso   1.000  H
  H497     1.0000 0.18240  0.16440  0.21970  Biso   1.000  H
  C438     1.0000 0.09410  0.20150  0.22007  Biso   1.000  C
  H498     1.0000 0.08990  0.22420  0.20870  Biso   1.000  H
  C439     1.0000 0.00480  0.16543  0.16730  Biso   1.000  C
  H499     1.0000 0.06290  0.15960  0.16050  Biso   1.000  H
  C440     1.0000 0.91250  0.15065  0.13918  Biso   1.000  C
  C441     1.0000 0.82250  0.16419  0.13813  Biso   1.000  C
  C442     1.0000 0.74420  0.15467  0.10530  Biso   1.000  C
  C443     1.0000 0.75590  0.13160  0.07350  Biso   1.000  C
  H500     1.0000 0.70350  0.12530  0.05150  Biso   1.000  H
  C444     1.0000 0.84590  0.11809  0.07460  Biso   1.000  C
  C445     1.0000 0.92430  0.12760  0.10739  Biso   1.000  C
  H501     1.0000 0.98450  0.11850  0.10810  Biso   1.000  H
  C446     1.0000 0.64380  0.17098  0.10087  Biso   1.000  C
  C447     1.0000 0.65970  0.20910  0.09990  Biso   1.000  C
  H502     1.0000 0.59910  0.22030  0.09660  Biso   1.000  H
  H503     1.0000 0.68800  0.21470  0.07530  Biso   1.000  H
  H504     1.0000 0.70180  0.21600  0.12700  Biso   1.000  H
  C448     1.0000 0.59770  0.16130  0.13900  Biso   1.000  C
  H505     1.0000 0.53620  0.17190  0.13530  Biso   1.000  H
  H506     1.0000 0.63820  0.16820  0.16650  Biso   1.000  H
  H507     1.0000 0.58950  0.13770  0.13920  Biso   1.000  H
  C449     1.0000 0.57370  0.16160  0.05800  Biso   1.000  C
  H508     1.0000 0.51390  0.17290  0.05650  Biso   1.000  H
  H509     1.0000 0.56320  0.13810  0.05740  Biso   1.000  H
  H510     1.0000 0.60000  0.16790  0.03320  Biso   1.000  H
  C450     1.0000 0.90750  0.00410  0.06858  Biso   1.000  C
  C451     1.0000 0.85600  0.09168  0.04040  Biso   1.000  C
  C452     1.0000 0.94700  0.99237  0.11748  Biso   1.000  C
  C453     1.0000 0.04510  0.98734  0.13256  Biso   1.000  C
  H511     1.0000 0.08680  0.99140  0.11390  Biso   1.000  H
  C454     1.0000 0.08080  0.97620  0.17553  Biso   1.000  C
  C455     1.0000 0.01850  0.97010  0.20342  Biso   1.000  C
  C456     1.0000 0.92040  0.97510  0.18834  Biso   1.000  C
  C457     1.0000 0.88470  0.98627  0.14537  Biso   1.000  C
  H512     1.0000 0.81910  0.98960  0.13530  Biso   1.000  H
  C458     1.0000 0.74100  0.97640  0.19480  Biso   1.000  C
  H513     1.0000 0.69980  0.97020  0.21420  Biso   1.000  H
  H514     1.0000 0.72100  0.96520  0.16700  Biso   1.000  H
  H515     1.0000 0.73750  0.99990  0.19000  Biso   1.000  H
  C459     1.0000 0.84570  0.96654  0.21620  Biso   1.000  C
  C460     1.0000 0.84940  0.92897  0.22540  Biso   1.000  C
  H516     1.0000 0.91390  0.92270  0.23930  Biso   1.000  H
  H517     1.0000 0.82950  0.91720  0.19800  Biso   1.000  H
  H518     1.0000 0.80720  0.92370  0.24470  Biso   1.000  H
  C461     1.0000 0.86510  0.98540  0.26020  Biso   1.000  C
  H519     1.0000 0.92910  0.98080  0.27640  Biso   1.000  H
  H520     1.0000 0.81990  0.97850  0.27730  Biso   1.000  H
  H521     1.0000 0.85830  0.00880  0.25450  Biso   1.000  H
  C462     1.0000 0.18490  0.97210  0.18850  Biso   1.000  C
  H522     1.0000 0.22240  0.97320  0.16750  Biso   1.000  H
  C463     1.0000 0.38490  0.97460  0.20340  Biso   1.000  C
  H523     1.0000 0.37350  0.95890  0.17920  Biso   1.000  H
  H524     1.0000 0.36760  0.99670  0.19180  Biso   1.000  H
  C464     1.0000 0.52630  0.94300  0.25620  Biso   1.000  C
  H525     1.0000 0.59440  0.94580  0.26860  Biso   1.000  H
  H526     1.0000 0.51940  0.92420  0.23610  Biso   1.000  H
  C465     1.0000 0.47780  0.93400  0.29420  Biso   1.000  C
  H527     1.0000 0.49250  0.95000  0.31810  Biso   1.000  H
  H528     1.0000 0.49640  0.91200  0.30580  Biso   1.000  H
  C466     1.0000 0.32470  0.91450  0.33070  Biso   1.000  C
  H529     1.0000 0.39020  0.91050  0.34020  Biso   1.000  H
  C467     1.0000 0.32700  0.96490  0.23990  Biso   1.000  C
  H530     1.0000 0.34290  0.98320  0.26100  Biso   1.000  H
  C468     1.0000 0.49050  0.97350  0.22950  Biso   1.000  C
  H531     1.0000 0.53100  0.97680  0.20840  Biso   1.000  H
  H532     1.0000 0.50070  0.99220  0.24950  Biso   1.000  H
  C469     1.0000 0.36150  0.93530  0.26840  Biso   1.000  C
  H533     1.0000 0.35320  0.91660  0.24770  Biso   1.000  H
  C470     1.0000 0.25340  0.90237  0.35903  Biso   1.000  C
  C471     1.0000 0.16180  0.91538  0.35529  Biso   1.000  C
  C472     1.0000 0.10680  0.90607  0.38520  Biso   1.000  C
  C473     1.0000 0.14340  0.88370  0.41890  Biso   1.000  C
  H534     1.0000 0.10650  0.87750  0.43890  Biso   1.000  H
  C474     1.0000 0.23500  0.87073  0.42264  Biso   1.000  C
  C475     1.0000 0.29000  0.88004  0.39271  Biso   1.000  C
  H535     1.0000 0.35130  0.87130  0.39520  Biso   1.000  H
  C476     1.0000 0.93550  0.91650  0.34760  Biso   1.000  C
  H536     1.0000 0.87390  0.92360  0.35190  Biso   1.000  H
  H537     1.0000 0.93360  0.89320  0.34130  Biso   1.000  H
  H538     1.0000 0.95090  0.92850  0.32330  Biso   1.000  H
  C477     1.0000 0.01240  0.92343  0.38990  Biso   1.000  C
  C478     1.0000 0.98370  0.91850  0.43480  Biso   1.000  C
  H539     1.0000 0.92400  0.92960  0.43430  Biso   1.000  H
  H540     1.0000 0.03270  0.92760  0.45810  Biso   1.000  H
  H541     1.0000 0.97670  0.89530  0.44000  Biso   1.000  H
  C479     1.0000 0.01870  0.96136  0.38540  Biso   1.000  C
  H542     1.0000 0.95860  0.97120  0.38750  Biso   1.000  H
  H543     1.0000 0.03250  0.96670  0.35720  Biso   1.000  H
  H544     1.0000 0.06890  0.96980  0.40860  Biso   1.000  H
  C480     1.0000 0.27350  0.84250  0.45120  Biso   1.000  C
  Cd9      1.0000 0.50000  0.54700  0.00000  Biso   1.000  Cd
  Cd10     1.0000 0.50000  0.45968  0.00000  Biso   1.000  Cd
  Cd11     1.0000 0.00000  0.04700  0.00000  Biso   1.000  Cd
  Cd12     1.0000 0.00000  0.95968  0.00000  Biso   1.000  Cd
  Cd13     1.0000 0.00000  0.33960  0.50000  Biso   1.000  Cd
  Cd14     1.0000 0.00000  0.25270  0.50000  Biso   1.000  Cd
  Cd15     1.0000 0.50000  0.83960  0.50000  Biso   1.000  Cd
  Cd16     1.0000 0.50000  0.75270  0.50000  Biso   1.000  Cd
