data_la4012839_si_002
_audit_creation_date              2015-10-12
_audit_creation_method            'Materials Studio'
_symmetry_space_group_name_H-M    'P1'
_symmetry_Int_Tables_number       1
_symmetry_cell_setting            triclinic
loop_
_symmetry_equiv_pos_as_xyz
  x,y,z
_cell_length_a                    26.5360
_cell_length_b                    26.5360
_cell_length_c                    26.5360
_cell_angle_alpha                 90.0000
_cell_angle_beta                  90.0000
_cell_angle_gamma                 90.0000
loop_
_atom_site_label
_atom_site_type_symbol
_atom_site_fract_x
_atom_site_fract_y
_atom_site_fract_z
_atom_site_U_iso_or_equiv
_atom_site_adp_type
_atom_site_occupancy
O1     O     0.18667   0.95045   0.25503   0.00000  Uiso   1.00
O2     O     0.18667   0.45045   0.75503   0.00000  Uiso   1.00
O3     O     0.68667   0.95045   0.75503   0.00000  Uiso   1.00
O4     O     0.68667   0.45045   0.25503   0.00000  Uiso   1.00
O5     O     0.81333   0.04955   0.25503   0.00000  Uiso   1.00
O6     O     0.81333   0.54955   0.75503   0.00000  Uiso   1.00
O7     O     0.31333   0.04955   0.75503   0.00000  Uiso   1.00
O8     O     0.31333   0.54955   0.25503   0.00000  Uiso   1.00
O9     O     0.81333   0.95045   0.74497   0.00000  Uiso   1.00
O10    O     0.81333   0.45045   0.24497   0.00000  Uiso   1.00
O11    O     0.31333   0.95045   0.24497   0.00000  Uiso   1.00
O12    O     0.31333   0.45045   0.74497   0.00000  Uiso   1.00
O13    O     0.18667   0.04955   0.74497   0.00000  Uiso   1.00
O14    O     0.18667   0.54955   0.24497   0.00000  Uiso   1.00
O15    O     0.68667   0.04955   0.24497   0.00000  Uiso   1.00
O16    O     0.68667   0.54955   0.74497   0.00000  Uiso   1.00
O17    O     0.25503   0.18667   0.95045   0.00000  Uiso   1.00
O18    O     0.25503   0.68667   0.45045   0.00000  Uiso   1.00
O19    O     0.75503   0.18667   0.45045   0.00000  Uiso   1.00
O20    O     0.75503   0.68667   0.95045   0.00000  Uiso   1.00
O21    O     0.25503   0.81333   0.04955   0.00000  Uiso   1.00
O22    O     0.25503   0.31333   0.54955   0.00000  Uiso   1.00
O23    O     0.75503   0.81333   0.54955   0.00000  Uiso   1.00
O24    O     0.75503   0.31333   0.04955   0.00000  Uiso   1.00
O25    O     0.74497   0.81333   0.95045   0.00000  Uiso   1.00
O26    O     0.74497   0.31333   0.45045   0.00000  Uiso   1.00
O27    O     0.24497   0.81333   0.45045   0.00000  Uiso   1.00
O28    O     0.24497   0.31333   0.95045   0.00000  Uiso   1.00
O29    O     0.74497   0.18667   0.04955   0.00000  Uiso   1.00
O30    O     0.74497   0.68667   0.54955   0.00000  Uiso   1.00
O31    O     0.24497   0.18667   0.54955   0.00000  Uiso   1.00
O32    O     0.24497   0.68667   0.04955   0.00000  Uiso   1.00
O33    O     0.95045   0.25503   0.18667   0.00000  Uiso   1.00
O34    O     0.95045   0.75503   0.68667   0.00000  Uiso   1.00
O35    O     0.45045   0.25503   0.68667   0.00000  Uiso   1.00
O36    O     0.45045   0.75503   0.18667   0.00000  Uiso   1.00
O37    O     0.04955   0.25503   0.81333   0.00000  Uiso   1.00
O38    O     0.04955   0.75503   0.31333   0.00000  Uiso   1.00
O39    O     0.54955   0.25503   0.31333   0.00000  Uiso   1.00
O40    O     0.54955   0.75503   0.81333   0.00000  Uiso   1.00
O41    O     0.95045   0.74497   0.81333   0.00000  Uiso   1.00
O42    O     0.95045   0.24497   0.31333   0.00000  Uiso   1.00
O43    O     0.45045   0.74497   0.31333   0.00000  Uiso   1.00
O44    O     0.45045   0.24497   0.81333   0.00000  Uiso   1.00
O45    O     0.04955   0.74497   0.18667   0.00000  Uiso   1.00
O46    O     0.04955   0.24497   0.68667   0.00000  Uiso   1.00
O47    O     0.54955   0.74497   0.68667   0.00000  Uiso   1.00
O48    O     0.54955   0.24497   0.18667   0.00000  Uiso   1.00
O49    O     0.95045   0.18667   0.74497   0.00000  Uiso   1.00
O50    O     0.95045   0.68667   0.24497   0.00000  Uiso   1.00
O51    O     0.45045   0.18667   0.24497   0.00000  Uiso   1.00
O52    O     0.45045   0.68667   0.74497   0.00000  Uiso   1.00
O53    O     0.04955   0.81333   0.74497   0.00000  Uiso   1.00
O54    O     0.04955   0.31333   0.24497   0.00000  Uiso   1.00
O55    O     0.54955   0.81333   0.24497   0.00000  Uiso   1.00
O56    O     0.54955   0.31333   0.74497   0.00000  Uiso   1.00
O57    O     0.95045   0.81333   0.25503   0.00000  Uiso   1.00
O58    O     0.95045   0.31333   0.75503   0.00000  Uiso   1.00
O59    O     0.45045   0.81333   0.75503   0.00000  Uiso   1.00
O60    O     0.45045   0.31333   0.25503   0.00000  Uiso   1.00
O61    O     0.04955   0.18667   0.25503   0.00000  Uiso   1.00
O62    O     0.04955   0.68667   0.75503   0.00000  Uiso   1.00
O63    O     0.54955   0.18667   0.75503   0.00000  Uiso   1.00
O64    O     0.54955   0.68667   0.25503   0.00000  Uiso   1.00
O65    O     0.18667   0.25503   0.04955   0.00000  Uiso   1.00
O66    O     0.18667   0.75503   0.54955   0.00000  Uiso   1.00
O67    O     0.68667   0.25503   0.54955   0.00000  Uiso   1.00
O68    O     0.68667   0.75503   0.04955   0.00000  Uiso   1.00
O69    O     0.81333   0.25503   0.95045   0.00000  Uiso   1.00
O70    O     0.81333   0.75503   0.45045   0.00000  Uiso   1.00
O71    O     0.31333   0.25503   0.45045   0.00000  Uiso   1.00
O72    O     0.31333   0.75503   0.95045   0.00000  Uiso   1.00
O73    O     0.81333   0.74497   0.04955   0.00000  Uiso   1.00
O74    O     0.81333   0.24497   0.54955   0.00000  Uiso   1.00
O75    O     0.31333   0.74497   0.54955   0.00000  Uiso   1.00
O76    O     0.31333   0.24497   0.04955   0.00000  Uiso   1.00
O77    O     0.18667   0.74497   0.95045   0.00000  Uiso   1.00
O78    O     0.18667   0.24497   0.45045   0.00000  Uiso   1.00
O79    O     0.68667   0.74497   0.45045   0.00000  Uiso   1.00
O80    O     0.68667   0.24497   0.95045   0.00000  Uiso   1.00
O81    O     0.25503   0.95045   0.81333   0.00000  Uiso   1.00
O82    O     0.25503   0.45045   0.31333   0.00000  Uiso   1.00
O83    O     0.75503   0.95045   0.31333   0.00000  Uiso   1.00
O84    O     0.75503   0.45045   0.81333   0.00000  Uiso   1.00
O85    O     0.25503   0.04955   0.18667   0.00000  Uiso   1.00
O86    O     0.25503   0.54955   0.68667   0.00000  Uiso   1.00
O87    O     0.75503   0.04955   0.68667   0.00000  Uiso   1.00
O88    O     0.75503   0.54955   0.18667   0.00000  Uiso   1.00
O89    O     0.74497   0.95045   0.18667   0.00000  Uiso   1.00
O90    O     0.74497   0.45045   0.68667   0.00000  Uiso   1.00
O91    O     0.24497   0.95045   0.68667   0.00000  Uiso   1.00
O92    O     0.24497   0.45045   0.18667   0.00000  Uiso   1.00
O93    O     0.74497   0.04955   0.81333   0.00000  Uiso   1.00
O94    O     0.74497   0.54955   0.31333   0.00000  Uiso   1.00
O95    O     0.24497   0.04955   0.31333   0.00000  Uiso   1.00
O96    O     0.24497   0.54955   0.81333   0.00000  Uiso   1.00
O97    O     0.81333   0.04955   0.74497   0.00000  Uiso   1.00
O98    O     0.81333   0.54955   0.24497   0.00000  Uiso   1.00
O99    O     0.31333   0.04955   0.24497   0.00000  Uiso   1.00
O100   O     0.31333   0.54955   0.74497   0.00000  Uiso   1.00
O101   O     0.18667   0.95045   0.74497   0.00000  Uiso   1.00
O102   O     0.18667   0.45045   0.24497   0.00000  Uiso   1.00
O103   O     0.68667   0.95045   0.24497   0.00000  Uiso   1.00
O104   O     0.68667   0.45045   0.74497   0.00000  Uiso   1.00
O105   O     0.18667   0.04955   0.25503   0.00000  Uiso   1.00
O106   O     0.18667   0.54955   0.75503   0.00000  Uiso   1.00
O107   O     0.68667   0.04955   0.75503   0.00000  Uiso   1.00
O108   O     0.68667   0.54955   0.25503   0.00000  Uiso   1.00
O109   O     0.81333   0.95045   0.25503   0.00000  Uiso   1.00
O110   O     0.81333   0.45045   0.75503   0.00000  Uiso   1.00
O111   O     0.31333   0.95045   0.75503   0.00000  Uiso   1.00
O112   O     0.31333   0.45045   0.25503   0.00000  Uiso   1.00
O113   O     0.74497   0.81333   0.04955   0.00000  Uiso   1.00
O114   O     0.74497   0.31333   0.54955   0.00000  Uiso   1.00
O115   O     0.24497   0.81333   0.54955   0.00000  Uiso   1.00
O116   O     0.24497   0.31333   0.04955   0.00000  Uiso   1.00
O117   O     0.74497   0.18667   0.95045   0.00000  Uiso   1.00
O118   O     0.74497   0.68667   0.45045   0.00000  Uiso   1.00
O119   O     0.24497   0.18667   0.45045   0.00000  Uiso   1.00
O120   O     0.24497   0.68667   0.95045   0.00000  Uiso   1.00
O121   O     0.25503   0.18667   0.04955   0.00000  Uiso   1.00
O122   O     0.25503   0.68667   0.54955   0.00000  Uiso   1.00
O123   O     0.75503   0.18667   0.54955   0.00000  Uiso   1.00
O124   O     0.75503   0.68667   0.04955   0.00000  Uiso   1.00
O125   O     0.25503   0.81333   0.95045   0.00000  Uiso   1.00
O126   O     0.25503   0.31333   0.45045   0.00000  Uiso   1.00
O127   O     0.75503   0.81333   0.45045   0.00000  Uiso   1.00
O128   O     0.75503   0.31333   0.95045   0.00000  Uiso   1.00
O129   O     0.04955   0.74497   0.81333   0.00000  Uiso   1.00
O130   O     0.04955   0.24497   0.31333   0.00000  Uiso   1.00
O131   O     0.54955   0.74497   0.31333   0.00000  Uiso   1.00
O132   O     0.54955   0.24497   0.81333   0.00000  Uiso   1.00
O133   O     0.95045   0.74497   0.18667   0.00000  Uiso   1.00
O134   O     0.95045   0.24497   0.68667   0.00000  Uiso   1.00
O135   O     0.45045   0.74497   0.68667   0.00000  Uiso   1.00
O136   O     0.45045   0.24497   0.18667   0.00000  Uiso   1.00
O137   O     0.04955   0.25503   0.18667   0.00000  Uiso   1.00
O138   O     0.04955   0.75503   0.68667   0.00000  Uiso   1.00
O139   O     0.54955   0.25503   0.68667   0.00000  Uiso   1.00
O140   O     0.54955   0.75503   0.18667   0.00000  Uiso   1.00
O141   O     0.95045   0.25503   0.81333   0.00000  Uiso   1.00
O142   O     0.95045   0.75503   0.31333   0.00000  Uiso   1.00
O143   O     0.45045   0.25503   0.31333   0.00000  Uiso   1.00
O144   O     0.45045   0.75503   0.81333   0.00000  Uiso   1.00
O145   O     0.04955   0.81333   0.25503   0.00000  Uiso   1.00
O146   O     0.04955   0.31333   0.75503   0.00000  Uiso   1.00
O147   O     0.54955   0.81333   0.75503   0.00000  Uiso   1.00
O148   O     0.54955   0.31333   0.25503   0.00000  Uiso   1.00
O149   O     0.95045   0.18667   0.25503   0.00000  Uiso   1.00
O150   O     0.95045   0.68667   0.75503   0.00000  Uiso   1.00
O151   O     0.45045   0.18667   0.75503   0.00000  Uiso   1.00
O152   O     0.45045   0.68667   0.25503   0.00000  Uiso   1.00
O153   O     0.04955   0.18667   0.74497   0.00000  Uiso   1.00
O154   O     0.04955   0.68667   0.24497   0.00000  Uiso   1.00
O155   O     0.54955   0.18667   0.24497   0.00000  Uiso   1.00
O156   O     0.54955   0.68667   0.74497   0.00000  Uiso   1.00
O157   O     0.95045   0.81333   0.74497   0.00000  Uiso   1.00
O158   O     0.95045   0.31333   0.24497   0.00000  Uiso   1.00
O159   O     0.45045   0.81333   0.24497   0.00000  Uiso   1.00
O160   O     0.45045   0.31333   0.74497   0.00000  Uiso   1.00
O161   O     0.81333   0.74497   0.95045   0.00000  Uiso   1.00
O162   O     0.81333   0.24497   0.45045   0.00000  Uiso   1.00
O163   O     0.31333   0.74497   0.45045   0.00000  Uiso   1.00
O164   O     0.31333   0.24497   0.95045   0.00000  Uiso   1.00
O165   O     0.18667   0.74497   0.04955   0.00000  Uiso   1.00
O166   O     0.18667   0.24497   0.54955   0.00000  Uiso   1.00
O167   O     0.68667   0.74497   0.54955   0.00000  Uiso   1.00
O168   O     0.68667   0.24497   0.04955   0.00000  Uiso   1.00
O169   O     0.18667   0.25503   0.95045   0.00000  Uiso   1.00
O170   O     0.18667   0.75503   0.45045   0.00000  Uiso   1.00
O171   O     0.68667   0.25503   0.45045   0.00000  Uiso   1.00
O172   O     0.68667   0.75503   0.95045   0.00000  Uiso   1.00
O173   O     0.81333   0.25503   0.04955   0.00000  Uiso   1.00
O174   O     0.81333   0.75503   0.54955   0.00000  Uiso   1.00
O175   O     0.31333   0.25503   0.54955   0.00000  Uiso   1.00
O176   O     0.31333   0.75503   0.04955   0.00000  Uiso   1.00
O177   O     0.74497   0.04955   0.18667   0.00000  Uiso   1.00
O178   O     0.74497   0.54955   0.68667   0.00000  Uiso   1.00
O179   O     0.24497   0.04955   0.68667   0.00000  Uiso   1.00
O180   O     0.24497   0.54955   0.18667   0.00000  Uiso   1.00
O181   O     0.74497   0.95045   0.81333   0.00000  Uiso   1.00
O182   O     0.74497   0.45045   0.31333   0.00000  Uiso   1.00
O183   O     0.24497   0.95045   0.31333   0.00000  Uiso   1.00
O184   O     0.24497   0.45045   0.81333   0.00000  Uiso   1.00
O185   O     0.25503   0.04955   0.81333   0.00000  Uiso   1.00
O186   O     0.25503   0.54955   0.31333   0.00000  Uiso   1.00
O187   O     0.75503   0.04955   0.31333   0.00000  Uiso   1.00
O188   O     0.75503   0.54955   0.81333   0.00000  Uiso   1.00
O189   O     0.25503   0.95045   0.18667   0.00000  Uiso   1.00
O190   O     0.25503   0.45045   0.68667   0.00000  Uiso   1.00
O191   O     0.75503   0.95045   0.68667   0.00000  Uiso   1.00
O192   O     0.75503   0.45045   0.18667   0.00000  Uiso   1.00
C193   C     0.38741   0.32121   0.32121   0.00000  Uiso   1.00
C194   C     0.38741   0.82121   0.82121   0.00000  Uiso   1.00
C195   C     0.88741   0.32121   0.82121   0.00000  Uiso   1.00
C196   C     0.88741   0.82121   0.32121   0.00000  Uiso   1.00
C197   C     0.61259   0.67879   0.32121   0.00000  Uiso   1.00
C198   C     0.61259   0.17879   0.82121   0.00000  Uiso   1.00
C199   C     0.11259   0.67879   0.82121   0.00000  Uiso   1.00
C200   C     0.11259   0.17879   0.32121   0.00000  Uiso   1.00
C201   C     0.61259   0.32121   0.67879   0.00000  Uiso   1.00
C202   C     0.61259   0.82121   0.17879   0.00000  Uiso   1.00
C203   C     0.11259   0.32121   0.17879   0.00000  Uiso   1.00
C204   C     0.11259   0.82121   0.67879   0.00000  Uiso   1.00
C205   C     0.38741   0.67879   0.67879   0.00000  Uiso   1.00
C206   C     0.38741   0.17879   0.17879   0.00000  Uiso   1.00
C207   C     0.88741   0.67879   0.17879   0.00000  Uiso   1.00
C208   C     0.88741   0.17879   0.67879   0.00000  Uiso   1.00
C209   C     0.32121   0.38741   0.32121   0.00000  Uiso   1.00
C210   C     0.32121   0.88741   0.82121   0.00000  Uiso   1.00
C211   C     0.82121   0.38741   0.82121   0.00000  Uiso   1.00
C212   C     0.82121   0.88741   0.32121   0.00000  Uiso   1.00
C213   C     0.32121   0.61259   0.67879   0.00000  Uiso   1.00
C214   C     0.32121   0.11259   0.17879   0.00000  Uiso   1.00
C215   C     0.82121   0.61259   0.17879   0.00000  Uiso   1.00
C216   C     0.82121   0.11259   0.67879   0.00000  Uiso   1.00
C217   C     0.67879   0.61259   0.32121   0.00000  Uiso   1.00
C218   C     0.67879   0.11259   0.82121   0.00000  Uiso   1.00
C219   C     0.17879   0.61259   0.82121   0.00000  Uiso   1.00
C220   C     0.17879   0.11259   0.32121   0.00000  Uiso   1.00
C221   C     0.67879   0.38741   0.67879   0.00000  Uiso   1.00
C222   C     0.67879   0.88741   0.17879   0.00000  Uiso   1.00
C223   C     0.17879   0.38741   0.17879   0.00000  Uiso   1.00
C224   C     0.17879   0.88741   0.67879   0.00000  Uiso   1.00
C225   C     0.32121   0.32121   0.38741   0.00000  Uiso   1.00
C226   C     0.32121   0.82121   0.88741   0.00000  Uiso   1.00
C227   C     0.82121   0.32121   0.88741   0.00000  Uiso   1.00
C228   C     0.82121   0.82121   0.38741   0.00000  Uiso   1.00
C229   C     0.67879   0.32121   0.61259   0.00000  Uiso   1.00
C230   C     0.67879   0.82121   0.11259   0.00000  Uiso   1.00
C231   C     0.17879   0.32121   0.11259   0.00000  Uiso   1.00
C232   C     0.17879   0.82121   0.61259   0.00000  Uiso   1.00
C233   C     0.32121   0.67879   0.61259   0.00000  Uiso   1.00
C234   C     0.32121   0.17879   0.11259   0.00000  Uiso   1.00
C235   C     0.82121   0.67879   0.11259   0.00000  Uiso   1.00
C236   C     0.82121   0.17879   0.61259   0.00000  Uiso   1.00
C237   C     0.67879   0.67879   0.38741   0.00000  Uiso   1.00
C238   C     0.67879   0.17879   0.88741   0.00000  Uiso   1.00
C239   C     0.17879   0.67879   0.88741   0.00000  Uiso   1.00
C240   C     0.17879   0.17879   0.38741   0.00000  Uiso   1.00
C241   C     0.32121   0.38741   0.67879   0.00000  Uiso   1.00
C242   C     0.32121   0.88741   0.17879   0.00000  Uiso   1.00
C243   C     0.82121   0.38741   0.17879   0.00000  Uiso   1.00
C244   C     0.82121   0.88741   0.67879   0.00000  Uiso   1.00
C245   C     0.67879   0.61259   0.67879   0.00000  Uiso   1.00
C246   C     0.67879   0.11259   0.17879   0.00000  Uiso   1.00
C247   C     0.17879   0.61259   0.17879   0.00000  Uiso   1.00
C248   C     0.17879   0.11259   0.67879   0.00000  Uiso   1.00
C249   C     0.32121   0.61259   0.32121   0.00000  Uiso   1.00
C250   C     0.32121   0.11259   0.82121   0.00000  Uiso   1.00
C251   C     0.82121   0.61259   0.82121   0.00000  Uiso   1.00
C252   C     0.82121   0.11259   0.32121   0.00000  Uiso   1.00
C253   C     0.67879   0.38741   0.32121   0.00000  Uiso   1.00
C254   C     0.67879   0.88741   0.82121   0.00000  Uiso   1.00
C255   C     0.17879   0.38741   0.82121   0.00000  Uiso   1.00
C256   C     0.17879   0.88741   0.32121   0.00000  Uiso   1.00
C257   C     0.38741   0.32121   0.67879   0.00000  Uiso   1.00
C258   C     0.38741   0.82121   0.17879   0.00000  Uiso   1.00
C259   C     0.88741   0.32121   0.17879   0.00000  Uiso   1.00
C260   C     0.88741   0.82121   0.67879   0.00000  Uiso   1.00
C261   C     0.61259   0.32121   0.32121   0.00000  Uiso   1.00
C262   C     0.61259   0.82121   0.82121   0.00000  Uiso   1.00
C263   C     0.11259   0.32121   0.82121   0.00000  Uiso   1.00
C264   C     0.11259   0.82121   0.32121   0.00000  Uiso   1.00
C265   C     0.61259   0.67879   0.67879   0.00000  Uiso   1.00
C266   C     0.61259   0.17879   0.17879   0.00000  Uiso   1.00
C267   C     0.11259   0.67879   0.17879   0.00000  Uiso   1.00
C268   C     0.11259   0.17879   0.67879   0.00000  Uiso   1.00
C269   C     0.38741   0.67879   0.32121   0.00000  Uiso   1.00
C270   C     0.38741   0.17879   0.82121   0.00000  Uiso   1.00
C271   C     0.88741   0.67879   0.82121   0.00000  Uiso   1.00
C272   C     0.88741   0.17879   0.32121   0.00000  Uiso   1.00
C273   C     0.32121   0.32121   0.61259   0.00000  Uiso   1.00
C274   C     0.32121   0.82121   0.11259   0.00000  Uiso   1.00
C275   C     0.82121   0.32121   0.11259   0.00000  Uiso   1.00
C276   C     0.82121   0.82121   0.61259   0.00000  Uiso   1.00
C277   C     0.32121   0.67879   0.38741   0.00000  Uiso   1.00
C278   C     0.32121   0.17879   0.88741   0.00000  Uiso   1.00
C279   C     0.82121   0.67879   0.88741   0.00000  Uiso   1.00
C280   C     0.82121   0.17879   0.38741   0.00000  Uiso   1.00
C281   C     0.67879   0.32121   0.38741   0.00000  Uiso   1.00
C282   C     0.67879   0.82121   0.88741   0.00000  Uiso   1.00
C283   C     0.17879   0.32121   0.88741   0.00000  Uiso   1.00
C284   C     0.17879   0.82121   0.38741   0.00000  Uiso   1.00
C285   C     0.67879   0.67879   0.61259   0.00000  Uiso   1.00
C286   C     0.67879   0.17879   0.11259   0.00000  Uiso   1.00
C287   C     0.17879   0.67879   0.11259   0.00000  Uiso   1.00
C288   C     0.17879   0.17879   0.61259   0.00000  Uiso   1.00
C289   C     0.36499   0.36499   0.30009   0.00000  Uiso   1.00
H290   H     0.38104   0.38104   0.26618   0.00000  Uiso   1.00
C291   C     0.36499   0.86499   0.80009   0.00000  Uiso   1.00
H292   H     0.38104   0.88104   0.76618   0.00000  Uiso   1.00
C293   C     0.86499   0.36499   0.80009   0.00000  Uiso   1.00
H294   H     0.88104   0.38104   0.76618   0.00000  Uiso   1.00
C295   C     0.86499   0.86499   0.30009   0.00000  Uiso   1.00
H296   H     0.88104   0.88104   0.26618   0.00000  Uiso   1.00
C297   C     0.63501   0.63501   0.30009   0.00000  Uiso   1.00
H298   H     0.61896   0.61896   0.26618   0.00000  Uiso   1.00
C299   C     0.63501   0.13501   0.80009   0.00000  Uiso   1.00
H300   H     0.61896   0.11896   0.76618   0.00000  Uiso   1.00
C301   C     0.13501   0.63501   0.80009   0.00000  Uiso   1.00
H302   H     0.11896   0.61896   0.76618   0.00000  Uiso   1.00
C303   C     0.13501   0.13501   0.30009   0.00000  Uiso   1.00
H304   H     0.11896   0.11896   0.26618   0.00000  Uiso   1.00
C305   C     0.63501   0.36499   0.69991   0.00000  Uiso   1.00
H306   H     0.61896   0.38104   0.73382   0.00000  Uiso   1.00
C307   C     0.63501   0.86499   0.19991   0.00000  Uiso   1.00
H308   H     0.61896   0.88104   0.23382   0.00000  Uiso   1.00
C309   C     0.13501   0.36499   0.19991   0.00000  Uiso   1.00
H310   H     0.11896   0.38104   0.23382   0.00000  Uiso   1.00
C311   C     0.13501   0.86499   0.69991   0.00000  Uiso   1.00
H312   H     0.11896   0.88104   0.73382   0.00000  Uiso   1.00
C313   C     0.36499   0.63501   0.69991   0.00000  Uiso   1.00
H314   H     0.38104   0.61896   0.73382   0.00000  Uiso   1.00
C315   C     0.36499   0.13501   0.19991   0.00000  Uiso   1.00
H316   H     0.38104   0.11896   0.23382   0.00000  Uiso   1.00
C317   C     0.86499   0.63501   0.19991   0.00000  Uiso   1.00
H318   H     0.88104   0.61896   0.23382   0.00000  Uiso   1.00
C319   C     0.86499   0.13501   0.69991   0.00000  Uiso   1.00
H320   H     0.88104   0.11896   0.73382   0.00000  Uiso   1.00
C321   C     0.30009   0.36499   0.36499   0.00000  Uiso   1.00
H322   H     0.26618   0.38104   0.38104   0.00000  Uiso   1.00
C323   C     0.30009   0.86499   0.86499   0.00000  Uiso   1.00
H324   H     0.26618   0.88104   0.88104   0.00000  Uiso   1.00
C325   C     0.80009   0.36499   0.86499   0.00000  Uiso   1.00
H326   H     0.76618   0.38104   0.88104   0.00000  Uiso   1.00
C327   C     0.80009   0.86499   0.36499   0.00000  Uiso   1.00
H328   H     0.76618   0.88104   0.38104   0.00000  Uiso   1.00
C329   C     0.30009   0.63501   0.63501   0.00000  Uiso   1.00
H330   H     0.26618   0.61896   0.61896   0.00000  Uiso   1.00
C331   C     0.30009   0.13501   0.13501   0.00000  Uiso   1.00
H332   H     0.26618   0.11896   0.11896   0.00000  Uiso   1.00
C333   C     0.80009   0.63501   0.13501   0.00000  Uiso   1.00
H334   H     0.76618   0.61896   0.11896   0.00000  Uiso   1.00
C335   C     0.80009   0.13501   0.63501   0.00000  Uiso   1.00
H336   H     0.76618   0.11896   0.61896   0.00000  Uiso   1.00
C337   C     0.69991   0.63501   0.36499   0.00000  Uiso   1.00
H338   H     0.73382   0.61896   0.38104   0.00000  Uiso   1.00
C339   C     0.69991   0.13501   0.86499   0.00000  Uiso   1.00
H340   H     0.73382   0.11896   0.88104   0.00000  Uiso   1.00
C341   C     0.19991   0.63501   0.86499   0.00000  Uiso   1.00
H342   H     0.23382   0.61896   0.88104   0.00000  Uiso   1.00
C343   C     0.19991   0.13501   0.36499   0.00000  Uiso   1.00
H344   H     0.23382   0.11896   0.38104   0.00000  Uiso   1.00
C345   C     0.69991   0.36499   0.63501   0.00000  Uiso   1.00
H346   H     0.73382   0.38104   0.61896   0.00000  Uiso   1.00
C347   C     0.69991   0.86499   0.13501   0.00000  Uiso   1.00
H348   H     0.73382   0.88104   0.11896   0.00000  Uiso   1.00
C349   C     0.19991   0.36499   0.13501   0.00000  Uiso   1.00
H350   H     0.23382   0.38104   0.11896   0.00000  Uiso   1.00
C351   C     0.19991   0.86499   0.63501   0.00000  Uiso   1.00
H352   H     0.23382   0.88104   0.61896   0.00000  Uiso   1.00
C353   C     0.36499   0.30009   0.36499   0.00000  Uiso   1.00
H354   H     0.38104   0.26618   0.38104   0.00000  Uiso   1.00
C355   C     0.36499   0.80009   0.86499   0.00000  Uiso   1.00
H356   H     0.38104   0.76618   0.88104   0.00000  Uiso   1.00
C357   C     0.86499   0.30009   0.86499   0.00000  Uiso   1.00
H358   H     0.88104   0.26618   0.88104   0.00000  Uiso   1.00
C359   C     0.86499   0.80009   0.36499   0.00000  Uiso   1.00
H360   H     0.88104   0.76618   0.38104   0.00000  Uiso   1.00
C361   C     0.63501   0.30009   0.63501   0.00000  Uiso   1.00
H362   H     0.61896   0.26618   0.61896   0.00000  Uiso   1.00
C363   C     0.63501   0.80009   0.13501   0.00000  Uiso   1.00
H364   H     0.61896   0.76618   0.11896   0.00000  Uiso   1.00
C365   C     0.13501   0.30009   0.13501   0.00000  Uiso   1.00
H366   H     0.11896   0.26618   0.11896   0.00000  Uiso   1.00
C367   C     0.13501   0.80009   0.63501   0.00000  Uiso   1.00
H368   H     0.11896   0.76618   0.61896   0.00000  Uiso   1.00
C369   C     0.36499   0.69991   0.63501   0.00000  Uiso   1.00
H370   H     0.38104   0.73382   0.61896   0.00000  Uiso   1.00
C371   C     0.36499   0.19991   0.13501   0.00000  Uiso   1.00
H372   H     0.38104   0.23382   0.11896   0.00000  Uiso   1.00
C373   C     0.86499   0.69991   0.13501   0.00000  Uiso   1.00
H374   H     0.88104   0.73382   0.11896   0.00000  Uiso   1.00
C375   C     0.86499   0.19991   0.63501   0.00000  Uiso   1.00
H376   H     0.88104   0.23382   0.61896   0.00000  Uiso   1.00
C377   C     0.63501   0.69991   0.36499   0.00000  Uiso   1.00
H378   H     0.61896   0.73382   0.38104   0.00000  Uiso   1.00
C379   C     0.63501   0.19991   0.86499   0.00000  Uiso   1.00
H380   H     0.61896   0.23382   0.88104   0.00000  Uiso   1.00
C381   C     0.13501   0.69991   0.86499   0.00000  Uiso   1.00
H382   H     0.11896   0.73382   0.88104   0.00000  Uiso   1.00
C383   C     0.13501   0.19991   0.36499   0.00000  Uiso   1.00
H384   H     0.11896   0.23382   0.38104   0.00000  Uiso   1.00
C385   C     0.36499   0.36499   0.69991   0.00000  Uiso   1.00
H386   H     0.38104   0.38104   0.73382   0.00000  Uiso   1.00
C387   C     0.36499   0.86499   0.19991   0.00000  Uiso   1.00
H388   H     0.38104   0.88104   0.23382   0.00000  Uiso   1.00
C389   C     0.86499   0.36499   0.19991   0.00000  Uiso   1.00
H390   H     0.88104   0.38104   0.23382   0.00000  Uiso   1.00
C391   C     0.86499   0.86499   0.69991   0.00000  Uiso   1.00
H392   H     0.88104   0.88104   0.73382   0.00000  Uiso   1.00
C393   C     0.63501   0.63501   0.69991   0.00000  Uiso   1.00
H394   H     0.61896   0.61896   0.73382   0.00000  Uiso   1.00
C395   C     0.63501   0.13501   0.19991   0.00000  Uiso   1.00
H396   H     0.61896   0.11896   0.23382   0.00000  Uiso   1.00
C397   C     0.13501   0.63501   0.19991   0.00000  Uiso   1.00
H398   H     0.11896   0.61896   0.23382   0.00000  Uiso   1.00
C399   C     0.13501   0.13501   0.69991   0.00000  Uiso   1.00
H400   H     0.11896   0.11896   0.73382   0.00000  Uiso   1.00
C401   C     0.36499   0.63501   0.30009   0.00000  Uiso   1.00
H402   H     0.38104   0.61896   0.26618   0.00000  Uiso   1.00
C403   C     0.36499   0.13501   0.80009   0.00000  Uiso   1.00
H404   H     0.38104   0.11896   0.76618   0.00000  Uiso   1.00
C405   C     0.86499   0.63501   0.80009   0.00000  Uiso   1.00
H406   H     0.88104   0.61896   0.76618   0.00000  Uiso   1.00
C407   C     0.86499   0.13501   0.30009   0.00000  Uiso   1.00
H408   H     0.88104   0.11896   0.26618   0.00000  Uiso   1.00
C409   C     0.63501   0.36499   0.30009   0.00000  Uiso   1.00
H410   H     0.61896   0.38104   0.26618   0.00000  Uiso   1.00
C411   C     0.63501   0.86499   0.80009   0.00000  Uiso   1.00
H412   H     0.61896   0.88104   0.76618   0.00000  Uiso   1.00
C413   C     0.13501   0.36499   0.80009   0.00000  Uiso   1.00
H414   H     0.11896   0.38104   0.76618   0.00000  Uiso   1.00
C415   C     0.13501   0.86499   0.30009   0.00000  Uiso   1.00
H416   H     0.11896   0.88104   0.26618   0.00000  Uiso   1.00
C417   C     0.36499   0.30009   0.63501   0.00000  Uiso   1.00
H418   H     0.38104   0.26618   0.61896   0.00000  Uiso   1.00
C419   C     0.36499   0.80009   0.13501   0.00000  Uiso   1.00
H420   H     0.38104   0.76618   0.11896   0.00000  Uiso   1.00
C421   C     0.86499   0.30009   0.13501   0.00000  Uiso   1.00
H422   H     0.88104   0.26618   0.11896   0.00000  Uiso   1.00
C423   C     0.86499   0.80009   0.63501   0.00000  Uiso   1.00
H424   H     0.88104   0.76618   0.61896   0.00000  Uiso   1.00
C425   C     0.63501   0.30009   0.36499   0.00000  Uiso   1.00
H426   H     0.61896   0.26618   0.38104   0.00000  Uiso   1.00
C427   C     0.63501   0.80009   0.86499   0.00000  Uiso   1.00
H428   H     0.61896   0.76618   0.88104   0.00000  Uiso   1.00
C429   C     0.13501   0.30009   0.86499   0.00000  Uiso   1.00
H430   H     0.11896   0.26618   0.88104   0.00000  Uiso   1.00
C431   C     0.13501   0.80009   0.36499   0.00000  Uiso   1.00
H432   H     0.11896   0.76618   0.38104   0.00000  Uiso   1.00
C433   C     0.63501   0.69991   0.63501   0.00000  Uiso   1.00
H434   H     0.61896   0.73382   0.61896   0.00000  Uiso   1.00
C435   C     0.63501   0.19991   0.13501   0.00000  Uiso   1.00
H436   H     0.61896   0.23382   0.11896   0.00000  Uiso   1.00
C437   C     0.13501   0.69991   0.13501   0.00000  Uiso   1.00
H438   H     0.11896   0.73382   0.11896   0.00000  Uiso   1.00
C439   C     0.13501   0.19991   0.63501   0.00000  Uiso   1.00
H440   H     0.11896   0.23382   0.61896   0.00000  Uiso   1.00
C441   C     0.36499   0.69991   0.36499   0.00000  Uiso   1.00
H442   H     0.38104   0.73382   0.38104   0.00000  Uiso   1.00
C443   C     0.36499   0.19991   0.86499   0.00000  Uiso   1.00
H444   H     0.38104   0.23382   0.88104   0.00000  Uiso   1.00
C445   C     0.86499   0.69991   0.86499   0.00000  Uiso   1.00
H446   H     0.88104   0.73382   0.88104   0.00000  Uiso   1.00
C447   C     0.86499   0.19991   0.36499   0.00000  Uiso   1.00
H448   H     0.88104   0.23382   0.38104   0.00000  Uiso   1.00
C449   C     0.30009   0.36499   0.63501   0.00000  Uiso   1.00
H450   H     0.26618   0.38104   0.61896   0.00000  Uiso   1.00
C451   C     0.30009   0.86499   0.13501   0.00000  Uiso   1.00
H452   H     0.26618   0.88104   0.11896   0.00000  Uiso   1.00
C453   C     0.80009   0.36499   0.13501   0.00000  Uiso   1.00
H454   H     0.76618   0.38104   0.11896   0.00000  Uiso   1.00
C455   C     0.80009   0.86499   0.63501   0.00000  Uiso   1.00
H456   H     0.76618   0.88104   0.61896   0.00000  Uiso   1.00
C457   C     0.30009   0.63501   0.36499   0.00000  Uiso   1.00
H458   H     0.26618   0.61896   0.38104   0.00000  Uiso   1.00
C459   C     0.30009   0.13501   0.86499   0.00000  Uiso   1.00
H460   H     0.26618   0.11896   0.88104   0.00000  Uiso   1.00
C461   C     0.80009   0.63501   0.86499   0.00000  Uiso   1.00
H462   H     0.76618   0.61896   0.88104   0.00000  Uiso   1.00
C463   C     0.80009   0.13501   0.36499   0.00000  Uiso   1.00
H464   H     0.76618   0.11896   0.38104   0.00000  Uiso   1.00
C465   C     0.69991   0.36499   0.36499   0.00000  Uiso   1.00
H466   H     0.73382   0.38104   0.38104   0.00000  Uiso   1.00
C467   C     0.69991   0.86499   0.86499   0.00000  Uiso   1.00
H468   H     0.73382   0.88104   0.88104   0.00000  Uiso   1.00
C469   C     0.19991   0.36499   0.86499   0.00000  Uiso   1.00
H470   H     0.23382   0.38104   0.88104   0.00000  Uiso   1.00
C471   C     0.19991   0.86499   0.36499   0.00000  Uiso   1.00
H472   H     0.23382   0.88104   0.38104   0.00000  Uiso   1.00
C473   C     0.69991   0.63501   0.63501   0.00000  Uiso   1.00
H474   H     0.73382   0.61896   0.61896   0.00000  Uiso   1.00
C475   C     0.69991   0.13501   0.13501   0.00000  Uiso   1.00
H476   H     0.73382   0.11896   0.11896   0.00000  Uiso   1.00
C477   C     0.19991   0.63501   0.13501   0.00000  Uiso   1.00
H478   H     0.23382   0.61896   0.11896   0.00000  Uiso   1.00
C479   C     0.19991   0.13501   0.63501   0.00000  Uiso   1.00
H480   H     0.23382   0.11896   0.61896   0.00000  Uiso   1.00
Zn481  Zn    0.21516   0.00000   0.21516   0.00000  Uiso   1.00
Zn482  Zn    0.21516   0.50000   0.71516   0.00000  Uiso   1.00
Zn483  Zn    0.71516  -0.00000   0.71516   0.00000  Uiso   1.00
Zn484  Zn    0.71516   0.50000   0.21516   0.00000  Uiso   1.00
Zn485  Zn    0.78484  -0.00000   0.21516   0.00000  Uiso   1.00
Zn486  Zn    0.78484   0.50000   0.71516   0.00000  Uiso   1.00
Zn487  Zn    0.28484  -0.00000   0.71516   0.00000  Uiso   1.00
Zn488  Zn    0.28484   0.50000   0.21516   0.00000  Uiso   1.00
Zn489  Zn    0.78484  -0.00000   0.78484   0.00000  Uiso   1.00
Zn490  Zn    0.78484   0.50000   0.28484   0.00000  Uiso   1.00
Zn491  Zn    0.28484  -0.00000   0.28484   0.00000  Uiso   1.00
Zn492  Zn    0.28484   0.50000   0.78484   0.00000  Uiso   1.00
Zn493  Zn    0.21516   0.00000   0.78484   0.00000  Uiso   1.00
Zn494  Zn    0.21516   0.50000   0.28484   0.00000  Uiso   1.00
Zn495  Zn    0.71516  -0.00000   0.28484   0.00000  Uiso   1.00
Zn496  Zn    0.71516   0.50000   0.78484   0.00000  Uiso   1.00
Zn497  Zn    0.21516   0.21516   0.00000   0.00000  Uiso   1.00
Zn498  Zn    0.21516   0.71516   0.50000   0.00000  Uiso   1.00
Zn499  Zn    0.71516   0.21516   0.50000   0.00000  Uiso   1.00
Zn500  Zn    0.71516   0.71516   0.00000   0.00000  Uiso   1.00
Zn501  Zn    0.21516   0.78484   0.00000   0.00000  Uiso   1.00
Zn502  Zn    0.21516   0.28484   0.50000   0.00000  Uiso   1.00
Zn503  Zn    0.71516   0.78484   0.50000   0.00000  Uiso   1.00
Zn504  Zn    0.71516   0.28484   0.00000   0.00000  Uiso   1.00
Zn505  Zn    0.78484   0.78484  -0.00000   0.00000  Uiso   1.00
Zn506  Zn    0.78484   0.28484   0.50000   0.00000  Uiso   1.00
Zn507  Zn    0.28484   0.78484   0.50000   0.00000  Uiso   1.00
Zn508  Zn    0.28484   0.28484  -0.00000   0.00000  Uiso   1.00
Zn509  Zn    0.78484   0.21516  -0.00000   0.00000  Uiso   1.00
Zn510  Zn    0.78484   0.71516   0.50000   0.00000  Uiso   1.00
Zn511  Zn    0.28484   0.21516   0.50000   0.00000  Uiso   1.00
Zn512  Zn    0.28484   0.71516  -0.00000   0.00000  Uiso   1.00
Zn513  Zn    0.00000   0.21516   0.21516   0.00000  Uiso   1.00
Zn514  Zn   -0.00000   0.71516   0.71516   0.00000  Uiso   1.00
Zn515  Zn    0.50000   0.21516   0.71516   0.00000  Uiso   1.00
Zn516  Zn    0.50000   0.71516   0.21516   0.00000  Uiso   1.00
Zn517  Zn   -0.00000   0.21516   0.78484   0.00000  Uiso   1.00
Zn518  Zn   -0.00000   0.71516   0.28484   0.00000  Uiso   1.00
Zn519  Zn    0.50000   0.21516   0.28484   0.00000  Uiso   1.00
Zn520  Zn    0.50000   0.71516   0.78484   0.00000  Uiso   1.00
Zn521  Zn   -0.00000   0.78484   0.78484   0.00000  Uiso   1.00
Zn522  Zn   -0.00000   0.28484   0.28484   0.00000  Uiso   1.00
Zn523  Zn    0.50000   0.78484   0.28484   0.00000  Uiso   1.00
Zn524  Zn    0.50000   0.28484   0.78484   0.00000  Uiso   1.00
Zn525  Zn    0.00000   0.78484   0.21516   0.00000  Uiso   1.00
Zn526  Zn    0.00000   0.28484   0.71516   0.00000  Uiso   1.00
Zn527  Zn    0.50000   0.78484   0.71516   0.00000  Uiso   1.00
Zn528  Zn    0.50000   0.28484   0.21516   0.00000  Uiso   1.00
C529   C     0.20435   0.93191   0.29565   0.00000  Uiso   1.00
C530   C     0.20435   0.43191   0.79565   0.00000  Uiso   1.00
C531   C     0.79565   0.06809   0.29565   0.00000  Uiso   1.00
C532   C     0.79565   0.56809   0.79565   0.00000  Uiso   1.00
C533   C     0.29565   0.56809   0.29565   0.00000  Uiso   1.00
C534   C     0.79565   0.93191   0.70435   0.00000  Uiso   1.00
C535   C     0.79565   0.43191   0.20435   0.00000  Uiso   1.00
C536   C     0.29565   0.93191   0.20435   0.00000  Uiso   1.00
C537   C     0.20435   0.06809   0.70435   0.00000  Uiso   1.00
C538   C     0.20435   0.56809   0.20435   0.00000  Uiso   1.00
C539   C     0.29565   0.20435   0.93191   0.00000  Uiso   1.00
C540   C     0.29565   0.70435   0.43191   0.00000  Uiso   1.00
C541   C     0.29565   0.79565   0.06809   0.00000  Uiso   1.00
C542   C     0.29565   0.29565   0.56809   0.00000  Uiso   1.00
C543   C     0.70435   0.79565   0.93191   0.00000  Uiso   1.00
C544   C     0.70435   0.29565   0.43191   0.00000  Uiso   1.00
C545   C     0.20435   0.29565   0.93191   0.00000  Uiso   1.00
C546   C     0.70435   0.20435   0.06809   0.00000  Uiso   1.00
C547   C     0.70435   0.70435   0.56809   0.00000  Uiso   1.00
C548   C     0.20435   0.20435   0.56809   0.00000  Uiso   1.00
C549   C     0.93191   0.29565   0.20435   0.00000  Uiso   1.00
C550   C     0.43191   0.29565   0.70435   0.00000  Uiso   1.00
C551   C     0.06809   0.29565   0.79565   0.00000  Uiso   1.00
C552   C     0.56809   0.29565   0.29565   0.00000  Uiso   1.00
C553   C     0.93191   0.70435   0.79565   0.00000  Uiso   1.00
C554   C     0.93191   0.20435   0.29565   0.00000  Uiso   1.00
C555   C     0.43191   0.70435   0.29565   0.00000  Uiso   1.00
C556   C     0.06809   0.70435   0.20435   0.00000  Uiso   1.00
C557   C     0.56809   0.70435   0.70435   0.00000  Uiso   1.00
C558   C     0.56809   0.20435   0.20435   0.00000  Uiso   1.00
C559   C     0.93191   0.20435   0.70435   0.00000  Uiso   1.00
C560   C     0.43191   0.20435   0.20435   0.00000  Uiso   1.00
C561   C     0.06809   0.79565   0.70435   0.00000  Uiso   1.00
C562   C     0.06809   0.29565   0.20435   0.00000  Uiso   1.00
C563   C     0.56809   0.79565   0.20435   0.00000  Uiso   1.00
C564   C     0.93191   0.79565   0.29565   0.00000  Uiso   1.00
C565   C     0.43191   0.79565   0.79565   0.00000  Uiso   1.00
C566   C     0.43191   0.29565   0.29565   0.00000  Uiso   1.00
C567   C     0.06809   0.20435   0.29565   0.00000  Uiso   1.00
C568   C     0.56809   0.20435   0.79565   0.00000  Uiso   1.00
C569   C     0.20435   0.29565   0.06809   0.00000  Uiso   1.00
C570   C     0.20435   0.79565   0.56809   0.00000  Uiso   1.00
C571   C     0.79565   0.29565   0.93191   0.00000  Uiso   1.00
C572   C     0.79565   0.79565   0.43191   0.00000  Uiso   1.00
C573   C     0.29565   0.29565   0.43191   0.00000  Uiso   1.00
C574   C     0.79565   0.70435   0.06809   0.00000  Uiso   1.00
C575   C     0.79565   0.20435   0.56809   0.00000  Uiso   1.00
C576   C     0.29565   0.20435   0.06809   0.00000  Uiso   1.00
C577   C     0.20435   0.70435   0.93191   0.00000  Uiso   1.00
C578   C     0.20435   0.20435   0.43191   0.00000  Uiso   1.00
C579   C     0.29565   0.93191   0.79565   0.00000  Uiso   1.00
C580   C     0.29565   0.43191   0.29565   0.00000  Uiso   1.00
C581   C     0.29565   0.06809   0.20435   0.00000  Uiso   1.00
C582   C     0.29565   0.56809   0.70435   0.00000  Uiso   1.00
C583   C     0.70435   0.93191   0.20435   0.00000  Uiso   1.00
C584   C     0.70435   0.43191   0.70435   0.00000  Uiso   1.00
C585   C     0.20435   0.43191   0.20435   0.00000  Uiso   1.00
C586   C     0.70435   0.06809   0.79565   0.00000  Uiso   1.00
C587   C     0.70435   0.56809   0.29565   0.00000  Uiso   1.00
C588   C     0.20435   0.06809   0.29565   0.00000  Uiso   1.00
C589   C     0.79565   0.06809   0.70435   0.00000  Uiso   1.00
C590   C     0.79565   0.56809   0.20435   0.00000  Uiso   1.00
C591   C     0.20435   0.93191   0.70435   0.00000  Uiso   1.00
C592   C     0.20435   0.56809   0.79565   0.00000  Uiso   1.00
C593   C     0.79565   0.93191   0.29565   0.00000  Uiso   1.00
C594   C     0.79565   0.43191   0.79565   0.00000  Uiso   1.00
C595   C     0.70435   0.79565   0.06809   0.00000  Uiso   1.00
C596   C     0.70435   0.29565   0.56809   0.00000  Uiso   1.00
C597   C     0.70435   0.20435   0.93191   0.00000  Uiso   1.00
C598   C     0.70435   0.70435   0.43191   0.00000  Uiso   1.00
C599   C     0.29565   0.70435   0.56809   0.00000  Uiso   1.00
C600   C     0.29565   0.79565   0.93191   0.00000  Uiso   1.00
C601   C     0.06809   0.70435   0.79565   0.00000  Uiso   1.00
C602   C     0.56809   0.70435   0.29565   0.00000  Uiso   1.00
C603   C     0.93191   0.70435   0.20435   0.00000  Uiso   1.00
C604   C     0.43191   0.70435   0.70435   0.00000  Uiso   1.00
C605   C     0.56809   0.29565   0.70435   0.00000  Uiso   1.00
C606   C     0.93191   0.29565   0.79565   0.00000  Uiso   1.00
C607   C     0.06809   0.79565   0.29565   0.00000  Uiso   1.00
C608   C     0.56809   0.79565   0.79565   0.00000  Uiso   1.00
C609   C     0.43191   0.20435   0.79565   0.00000  Uiso   1.00
C610   C     0.06809   0.20435   0.70435   0.00000  Uiso   1.00
C611   C     0.93191   0.79565   0.70435   0.00000  Uiso   1.00
C612   C     0.43191   0.79565   0.20435   0.00000  Uiso   1.00
C613   C     0.79565   0.70435   0.93191   0.00000  Uiso   1.00
C614   C     0.79565   0.20435   0.43191   0.00000  Uiso   1.00
C615   C     0.20435   0.70435   0.06809   0.00000  Uiso   1.00
C616   C     0.20435   0.79565   0.43191   0.00000  Uiso   1.00
C617   C     0.79565   0.29565   0.06809   0.00000  Uiso   1.00
C618   C     0.79565   0.79565   0.56809   0.00000  Uiso   1.00
C619   C     0.70435   0.06809   0.20435   0.00000  Uiso   1.00
C620   C     0.70435   0.56809   0.70435   0.00000  Uiso   1.00
C621   C     0.70435   0.93191   0.79565   0.00000  Uiso   1.00
C622   C     0.70435   0.43191   0.29565   0.00000  Uiso   1.00
C623   C     0.29565   0.06809   0.79565   0.00000  Uiso   1.00
C624   C     0.29565   0.43191   0.70435   0.00000  Uiso   1.00
loop_
_geom_bond_atom_site_label_1
_geom_bond_atom_site_label_2
_geom_bond_distance
_geom_bond_site_symmetry_2
_ccdc_geom_bond_type
O1     Zn481   1.849   1_565 S
O1     C529    1.274   .     A
O2     Zn482   1.849   .     S
O2     C530    1.274   .     A
O3     Zn483   1.849   1_565 S
O3     C621    1.274   .     A
O4     Zn484   1.849   .     S
O4     C622    1.274   .     A
O5     Zn485   1.849   .     S
O5     C531    1.274   .     A
O6     Zn486   1.849   .     S
O6     C532    1.274   .     A
O7     Zn487   1.849   .     S
O7     C623    1.274   .     A
O8     Zn488   1.849   .     S
O8     C533    1.274   .     A
O9     Zn489   1.849   1_565 S
O9     C534    1.274   .     A
O10    Zn490   1.849   .     S
O10    C535    1.274   .     A
O11    Zn491   1.849   1_565 S
O11    C536    1.274   .     A
O12    Zn492   1.849   .     S
O12    C624    1.274   .     A
O13    Zn493   1.849   .     S
O13    C537    1.274   .     A
O14    Zn494   1.849   .     S
O14    C538    1.274   .     A
O15    Zn495   1.849   .     S
O15    C619    1.274   .     A
O16    Zn496   1.849   .     S
O16    C620    1.274   .     A
O17    Zn497   1.849   1_556 S
O17    C539    1.274   .     A
O18    Zn498   1.849   .     S
O18    C540    1.274   .     A
O19    Zn499   1.849   .     S
O19    C614    1.274   .     A
O20    Zn500   1.849   1_556 S
O20    C613    1.274   .     A
O21    Zn501   1.849   .     S
O21    C541    1.274   .     A
O22    Zn502   1.849   .     S
O22    C542    1.274   .     A
O23    Zn503   1.849   .     S
O23    C618    1.274   .     A
O24    Zn504   1.849   .     S
O24    C617    1.274   .     A
O25    Zn505   1.849   1_556 S
O25    C543    1.274   .     A
O26    Zn506   1.849   .     S
O26    C544    1.274   .     A
O27    Zn507   1.849   .     S
O27    C616    1.274   .     A
O28    Zn508   1.849   1_556 S
O28    C545    1.274   .     A
O29    Zn509   1.849   .     S
O29    C546    1.274   .     A
O30    Zn510   1.849   .     S
O30    C547    1.274   .     A
O31    Zn511   1.849   .     S
O31    C548    1.274   .     A
O32    Zn512   1.849   .     S
O32    C615    1.274   .     A
O33    Zn513   1.849   1_655 S
O33    C549    1.274   .     A
O34    Zn514   1.849   1_655 S
O34    C611    1.274   .     A
O35    Zn515   1.849   .     S
O35    C550    1.274   .     A
O36    Zn516   1.849   .     S
O36    C612    1.274   .     A
O37    Zn517   1.849   .     S
O37    C551    1.274   .     A
O38    Zn518   1.849   .     S
O38    C607    1.274   .     A
O39    Zn519   1.849   .     S
O39    C552    1.274   .     A
O40    Zn520   1.849   .     S
O40    C608    1.274   .     A
O41    Zn521   1.849   1_655 S
O41    C553    1.274   .     A
O42    Zn522   1.849   1_655 S
O42    C554    1.274   .     A
O43    Zn523   1.849   .     S
O43    C555    1.274   .     A
O44    Zn524   1.849   .     S
O44    C609    1.274   .     A
O45    Zn525   1.849   .     S
O45    C556    1.274   .     A
O46    Zn526   1.849   .     S
O46    C610    1.274   .     A
O47    Zn527   1.849   .     S
O47    C557    1.274   .     A
O48    Zn528   1.849   .     S
O48    C558    1.274   .     A
O49    Zn517   1.849   1_655 S
O49    C559    1.274   .     A
O50    Zn518   1.849   1_655 S
O50    C603    1.274   .     A
O51    Zn519   1.849   .     S
O51    C560    1.274   .     A
O52    Zn520   1.849   .     S
O52    C604    1.274   .     A
O53    Zn521   1.849   .     S
O53    C561    1.274   .     A
O54    Zn522   1.849   .     S
O54    C562    1.274   .     A
O55    Zn523   1.849   .     S
O55    C563    1.274   .     A
O56    Zn524   1.849   .     S
O56    C605    1.274   .     A
O57    Zn525   1.849   1_655 S
O57    C564    1.274   .     A
O58    Zn526   1.849   1_655 S
O58    C606    1.274   .     A
O59    Zn527   1.849   .     S
O59    C565    1.274   .     A
O60    Zn528   1.849   .     S
O60    C566    1.274   .     A
O61    Zn513   1.849   .     S
O61    C567    1.274   .     A
O62    Zn514   1.849   .     S
O62    C601    1.274   .     A
O63    Zn515   1.849   .     S
O63    C568    1.274   .     A
O64    Zn516   1.849   .     S
O64    C602    1.274   .     A
O65    Zn497   1.849   .     S
O65    C569    1.274   .     A
O66    Zn498   1.849   .     S
O66    C570    1.274   .     A
O67    Zn499   1.849   .     S
O67    C596    1.274   .     A
O68    Zn500   1.849   .     S
O68    C595    1.274   .     A
O69    Zn509   1.849   1_556 S
O69    C571    1.274   .     A
O70    Zn510   1.849   .     S
O70    C572    1.274   .     A
O71    Zn511   1.849   .     S
O71    C573    1.274   .     A
O72    Zn512   1.849   1_556 S
O72    C600    1.274   .     A
O73    Zn505   1.849   .     S
O73    C574    1.274   .     A
O74    Zn506   1.849   .     S
O74    C575    1.274   .     A
O75    Zn507   1.849   .     S
O75    C599    1.274   .     A
O76    Zn508   1.849   .     S
O76    C576    1.274   .     A
O77    Zn501   1.849   1_556 S
O77    C577    1.274   .     A
O78    Zn502   1.849   .     S
O78    C578    1.274   .     A
O79    Zn503   1.849   .     S
O79    C598    1.274   .     A
O80    Zn504   1.849   1_556 S
O80    C597    1.274   .     A
O81    Zn493   1.849   1_565 S
O81    C579    1.274   .     A
O82    Zn494   1.849   .     S
O82    C580    1.274   .     A
O83    Zn495   1.849   1_565 S
O83    C593    1.274   .     A
O84    Zn496   1.849   .     S
O84    C594    1.274   .     A
O85    Zn481   1.849   .     S
O85    C581    1.274   .     A
O86    Zn482   1.849   .     S
O86    C582    1.274   .     A
O87    Zn483   1.849   .     S
O87    C589    1.274   .     A
O88    Zn484   1.849   .     S
O88    C590    1.274   .     A
O89    Zn485   1.849   1_565 S
O89    C583    1.274   .     A
O90    Zn486   1.849   .     S
O90    C584    1.274   .     A
O91    Zn487   1.849   1_565 S
O91    C591    1.274   .     A
O92    Zn488   1.849   .     S
O92    C585    1.274   .     A
O93    Zn489   1.849   .     S
O93    C586    1.274   .     A
O94    Zn490   1.849   .     S
O94    C587    1.274   .     A
O95    Zn491   1.849   .     S
O95    C588    1.274   .     A
O96    Zn492   1.849   .     S
O96    C592    1.274   .     A
O97    Zn489   1.849   .     S
O97    C589    1.274   .     A
O98    Zn490   1.849   .     S
O98    C590    1.274   .     A
O99    Zn491   1.849   .     S
O99    C581    1.274   .     A
O100   Zn492   1.849   .     S
O100   C582    1.274   .     A
O101   Zn493   1.849   1_565 S
O101   C591    1.274   .     A
O102   Zn494   1.849   .     S
O102   C585    1.274   .     A
O103   Zn495   1.849   1_565 S
O103   C583    1.274   .     A
O104   Zn496   1.849   .     S
O104   C584    1.274   .     A
O105   Zn481   1.849   .     S
O105   C588    1.274   .     A
O106   Zn482   1.849   .     S
O106   C592    1.274   .     A
O107   Zn483   1.849   .     S
O107   C586    1.274   .     A
O108   Zn484   1.849   .     S
O108   C587    1.274   .     A
O109   Zn485   1.849   1_565 S
O109   C593    1.274   .     A
O110   Zn486   1.849   .     S
O110   C594    1.274   .     A
O111   Zn487   1.849   1_565 S
O111   C579    1.274   .     A
O112   Zn488   1.849   .     S
O112   C580    1.274   .     A
O113   Zn505   1.849   .     S
O113   C595    1.274   .     A
O114   Zn506   1.849   .     S
O114   C596    1.274   .     A
O115   Zn507   1.849   .     S
O115   C570    1.274   .     A
O116   Zn508   1.849   .     S
O116   C569    1.274   .     A
O117   Zn509   1.849   1_556 S
O117   C597    1.274   .     A
O118   Zn510   1.849   .     S
O118   C598    1.274   .     A
O119   Zn511   1.849   .     S
O119   C578    1.274   .     A
O120   Zn512   1.849   1_556 S
O120   C577    1.274   .     A
O121   Zn497   1.849   .     S
O121   C576    1.274   .     A
O122   Zn498   1.849   .     S
O122   C599    1.274   .     A
O123   Zn499   1.849   .     S
O123   C575    1.274   .     A
O124   Zn500   1.849   .     S
O124   C574    1.274   .     A
O125   Zn501   1.849   1_556 S
O125   C600    1.274   .     A
O126   Zn502   1.849   .     S
O126   C573    1.274   .     A
O127   Zn503   1.849   .     S
O127   C572    1.274   .     A
O128   Zn504   1.849   1_556 S
O128   C571    1.274   .     A
O129   Zn521   1.849   .     S
O129   C601    1.274   .     A
O130   Zn522   1.849   .     S
O130   C567    1.274   .     A
O131   Zn523   1.849   .     S
O131   C602    1.274   .     A
O132   Zn524   1.849   .     S
O132   C568    1.274   .     A
O133   Zn525   1.849   1_655 S
O133   C603    1.274   .     A
O134   Zn526   1.849   1_655 S
O134   C559    1.274   .     A
O135   Zn527   1.849   .     S
O135   C604    1.274   .     A
O136   Zn528   1.849   .     S
O136   C560    1.274   .     A
O137   Zn513   1.849   .     S
O137   C562    1.274   .     A
O138   Zn514   1.849   .     S
O138   C561    1.274   .     A
O139   Zn515   1.849   .     S
O139   C605    1.274   .     A
O140   Zn516   1.849   .     S
O140   C563    1.274   .     A
O141   Zn517   1.849   1_655 S
O141   C606    1.274   .     A
O142   Zn518   1.849   1_655 S
O142   C564    1.274   .     A
O143   Zn519   1.849   .     S
O143   C566    1.274   .     A
O144   Zn520   1.849   .     S
O144   C565    1.274   .     A
O145   Zn525   1.849   .     S
O145   C607    1.274   .     A
O146   Zn526   1.849   .     S
O146   C551    1.274   .     A
O147   Zn527   1.849   .     S
O147   C608    1.274   .     A
O148   Zn528   1.849   .     S
O148   C552    1.274   .     A
O149   Zn513   1.849   1_655 S
O149   C554    1.274   .     A
O150   Zn514   1.849   1_655 S
O150   C553    1.274   .     A
O151   Zn515   1.849   .     S
O151   C609    1.274   .     A
O152   Zn516   1.849   .     S
O152   C555    1.274   .     A
O153   Zn517   1.849   .     S
O153   C610    1.274   .     A
O154   Zn518   1.849   .     S
O154   C556    1.274   .     A
O155   Zn519   1.849   .     S
O155   C558    1.274   .     A
O156   Zn520   1.849   .     S
O156   C557    1.274   .     A
O157   Zn521   1.849   1_655 S
O157   C611    1.274   .     A
O158   Zn522   1.849   1_655 S
O158   C549    1.274   .     A
O159   Zn523   1.849   .     S
O159   C612    1.274   .     A
O160   Zn524   1.849   .     S
O160   C550    1.274   .     A
O161   Zn505   1.849   1_556 S
O161   C613    1.274   .     A
O162   Zn506   1.849   .     S
O162   C614    1.274   .     A
O163   Zn507   1.849   .     S
O163   C540    1.274   .     A
O164   Zn508   1.849   1_556 S
O164   C539    1.274   .     A
O165   Zn501   1.849   .     S
O165   C615    1.274   .     A
O166   Zn502   1.849   .     S
O166   C548    1.274   .     A
O167   Zn503   1.849   .     S
O167   C547    1.274   .     A
O168   Zn504   1.849   .     S
O168   C546    1.274   .     A
O169   Zn497   1.849   1_556 S
O169   C545    1.274   .     A
O170   Zn498   1.849   .     S
O170   C616    1.274   .     A
O171   Zn499   1.849   .     S
O171   C544    1.274   .     A
O172   Zn500   1.849   1_556 S
O172   C543    1.274   .     A
O173   Zn509   1.849   .     S
O173   C617    1.274   .     A
O174   Zn510   1.849   .     S
O174   C618    1.274   .     A
O175   Zn511   1.849   .     S
O175   C542    1.274   .     A
O176   Zn512   1.849   .     S
O176   C541    1.274   .     A
O177   Zn485   1.849   .     S
O177   C619    1.274   .     A
O178   Zn486   1.849   .     S
O178   C620    1.274   .     A
O179   Zn487   1.849   .     S
O179   C537    1.274   .     A
O180   Zn488   1.849   .     S
O180   C538    1.274   .     A
O181   Zn489   1.849   1_565 S
O181   C621    1.274   .     A
O182   Zn490   1.849   .     S
O182   C622    1.274   .     A
O183   Zn491   1.849   1_565 S
O183   C529    1.274   .     A
O184   Zn492   1.849   .     S
O184   C530    1.274   .     A
O185   Zn493   1.849   .     S
O185   C623    1.274   .     A
O186   Zn494   1.849   .     S
O186   C533    1.274   .     A
O187   Zn495   1.849   .     S
O187   C531    1.274   .     A
O188   Zn496   1.849   .     S
O188   C532    1.274   .     A
O189   Zn481   1.849   1_565 S
O189   C536    1.274   .     A
O190   Zn482   1.849   .     S
O190   C624    1.274   .     A
O191   Zn483   1.849   1_565 S
O191   C534    1.274   .     A
O192   Zn484   1.849   .     S
O192   C535    1.274   .     A
C193   C289    1.420   .     A
C193   C353    1.420   .     A
C193   C566    1.521   .     S
C194   C291    1.420   .     A
C194   C355    1.420   .     A
C194   C565    1.521   .     S
C195   C293    1.420   .     A
C195   C357    1.420   .     A
C195   C606    1.521   .     S
C196   C295    1.420   .     A
C196   C359    1.420   .     A
C196   C564    1.521   .     S
C197   C297    1.420   .     A
C197   C377    1.420   .     A
C197   C602    1.521   .     S
C198   C299    1.420   .     A
C198   C379    1.420   .     A
C198   C568    1.521   .     S
C199   C301    1.420   .     A
C199   C381    1.420   .     A
C199   C601    1.521   .     S
C200   C303    1.420   .     A
C200   C383    1.420   .     A
C200   C567    1.521   .     S
C201   C305    1.420   .     A
C201   C361    1.420   .     A
C201   C605    1.521   .     S
C202   C307    1.420   .     A
C202   C363    1.420   .     A
C202   C563    1.521   .     S
C203   C309    1.420   .     A
C203   C365    1.420   .     A
C203   C562    1.521   .     S
C204   C311    1.420   .     A
C204   C367    1.420   .     A
C204   C561    1.521   .     S
C205   C313    1.420   .     A
C205   C369    1.420   .     A
C205   C604    1.521   .     S
C206   C315    1.420   .     A
C206   C371    1.420   .     A
C206   C560    1.521   .     S
C207   C317    1.420   .     A
C207   C373    1.420   .     A
C207   C603    1.521   .     S
C208   C319    1.420   .     A
C208   C375    1.420   .     A
C208   C559    1.521   .     S
C209   C321    1.420   .     A
C209   C289    1.420   .     A
C209   C580    1.521   .     S
C210   C323    1.420   .     A
C210   C291    1.420   .     A
C210   C579    1.521   .     S
C211   C325    1.420   .     A
C211   C293    1.420   .     A
C211   C594    1.521   .     S
C212   C327    1.420   .     A
C212   C295    1.420   .     A
C212   C593    1.521   .     S
C213   C329    1.420   .     A
C213   C313    1.420   .     A
C213   C582    1.521   .     S
C214   C331    1.420   .     A
C214   C315    1.420   .     A
C214   C581    1.521   .     S
C215   C333    1.420   .     A
C215   C317    1.420   .     A
C215   C590    1.521   .     S
C216   C335    1.420   .     A
C216   C319    1.420   .     A
C216   C589    1.521   .     S
C217   C337    1.420   .     A
C217   C297    1.420   .     A
C217   C587    1.521   .     S
C218   C339    1.420   .     A
C218   C299    1.420   .     A
C218   C586    1.521   .     S
C219   C341    1.420   .     A
C219   C301    1.420   .     A
C219   C592    1.521   .     S
C220   C343    1.420   .     A
C220   C303    1.420   .     A
C220   C588    1.521   .     S
C221   C345    1.420   .     A
C221   C305    1.420   .     A
C221   C584    1.521   .     S
C222   C347    1.420   .     A
C222   C307    1.420   .     A
C222   C583    1.521   .     S
C223   C349    1.420   .     A
C223   C309    1.420   .     A
C223   C585    1.521   .     S
C224   C351    1.420   .     A
C224   C311    1.420   .     A
C224   C591    1.521   .     S
C225   C353    1.420   .     A
C225   C321    1.420   .     A
C225   C573    1.521   .     S
C226   C355    1.420   .     A
C226   C323    1.420   .     A
C226   C600    1.521   .     S
C227   C357    1.420   .     A
C227   C325    1.420   .     A
C227   C571    1.521   .     S
C228   C359    1.420   .     A
C228   C327    1.420   .     A
C228   C572    1.521   .     S
C229   C361    1.420   .     A
C229   C345    1.420   .     A
C229   C596    1.521   .     S
C230   C363    1.420   .     A
C230   C347    1.420   .     A
C230   C595    1.521   .     S
C231   C365    1.420   .     A
C231   C349    1.420   .     A
C231   C569    1.521   .     S
C232   C367    1.420   .     A
C232   C351    1.420   .     A
C232   C570    1.521   .     S
C233   C369    1.420   .     A
C233   C329    1.420   .     A
C233   C599    1.521   .     S
C234   C371    1.420   .     A
C234   C331    1.420   .     A
C234   C576    1.521   .     S
C235   C373    1.420   .     A
C235   C333    1.420   .     A
C235   C574    1.521   .     S
C236   C375    1.420   .     A
C236   C335    1.420   .     A
C236   C575    1.521   .     S
C237   C377    1.420   .     A
C237   C337    1.420   .     A
C237   C598    1.521   .     S
C238   C379    1.420   .     A
C238   C339    1.420   .     A
C238   C597    1.521   .     S
C239   C381    1.420   .     A
C239   C341    1.420   .     A
C239   C577    1.521   .     S
C240   C383    1.420   .     A
C240   C343    1.420   .     A
C240   C578    1.521   .     S
C241   C385    1.420   .     A
C241   C449    1.420   .     A
C241   C624    1.521   .     S
C242   C387    1.420   .     A
C242   C451    1.420   .     A
C242   C536    1.521   .     S
C243   C389    1.420   .     A
C243   C453    1.420   .     A
C243   C535    1.521   .     S
C244   C391    1.420   .     A
C244   C455    1.420   .     A
C244   C534    1.521   .     S
C245   C393    1.420   .     A
C245   C473    1.420   .     A
C245   C620    1.521   .     S
C246   C395    1.420   .     A
C246   C475    1.420   .     A
C246   C619    1.521   .     S
C247   C397    1.420   .     A
C247   C477    1.420   .     A
C247   C538    1.521   .     S
C248   C399    1.420   .     A
C248   C479    1.420   .     A
C248   C537    1.521   .     S
C249   C401    1.420   .     A
C249   C457    1.420   .     A
C249   C533    1.521   .     S
C250   C403    1.420   .     A
C250   C459    1.420   .     A
C250   C623    1.521   .     S
C251   C405    1.420   .     A
C251   C461    1.420   .     A
C251   C532    1.521   .     S
C252   C407    1.420   .     A
C252   C463    1.420   .     A
C252   C531    1.521   .     S
C253   C409    1.420   .     A
C253   C465    1.420   .     A
C253   C622    1.521   .     S
C254   C411    1.420   .     A
C254   C467    1.420   .     A
C254   C621    1.521   .     S
C255   C413    1.420   .     A
C255   C469    1.420   .     A
C255   C530    1.521   .     S
C256   C415    1.420   .     A
C256   C471    1.420   .     A
C256   C529    1.521   .     S
C257   C417    1.420   .     A
C257   C385    1.420   .     A
C257   C550    1.521   .     S
C258   C419    1.420   .     A
C258   C387    1.420   .     A
C258   C612    1.521   .     S
C259   C421    1.420   .     A
C259   C389    1.420   .     A
C259   C549    1.521   .     S
C260   C423    1.420   .     A
C260   C391    1.420   .     A
C260   C611    1.521   .     S
C261   C425    1.420   .     A
C261   C409    1.420   .     A
C261   C552    1.521   .     S
C262   C427    1.420   .     A
C262   C411    1.420   .     A
C262   C608    1.521   .     S
C263   C429    1.420   .     A
C263   C413    1.420   .     A
C263   C551    1.521   .     S
C264   C431    1.420   .     A
C264   C415    1.420   .     A
C264   C607    1.521   .     S
C265   C433    1.420   .     A
C265   C393    1.420   .     A
C265   C557    1.521   .     S
C266   C435    1.420   .     A
C266   C395    1.420   .     A
C266   C558    1.521   .     S
C267   C437    1.420   .     A
C267   C397    1.420   .     A
C267   C556    1.521   .     S
C268   C439    1.420   .     A
C268   C399    1.420   .     A
C268   C610    1.521   .     S
C269   C441    1.420   .     A
C269   C401    1.420   .     A
C269   C555    1.521   .     S
C270   C443    1.420   .     A
C270   C403    1.420   .     A
C270   C609    1.521   .     S
C271   C445    1.420   .     A
C271   C405    1.420   .     A
C271   C553    1.521   .     S
C272   C447    1.420   .     A
C272   C407    1.420   .     A
C272   C554    1.521   .     S
C273   C449    1.420   .     A
C273   C417    1.420   .     A
C273   C542    1.521   .     S
C274   C451    1.420   .     A
C274   C419    1.420   .     A
C274   C541    1.521   .     S
C275   C453    1.420   .     A
C275   C421    1.420   .     A
C275   C617    1.521   .     S
C276   C455    1.420   .     A
C276   C423    1.420   .     A
C276   C618    1.521   .     S
C277   C457    1.420   .     A
C277   C441    1.420   .     A
C277   C540    1.521   .     S
C278   C459    1.420   .     A
C278   C443    1.420   .     A
C278   C539    1.521   .     S
C279   C461    1.420   .     A
C279   C445    1.420   .     A
C279   C613    1.521   .     S
C280   C463    1.420   .     A
C280   C447    1.420   .     A
C280   C614    1.521   .     S
C281   C465    1.420   .     A
C281   C425    1.420   .     A
C281   C544    1.521   .     S
C282   C467    1.420   .     A
C282   C427    1.420   .     A
C282   C543    1.521   .     S
C283   C469    1.420   .     A
C283   C429    1.420   .     A
C283   C545    1.521   .     S
C284   C471    1.420   .     A
C284   C431    1.420   .     A
C284   C616    1.521   .     S
C285   C473    1.420   .     A
C285   C433    1.420   .     A
C285   C547    1.521   .     S
C286   C475    1.420   .     A
C286   C435    1.420   .     A
C286   C546    1.521   .     S
C287   C477    1.420   .     A
C287   C437    1.420   .     A
C287   C615    1.521   .     S
C288   C479    1.420   .     A
C288   C439    1.420   .     A
C288   C548    1.521   .     S
C289   H290    1.083   .     S
C291   H292    1.083   .     S
C293   H294    1.083   .     S
C295   H296    1.083   .     S
C297   H298    1.083   .     S
C299   H300    1.083   .     S
C301   H302    1.083   .     S
C303   H304    1.083   .     S
C305   H306    1.083   .     S
C307   H308    1.083   .     S
C309   H310    1.083   .     S
C311   H312    1.083   .     S
C313   H314    1.083   .     S
C315   H316    1.083   .     S
C317   H318    1.083   .     S
C319   H320    1.083   .     S
C321   H322    1.083   .     S
C323   H324    1.083   .     S
C325   H326    1.083   .     S
C327   H328    1.083   .     S
C329   H330    1.083   .     S
C331   H332    1.083   .     S
C333   H334    1.083   .     S
C335   H336    1.083   .     S
C337   H338    1.083   .     S
C339   H340    1.083   .     S
C341   H342    1.083   .     S
C343   H344    1.083   .     S
C345   H346    1.083   .     S
C347   H348    1.083   .     S
C349   H350    1.083   .     S
C351   H352    1.083   .     S
C353   H354    1.083   .     S
C355   H356    1.083   .     S
C357   H358    1.083   .     S
C359   H360    1.083   .     S
C361   H362    1.083   .     S
C363   H364    1.083   .     S
C365   H366    1.083   .     S
C367   H368    1.083   .     S
C369   H370    1.083   .     S
C371   H372    1.083   .     S
C373   H374    1.083   .     S
C375   H376    1.083   .     S
C377   H378    1.083   .     S
C379   H380    1.083   .     S
C381   H382    1.083   .     S
C383   H384    1.083   .     S
C385   H386    1.083   .     S
C387   H388    1.083   .     S
C389   H390    1.083   .     S
C391   H392    1.083   .     S
C393   H394    1.083   .     S
C395   H396    1.083   .     S
C397   H398    1.083   .     S
C399   H400    1.083   .     S
C401   H402    1.083   .     S
C403   H404    1.083   .     S
C405   H406    1.083   .     S
C407   H408    1.083   .     S
C409   H410    1.083   .     S
C411   H412    1.083   .     S
C413   H414    1.083   .     S
C415   H416    1.083   .     S
C417   H418    1.083   .     S
C419   H420    1.083   .     S
C421   H422    1.083   .     S
C423   H424    1.083   .     S
C425   H426    1.083   .     S
C427   H428    1.083   .     S
C429   H430    1.083   .     S
C431   H432    1.083   .     S
C433   H434    1.083   .     S
C435   H436    1.083   .     S
C437   H438    1.083   .     S
C439   H440    1.083   .     S
C441   H442    1.083   .     S
C443   H444    1.083   .     S
C445   H446    1.083   .     S
C447   H448    1.083   .     S
C449   H450    1.083   .     S
C451   H452    1.083   .     S
C453   H454    1.083   .     S
C455   H456    1.083   .     S
C457   H458    1.083   .     S
C459   H460    1.083   .     S
C461   H462    1.083   .     S
C463   H464    1.083   .     S
C465   H466    1.083   .     S
C467   H468    1.083   .     S
C469   H470    1.083   .     S
C471   H472    1.083   .     S
C473   H474    1.083   .     S
C475   H476    1.083   .     S
C477   H478    1.083   .     S
C479   H480    1.083   .     S
Zn481  O1      1.849   1_545 S
Zn481  O189    1.849   1_545 S
Zn481  Zn491   2.615   .     S
Zn482  Zn492   2.615   .     S
Zn483  O3      1.849   1_545 S
Zn483  O191    1.849   1_545 S
Zn483  Zn489   2.615   .     S
Zn484  Zn490   2.615   .     S
Zn485  O89     1.849   1_545 S
Zn485  O109    1.849   1_545 S
Zn485  Zn495   2.615   .     S
Zn486  Zn496   2.615   .     S
Zn487  O91     1.849   1_545 S
Zn487  O111    1.849   1_545 S
Zn487  Zn493   2.615   .     S
Zn488  Zn494   2.615   .     S
Zn489  O9      1.849   1_545 S
Zn489  O181    1.849   1_545 S
Zn491  O11     1.849   1_545 S
Zn491  O183    1.849   1_545 S
Zn493  O81     1.849   1_545 S
Zn493  O101    1.849   1_545 S
Zn495  O83     1.849   1_545 S
Zn495  O103    1.849   1_545 S
Zn497  O17     1.849   1_554 S
Zn497  O169    1.849   1_554 S
Zn497  Zn508   2.615   .     S
Zn498  Zn507   2.615   .     S
Zn499  Zn506   2.615   .     S
Zn500  O20     1.849   1_554 S
Zn500  O172    1.849   1_554 S
Zn500  Zn505   2.615   .     S
Zn501  O77     1.849   1_554 S
Zn501  O125    1.849   1_554 S
Zn501  Zn512   2.615   .     S
Zn502  Zn511   2.615   .     S
Zn503  Zn510   2.615   .     S
Zn504  O80     1.849   1_554 S
Zn504  O128    1.849   1_554 S
Zn504  Zn509   2.615   .     S
Zn505  O25     1.849   1_554 S
Zn505  O161    1.849   1_554 S
Zn508  O28     1.849   1_554 S
Zn508  O164    1.849   1_554 S
Zn509  O69     1.849   1_554 S
Zn509  O117    1.849   1_554 S
Zn512  O72     1.849   1_554 S
Zn512  O120    1.849   1_554 S
Zn513  O33     1.849   1_455 S
Zn513  O149    1.849   1_455 S
Zn513  Zn522   2.615   .     S
Zn514  O34     1.849   1_455 S
Zn514  O150    1.849   1_455 S
Zn514  Zn521   2.615   .     S
Zn515  Zn524   2.615   .     S
Zn516  Zn523   2.615   .     S
Zn517  O49     1.849   1_455 S
Zn517  O141    1.849   1_455 S
Zn517  Zn526   2.615   .     S
Zn518  O50     1.849   1_455 S
Zn518  O142    1.849   1_455 S
Zn518  Zn525   2.615   .     S
Zn519  Zn528   2.615   .     S
Zn520  Zn527   2.615   .     S
Zn521  O41     1.849   1_455 S
Zn521  O157    1.849   1_455 S
Zn522  O42     1.849   1_455 S
Zn522  O158    1.849   1_455 S
Zn525  O57     1.849   1_455 S
Zn525  O133    1.849   1_455 S
Zn526  O58     1.849   1_455 S
Zn526  O134    1.849   1_455 S
