data_image0
_cell_length_a       24.6165
_cell_length_b       35.8569
_cell_length_c       30.2783
_cell_angle_alpha    90
_cell_angle_beta     90
_cell_angle_gamma    90

_symmetry_space_group_name_H-M    "P 1"
_symmetry_int_tables_number       1

loop_
  _symmetry_equiv_pos_as_xyz
  'x, y, z'

loop_
  _atom_site_label
  _atom_site_occupancy
  _atom_site_fract_x
  _atom_site_fract_y
  _atom_site_fract_z
  _atom_site_thermal_displace_type
  _atom_site_B_iso_or_equiv
  _atom_site_type_symbol
  C1       1.0000 0.21083  0.92792  0.89910  Biso   1.000  C
  C2       1.0000 0.23253  0.96192  0.87570  Biso   1.000  C
  C3       1.0000 0.19741  0.98545  0.85339  Biso   1.000  C
  H1       1.0000 0.16020  0.98080  0.85360  Biso   1.000  H
  C4       1.0000 0.21785  0.01585  0.83082  Biso   1.000  C
  H2       1.0000 0.19440  0.03120  0.81500  Biso   1.000  H
  C5       1.0000 0.27234  0.02359  0.83150  Biso   1.000  C
  C6       1.0000 0.30754  0.00034  0.85309  Biso   1.000  C
  H3       1.0000 0.34470  0.00500  0.85260  Biso   1.000  H
  C7       1.0000 0.28671  0.96913  0.87615  Biso   1.000  C
  H4       1.0000 0.31010  0.95350  0.89160  Biso   1.000  H
  C8       1.0000 0.29329  0.05773  0.80827  Biso   1.000  C
  C9       1.0000 0.32250  0.31677  0.89235  Biso   1.000  C
  C10      1.0000 0.32273  0.27890  0.87027  Biso   1.000  C
  C11      1.0000 0.37035  0.25939  0.86462  Biso   1.000  C
  H5       1.0000 0.40310  0.26970  0.87380  Biso   1.000  H
  C12      1.0000 0.16159  0.88379  0.05903  Biso   1.000  C
  C13      1.0000 0.19514  0.86454  0.08750  Biso   1.000  C
  H6       1.0000 0.22200  0.84890  0.07640  Biso   1.000  H
  C14      1.0000 0.18863  0.86865  0.13282  Biso   1.000  C
  H7       1.0000 0.21080  0.85540  0.15210  Biso   1.000  H
  C15      1.0000 0.14927  0.89242  0.14936  Biso   1.000  C
  C16      1.0000 0.11766  0.91251  0.12094  Biso   1.000  C
  H8       1.0000 0.09240  0.92950  0.13170  Biso   1.000  H
  C17      1.0000 0.12388  0.90720  0.07524  Biso   1.000  C
  H9       1.0000 0.10150  0.92010  0.05580  Biso   1.000  H
  C18      1.0000 0.16717  0.87739  0.00973  Biso   1.000  C
  C19      1.0000 0.31847  0.17093  0.81172  Biso   1.000  C
  C20      1.0000 0.32107  0.20879  0.83348  Biso   1.000  C
  C21      1.0000 0.36970  0.22390  0.84504  Biso   1.000  C
  H10      1.0000 0.40190  0.21100  0.84010  Biso   1.000  H
  C22      1.0000 0.27360  0.22821  0.84079  Biso   1.000  C
  H11      1.0000 0.24050  0.21720  0.83390  Biso   1.000  H
  C23      1.0000 0.27452  0.26374  0.85824  Biso   1.000  C
  H12      1.0000 0.24240  0.27710  0.86170  Biso   1.000  H
  C24      1.0000 0.14083  0.89539  0.19739  Biso   1.000  C
  C25      1.0000 0.47223  0.06283  0.82721  Biso   1.000  C
  H13      1.0000 0.45020  0.04570  0.84170  Biso   1.000  H
  C26      1.0000 0.02805  0.92539  0.88312  Biso   1.000  C
  H14      1.0000 0.05000  0.94230  0.86810  Biso   1.000  H
  Co1      1.0000 0.38001  0.10634  0.77935  Biso   1.000  Co
  Co2      1.0000 0.12232  0.88042  0.92383  Biso   1.000  Co
  Co3      1.0000 0.26359  0.85973  0.94696  Biso   1.000  Co
  N1       1.0000 0.04588  0.89675  0.90857  Biso   1.000  N
  N2       1.0000 0.45447  0.09193  0.80265  Biso   1.000  N
  O1       1.0000 0.24237  0.91107  0.92435  Biso   1.000  O
  O2       1.0000 0.16229  0.91935  0.89201  Biso   1.000  O
  O3       1.0000 0.25931  0.08057  0.79489  Biso   1.000  O
  O4       1.0000 0.34384  0.06144  0.80565  Biso   1.000  O
  O5       1.0000 0.36993  0.33212  0.89735  Biso   1.000  O
  O6       1.0000 0.27897  0.33132  0.90129  Biso   1.000  O
  O7       1.0000 0.20610  0.85820  0.99622  Biso   1.000  O
  O8       1.0000 0.13073  0.89185  0.98606  Biso   1.000  O
  O9       1.0000 0.27545  0.16236  0.79276  Biso   1.000  O
  O10      1.0000 0.36144  0.15121  0.81385  Biso   1.000  O
  O11      1.0000 0.16759  0.87570  0.22457  Biso   1.000  O
  O12      1.0000 0.10471  0.91662  0.21196  Biso   1.000  O
  O13      1.0000 0.54485  0.15166  0.75012  Biso   1.000  O
  O14      1.0000 0.04459  0.83717  0.96200  Biso   1.000  O
  C27      1.0000 0.71083  0.42792  0.89910  Biso   1.000  C
  C28      1.0000 0.73253  0.46192  0.87570  Biso   1.000  C
  C29      1.0000 0.69741  0.48545  0.85339  Biso   1.000  C
  H15      1.0000 0.66020  0.48080  0.85360  Biso   1.000  H
  C30      1.0000 0.71785  0.51585  0.83082  Biso   1.000  C
  H16      1.0000 0.69440  0.53120  0.81500  Biso   1.000  H
  C31      1.0000 0.77234  0.52359  0.83150  Biso   1.000  C
  C32      1.0000 0.80754  0.50034  0.85309  Biso   1.000  C
  H17      1.0000 0.84470  0.50500  0.85260  Biso   1.000  H
  C33      1.0000 0.78671  0.46913  0.87615  Biso   1.000  C
  H18      1.0000 0.81010  0.45350  0.89160  Biso   1.000  H
  C34      1.0000 0.79329  0.55773  0.80827  Biso   1.000  C
  C35      1.0000 0.82250  0.81677  0.89235  Biso   1.000  C
  C36      1.0000 0.82273  0.77890  0.87027  Biso   1.000  C
  C37      1.0000 0.87035  0.75939  0.86462  Biso   1.000  C
  H19      1.0000 0.90310  0.76970  0.87380  Biso   1.000  H
  C38      1.0000 0.66159  0.38379  0.05903  Biso   1.000  C
  C39      1.0000 0.69514  0.36454  0.08750  Biso   1.000  C
  H20      1.0000 0.72200  0.34890  0.07640  Biso   1.000  H
  C40      1.0000 0.68863  0.36865  0.13282  Biso   1.000  C
  H21      1.0000 0.71080  0.35540  0.15210  Biso   1.000  H
  C41      1.0000 0.64927  0.39242  0.14936  Biso   1.000  C
  C42      1.0000 0.61766  0.41251  0.12094  Biso   1.000  C
  H22      1.0000 0.59240  0.42950  0.13170  Biso   1.000  H
  C43      1.0000 0.62388  0.40720  0.07524  Biso   1.000  C
  H23      1.0000 0.60150  0.42010  0.05580  Biso   1.000  H
  C44      1.0000 0.66717  0.37739  0.00973  Biso   1.000  C
  C45      1.0000 0.81847  0.67093  0.81172  Biso   1.000  C
  C46      1.0000 0.82107  0.70879  0.83348  Biso   1.000  C
  C47      1.0000 0.86970  0.72390  0.84504  Biso   1.000  C
  H24      1.0000 0.90190  0.71100  0.84010  Biso   1.000  H
  C48      1.0000 0.77360  0.72821  0.84079  Biso   1.000  C
  H25      1.0000 0.74050  0.71720  0.83390  Biso   1.000  H
  C49      1.0000 0.77452  0.76374  0.85824  Biso   1.000  C
  H26      1.0000 0.74240  0.77710  0.86170  Biso   1.000  H
  C50      1.0000 0.64083  0.39539  0.19739  Biso   1.000  C
  C51      1.0000 0.97223  0.56283  0.82721  Biso   1.000  C
  H27      1.0000 0.95020  0.54570  0.84170  Biso   1.000  H
  C52      1.0000 0.52805  0.42539  0.88312  Biso   1.000  C
  H28      1.0000 0.55000  0.44230  0.86810  Biso   1.000  H
  Co4      1.0000 0.88001  0.60634  0.77935  Biso   1.000  Co
  Co5      1.0000 0.62232  0.38042  0.92383  Biso   1.000  Co
  Co6      1.0000 0.76359  0.35973  0.94696  Biso   1.000  Co
  N3       1.0000 0.54588  0.39675  0.90857  Biso   1.000  N
  N4       1.0000 0.95447  0.59193  0.80265  Biso   1.000  N
  O15      1.0000 0.74237  0.41107  0.92435  Biso   1.000  O
  O16      1.0000 0.66229  0.41935  0.89201  Biso   1.000  O
  O17      1.0000 0.75931  0.58057  0.79489  Biso   1.000  O
  O18      1.0000 0.84384  0.56144  0.80565  Biso   1.000  O
  O19      1.0000 0.86993  0.83212  0.89735  Biso   1.000  O
  O20      1.0000 0.77897  0.83132  0.90129  Biso   1.000  O
  O21      1.0000 0.70610  0.35820  0.99622  Biso   1.000  O
  O22      1.0000 0.63073  0.39185  0.98606  Biso   1.000  O
  O23      1.0000 0.77545  0.66236  0.79276  Biso   1.000  O
  O24      1.0000 0.86144  0.65121  0.81385  Biso   1.000  O
  O25      1.0000 0.66759  0.37570  0.22457  Biso   1.000  O
  O26      1.0000 0.60471  0.41662  0.21196  Biso   1.000  O
  O27      1.0000 0.04485  0.65166  0.75012  Biso   1.000  O
  O28      1.0000 0.54459  0.33717  0.96200  Biso   1.000  O
  C53      1.0000 0.78917  0.57208  0.39910  Biso   1.000  C
  C54      1.0000 0.76747  0.53808  0.37570  Biso   1.000  C
  C55      1.0000 0.80259  0.51455  0.35339  Biso   1.000  C
  H29      1.0000 0.83980  0.51920  0.35360  Biso   1.000  H
  C56      1.0000 0.78215  0.48415  0.33082  Biso   1.000  C
  H30      1.0000 0.80560  0.46880  0.31500  Biso   1.000  H
  C57      1.0000 0.72766  0.47641  0.33150  Biso   1.000  C
  C58      1.0000 0.69246  0.49966  0.35309  Biso   1.000  C
  H31      1.0000 0.65530  0.49500  0.35260  Biso   1.000  H
  C59      1.0000 0.71329  0.53087  0.37615  Biso   1.000  C
  H32      1.0000 0.68990  0.54650  0.39160  Biso   1.000  H
  C60      1.0000 0.70671  0.44227  0.30827  Biso   1.000  C
  C61      1.0000 0.67750  0.18323  0.39235  Biso   1.000  C
  C62      1.0000 0.67727  0.22110  0.37027  Biso   1.000  C
  C63      1.0000 0.62965  0.24061  0.36462  Biso   1.000  C
  H33      1.0000 0.59690  0.23030  0.37380  Biso   1.000  H
  C64      1.0000 0.83841  0.61621  0.55903  Biso   1.000  C
  C65      1.0000 0.80486  0.63546  0.58750  Biso   1.000  C
  H34      1.0000 0.77800  0.65110  0.57640  Biso   1.000  H
  C66      1.0000 0.81137  0.63135  0.63282  Biso   1.000  C
  H35      1.0000 0.78920  0.64460  0.65210  Biso   1.000  H
  C67      1.0000 0.85073  0.60758  0.64936  Biso   1.000  C
  C68      1.0000 0.88234  0.58749  0.62094  Biso   1.000  C
  H36      1.0000 0.90760  0.57050  0.63170  Biso   1.000  H
  C69      1.0000 0.87612  0.59280  0.57524  Biso   1.000  C
  H37      1.0000 0.89850  0.57990  0.55580  Biso   1.000  H
  C70      1.0000 0.83283  0.62261  0.50973  Biso   1.000  C
  C71      1.0000 0.68153  0.32907  0.31172  Biso   1.000  C
  C72      1.0000 0.67893  0.29121  0.33348  Biso   1.000  C
  C73      1.0000 0.63030  0.27610  0.34504  Biso   1.000  C
  H38      1.0000 0.59810  0.28900  0.34010  Biso   1.000  H
  C74      1.0000 0.72640  0.27179  0.34079  Biso   1.000  C
  H39      1.0000 0.75950  0.28280  0.33390  Biso   1.000  H
  C75      1.0000 0.72548  0.23626  0.35824  Biso   1.000  C
  H40      1.0000 0.75760  0.22290  0.36170  Biso   1.000  H
  C76      1.0000 0.85917  0.60461  0.69739  Biso   1.000  C
  C77      1.0000 0.52777  0.43717  0.32721  Biso   1.000  C
  H41      1.0000 0.54980  0.45430  0.34170  Biso   1.000  H
  C78      1.0000 0.97195  0.57461  0.38312  Biso   1.000  C
  H42      1.0000 0.95000  0.55770  0.36810  Biso   1.000  H
  Co7      1.0000 0.61999  0.39366  0.27935  Biso   1.000  Co
  Co8      1.0000 0.87768  0.61958  0.42383  Biso   1.000  Co
  Co9      1.0000 0.73641  0.64027  0.44696  Biso   1.000  Co
  N5       1.0000 0.95412  0.60325  0.40857  Biso   1.000  N
  N6       1.0000 0.54553  0.40807  0.30265  Biso   1.000  N
  O29      1.0000 0.75763  0.58893  0.42435  Biso   1.000  O
  O30      1.0000 0.83771  0.58065  0.39201  Biso   1.000  O
  O31      1.0000 0.74069  0.41943  0.29489  Biso   1.000  O
  O32      1.0000 0.65616  0.43856  0.30565  Biso   1.000  O
  O33      1.0000 0.63007  0.16788  0.39735  Biso   1.000  O
  O34      1.0000 0.72103  0.16868  0.40129  Biso   1.000  O
  O35      1.0000 0.79390  0.64180  0.49622  Biso   1.000  O
  O36      1.0000 0.86927  0.60815  0.48606  Biso   1.000  O
  O37      1.0000 0.72455  0.33764  0.29276  Biso   1.000  O
  O38      1.0000 0.63856  0.34879  0.31385  Biso   1.000  O
  O39      1.0000 0.83241  0.62430  0.72457  Biso   1.000  O
  O40      1.0000 0.89529  0.58338  0.71196  Biso   1.000  O
  O41      1.0000 0.45515  0.34834  0.25012  Biso   1.000  O
  O42      1.0000 0.95541  0.66283  0.46200  Biso   1.000  O
  C79      1.0000 0.28917  0.07208  0.39910  Biso   1.000  C
  C80      1.0000 0.26747  0.03808  0.37570  Biso   1.000  C
  C81      1.0000 0.30259  0.01455  0.35339  Biso   1.000  C
  H43      1.0000 0.33980  0.01920  0.35360  Biso   1.000  H
  C82      1.0000 0.28215  0.98415  0.33082  Biso   1.000  C
  H44      1.0000 0.30560  0.96880  0.31500  Biso   1.000  H
  C83      1.0000 0.22766  0.97641  0.33150  Biso   1.000  C
  C84      1.0000 0.19246  0.99966  0.35309  Biso   1.000  C
  H45      1.0000 0.15530  0.99500  0.35260  Biso   1.000  H
  C85      1.0000 0.21329  0.03087  0.37615  Biso   1.000  C
  H46      1.0000 0.18990  0.04650  0.39160  Biso   1.000  H
  C86      1.0000 0.20671  0.94227  0.30827  Biso   1.000  C
  C87      1.0000 0.17750  0.68323  0.39235  Biso   1.000  C
  C88      1.0000 0.17727  0.72110  0.37027  Biso   1.000  C
  C89      1.0000 0.12965  0.74061  0.36462  Biso   1.000  C
  H47      1.0000 0.09690  0.73030  0.37380  Biso   1.000  H
  C90      1.0000 0.33841  0.11621  0.55903  Biso   1.000  C
  C91      1.0000 0.30486  0.13546  0.58750  Biso   1.000  C
  H48      1.0000 0.27800  0.15110  0.57640  Biso   1.000  H
  C92      1.0000 0.31137  0.13135  0.63282  Biso   1.000  C
  H49      1.0000 0.28920  0.14460  0.65210  Biso   1.000  H
  C93      1.0000 0.35073  0.10758  0.64936  Biso   1.000  C
  C94      1.0000 0.38234  0.08749  0.62094  Biso   1.000  C
  H50      1.0000 0.40760  0.07050  0.63170  Biso   1.000  H
  C95      1.0000 0.37612  0.09280  0.57524  Biso   1.000  C
  H51      1.0000 0.39850  0.07990  0.55580  Biso   1.000  H
  C96      1.0000 0.33283  0.12261  0.50973  Biso   1.000  C
  C97      1.0000 0.18153  0.82907  0.31172  Biso   1.000  C
  C98      1.0000 0.17893  0.79121  0.33348  Biso   1.000  C
  C99      1.0000 0.13030  0.77610  0.34504  Biso   1.000  C
  H52      1.0000 0.09810  0.78900  0.34010  Biso   1.000  H
  C100     1.0000 0.22640  0.77179  0.34079  Biso   1.000  C
  H53      1.0000 0.25950  0.78280  0.33390  Biso   1.000  H
  C101     1.0000 0.22548  0.73626  0.35824  Biso   1.000  C
  H54      1.0000 0.25760  0.72290  0.36170  Biso   1.000  H
  C102     1.0000 0.35917  0.10461  0.69739  Biso   1.000  C
  C103     1.0000 0.02777  0.93717  0.32721  Biso   1.000  C
  H55      1.0000 0.04980  0.95430  0.34170  Biso   1.000  H
  C104     1.0000 0.47195  0.07461  0.38312  Biso   1.000  C
  H56      1.0000 0.45000  0.05770  0.36810  Biso   1.000  H
  Co10     1.0000 0.11999  0.89366  0.27935  Biso   1.000  Co
  Co11     1.0000 0.37768  0.11958  0.42383  Biso   1.000  Co
  Co12     1.0000 0.23641  0.14027  0.44696  Biso   1.000  Co
  N7       1.0000 0.45412  0.10325  0.40857  Biso   1.000  N
  N8       1.0000 0.04553  0.90807  0.30265  Biso   1.000  N
  O43      1.0000 0.25763  0.08893  0.42435  Biso   1.000  O
  O44      1.0000 0.33771  0.08065  0.39201  Biso   1.000  O
  O45      1.0000 0.24069  0.91943  0.29489  Biso   1.000  O
  O46      1.0000 0.15616  0.93856  0.30565  Biso   1.000  O
  O47      1.0000 0.13007  0.66788  0.39735  Biso   1.000  O
  O48      1.0000 0.22103  0.66868  0.40129  Biso   1.000  O
  O49      1.0000 0.29390  0.14180  0.49622  Biso   1.000  O
  O50      1.0000 0.36927  0.10815  0.48606  Biso   1.000  O
  O51      1.0000 0.22455  0.83764  0.29276  Biso   1.000  O
  O52      1.0000 0.13856  0.84879  0.31385  Biso   1.000  O
  O53      1.0000 0.33241  0.12430  0.72457  Biso   1.000  O
  O54      1.0000 0.39529  0.08338  0.71196  Biso   1.000  O
  O55      1.0000 0.95515  0.84834  0.25012  Biso   1.000  O
  O56      1.0000 0.45541  0.16283  0.46200  Biso   1.000  O
  C105     1.0000 0.78917  0.42792  0.60090  Biso   1.000  C
  C106     1.0000 0.76747  0.46192  0.62430  Biso   1.000  C
  C107     1.0000 0.80259  0.48545  0.64661  Biso   1.000  C
  H57      1.0000 0.83980  0.48080  0.64640  Biso   1.000  H
  C108     1.0000 0.78215  0.51585  0.66918  Biso   1.000  C
  H58      1.0000 0.80560  0.53120  0.68500  Biso   1.000  H
  C109     1.0000 0.72766  0.52359  0.66850  Biso   1.000  C
  C110     1.0000 0.69246  0.50034  0.64691  Biso   1.000  C
  H59      1.0000 0.65530  0.50500  0.64740  Biso   1.000  H
  C111     1.0000 0.71329  0.46913  0.62385  Biso   1.000  C
  H60      1.0000 0.68990  0.45350  0.60840  Biso   1.000  H
  C112     1.0000 0.70671  0.55773  0.69173  Biso   1.000  C
  C113     1.0000 0.67750  0.81677  0.60765  Biso   1.000  C
  C114     1.0000 0.67727  0.77890  0.62973  Biso   1.000  C
  C115     1.0000 0.62965  0.75939  0.63538  Biso   1.000  C
  H61      1.0000 0.59690  0.76970  0.62620  Biso   1.000  H
  C116     1.0000 0.83841  0.38379  0.44097  Biso   1.000  C
  C117     1.0000 0.80486  0.36454  0.41250  Biso   1.000  C
  H62      1.0000 0.77800  0.34890  0.42360  Biso   1.000  H
  C118     1.0000 0.81137  0.36865  0.36718  Biso   1.000  C
  H63      1.0000 0.78920  0.35540  0.34790  Biso   1.000  H
  C119     1.0000 0.85073  0.39242  0.35064  Biso   1.000  C
  C120     1.0000 0.88234  0.41251  0.37906  Biso   1.000  C
  H64      1.0000 0.90760  0.42950  0.36830  Biso   1.000  H
  C121     1.0000 0.87612  0.40720  0.42476  Biso   1.000  C
  H65      1.0000 0.89850  0.42010  0.44420  Biso   1.000  H
  C122     1.0000 0.83283  0.37739  0.49027  Biso   1.000  C
  C123     1.0000 0.68153  0.67093  0.68828  Biso   1.000  C
  C124     1.0000 0.67893  0.70879  0.66652  Biso   1.000  C
  C125     1.0000 0.63030  0.72390  0.65496  Biso   1.000  C
  H66      1.0000 0.59810  0.71100  0.65990  Biso   1.000  H
  C126     1.0000 0.72640  0.72821  0.65921  Biso   1.000  C
  H67      1.0000 0.75950  0.71720  0.66610  Biso   1.000  H
  C127     1.0000 0.72548  0.76374  0.64176  Biso   1.000  C
  H68      1.0000 0.75760  0.77710  0.63830  Biso   1.000  H
  C128     1.0000 0.85917  0.39539  0.30261  Biso   1.000  C
  C129     1.0000 0.52777  0.56283  0.67279  Biso   1.000  C
  H69      1.0000 0.54980  0.54570  0.65830  Biso   1.000  H
  C130     1.0000 0.97195  0.42539  0.61688  Biso   1.000  C
  H70      1.0000 0.95000  0.44230  0.63190  Biso   1.000  H
  Co13     1.0000 0.61999  0.60634  0.72065  Biso   1.000  Co
  Co14     1.0000 0.87768  0.38042  0.57617  Biso   1.000  Co
  Co15     1.0000 0.73641  0.35973  0.55304  Biso   1.000  Co
  N9       1.0000 0.95412  0.39675  0.59143  Biso   1.000  N
  N10      1.0000 0.54553  0.59193  0.69735  Biso   1.000  N
  O57      1.0000 0.75763  0.41107  0.57565  Biso   1.000  O
  O58      1.0000 0.83771  0.41935  0.60799  Biso   1.000  O
  O59      1.0000 0.74069  0.58057  0.70511  Biso   1.000  O
  O60      1.0000 0.65616  0.56144  0.69435  Biso   1.000  O
  O61      1.0000 0.63007  0.83212  0.60265  Biso   1.000  O
  O62      1.0000 0.72103  0.83132  0.59871  Biso   1.000  O
  O63      1.0000 0.79390  0.35820  0.50378  Biso   1.000  O
  O64      1.0000 0.86927  0.39185  0.51394  Biso   1.000  O
  O65      1.0000 0.72455  0.66236  0.70724  Biso   1.000  O
  O66      1.0000 0.63856  0.65121  0.68615  Biso   1.000  O
  O67      1.0000 0.83241  0.37570  0.27543  Biso   1.000  O
  O68      1.0000 0.89529  0.41662  0.28804  Biso   1.000  O
  O69      1.0000 0.45515  0.65166  0.74988  Biso   1.000  O
  O70      1.0000 0.95541  0.33717  0.53800  Biso   1.000  O
  C131     1.0000 0.28917  0.92792  0.60090  Biso   1.000  C
  C132     1.0000 0.26747  0.96192  0.62430  Biso   1.000  C
  C133     1.0000 0.30259  0.98545  0.64661  Biso   1.000  C
  H71      1.0000 0.33980  0.98080  0.64640  Biso   1.000  H
  C134     1.0000 0.28215  0.01585  0.66918  Biso   1.000  C
  H72      1.0000 0.30560  0.03120  0.68500  Biso   1.000  H
  C135     1.0000 0.22766  0.02359  0.66850  Biso   1.000  C
  C136     1.0000 0.19246  0.00034  0.64691  Biso   1.000  C
  H73      1.0000 0.15530  0.00500  0.64740  Biso   1.000  H
  C137     1.0000 0.21329  0.96913  0.62385  Biso   1.000  C
  H74      1.0000 0.18990  0.95350  0.60840  Biso   1.000  H
  C138     1.0000 0.20671  0.05773  0.69173  Biso   1.000  C
  C139     1.0000 0.17750  0.31677  0.60765  Biso   1.000  C
  C140     1.0000 0.17727  0.27890  0.62973  Biso   1.000  C
  C141     1.0000 0.12965  0.25939  0.63538  Biso   1.000  C
  H75      1.0000 0.09690  0.26970  0.62620  Biso   1.000  H
  C142     1.0000 0.33841  0.88379  0.44097  Biso   1.000  C
  C143     1.0000 0.30486  0.86454  0.41250  Biso   1.000  C
  H76      1.0000 0.27800  0.84890  0.42360  Biso   1.000  H
  C144     1.0000 0.31137  0.86865  0.36718  Biso   1.000  C
  H77      1.0000 0.28920  0.85540  0.34790  Biso   1.000  H
  C145     1.0000 0.35073  0.89242  0.35064  Biso   1.000  C
  C146     1.0000 0.38234  0.91251  0.37906  Biso   1.000  C
  H78      1.0000 0.40760  0.92950  0.36830  Biso   1.000  H
  C147     1.0000 0.37612  0.90720  0.42476  Biso   1.000  C
  H79      1.0000 0.39850  0.92010  0.44420  Biso   1.000  H
  C148     1.0000 0.33283  0.87739  0.49027  Biso   1.000  C
  C149     1.0000 0.18153  0.17093  0.68828  Biso   1.000  C
  C150     1.0000 0.17893  0.20879  0.66652  Biso   1.000  C
  C151     1.0000 0.13030  0.22390  0.65496  Biso   1.000  C
  H80      1.0000 0.09810  0.21100  0.65990  Biso   1.000  H
  C152     1.0000 0.22640  0.22821  0.65921  Biso   1.000  C
  H81      1.0000 0.25950  0.21720  0.66610  Biso   1.000  H
  C153     1.0000 0.22548  0.26374  0.64176  Biso   1.000  C
  H82      1.0000 0.25760  0.27710  0.63830  Biso   1.000  H
  C154     1.0000 0.35917  0.89539  0.30261  Biso   1.000  C
  C155     1.0000 0.02777  0.06283  0.67279  Biso   1.000  C
  H83      1.0000 0.04980  0.04570  0.65830  Biso   1.000  H
  C156     1.0000 0.47195  0.92539  0.61688  Biso   1.000  C
  H84      1.0000 0.45000  0.94230  0.63190  Biso   1.000  H
  Co16     1.0000 0.11999  0.10634  0.72065  Biso   1.000  Co
  Co17     1.0000 0.37768  0.88042  0.57617  Biso   1.000  Co
  Co18     1.0000 0.23641  0.85973  0.55304  Biso   1.000  Co
  N11      1.0000 0.45412  0.89675  0.59143  Biso   1.000  N
  N12      1.0000 0.04553  0.09193  0.69735  Biso   1.000  N
  O71      1.0000 0.25763  0.91107  0.57565  Biso   1.000  O
  O72      1.0000 0.33771  0.91935  0.60799  Biso   1.000  O
  O73      1.0000 0.24069  0.08057  0.70511  Biso   1.000  O
  O74      1.0000 0.15616  0.06144  0.69435  Biso   1.000  O
  O75      1.0000 0.13007  0.33212  0.60265  Biso   1.000  O
  O76      1.0000 0.22103  0.33132  0.59871  Biso   1.000  O
  O77      1.0000 0.29390  0.85820  0.50378  Biso   1.000  O
  O78      1.0000 0.36927  0.89185  0.51394  Biso   1.000  O
  O79      1.0000 0.22455  0.16236  0.70724  Biso   1.000  O
  O80      1.0000 0.13856  0.15121  0.68615  Biso   1.000  O
  O81      1.0000 0.33241  0.87570  0.27543  Biso   1.000  O
  O82      1.0000 0.39529  0.91662  0.28804  Biso   1.000  O
  O83      1.0000 0.95515  0.15166  0.74988  Biso   1.000  O
  O84      1.0000 0.45541  0.83717  0.53800  Biso   1.000  O
  C157     1.0000 0.21083  0.07208  0.10090  Biso   1.000  C
  C158     1.0000 0.23253  0.03808  0.12430  Biso   1.000  C
  C159     1.0000 0.19741  0.01455  0.14661  Biso   1.000  C
  H85      1.0000 0.16020  0.01920  0.14640  Biso   1.000  H
  C160     1.0000 0.21785  0.98415  0.16918  Biso   1.000  C
  H86      1.0000 0.19440  0.96880  0.18500  Biso   1.000  H
  C161     1.0000 0.27234  0.97641  0.16850  Biso   1.000  C
  C162     1.0000 0.30754  0.99966  0.14691  Biso   1.000  C
  H87      1.0000 0.34470  0.99500  0.14740  Biso   1.000  H
  C163     1.0000 0.28671  0.03087  0.12385  Biso   1.000  C
  H88      1.0000 0.31010  0.04650  0.10840  Biso   1.000  H
  C164     1.0000 0.29329  0.94227  0.19173  Biso   1.000  C
  C165     1.0000 0.32250  0.68323  0.10765  Biso   1.000  C
  C166     1.0000 0.32273  0.72110  0.12973  Biso   1.000  C
  C167     1.0000 0.37035  0.74061  0.13538  Biso   1.000  C
  H89      1.0000 0.40310  0.73030  0.12620  Biso   1.000  H
  C168     1.0000 0.16159  0.11621  0.94097  Biso   1.000  C
  C169     1.0000 0.19514  0.13546  0.91250  Biso   1.000  C
  H90      1.0000 0.22200  0.15110  0.92360  Biso   1.000  H
  C170     1.0000 0.18863  0.13135  0.86718  Biso   1.000  C
  H91      1.0000 0.21080  0.14460  0.84790  Biso   1.000  H
  C171     1.0000 0.14927  0.10758  0.85064  Biso   1.000  C
  C172     1.0000 0.11766  0.08749  0.87906  Biso   1.000  C
  H92      1.0000 0.09240  0.07050  0.86830  Biso   1.000  H
  C173     1.0000 0.12388  0.09280  0.92476  Biso   1.000  C
  H93      1.0000 0.10150  0.07990  0.94420  Biso   1.000  H
  C174     1.0000 0.16717  0.12261  0.99027  Biso   1.000  C
  C175     1.0000 0.31847  0.82907  0.18828  Biso   1.000  C
  C176     1.0000 0.32107  0.79121  0.16652  Biso   1.000  C
  C177     1.0000 0.36970  0.77610  0.15496  Biso   1.000  C
  H94      1.0000 0.40190  0.78900  0.15990  Biso   1.000  H
  C178     1.0000 0.27360  0.77179  0.15921  Biso   1.000  C
  H95      1.0000 0.24050  0.78280  0.16610  Biso   1.000  H
  C179     1.0000 0.27452  0.73626  0.14176  Biso   1.000  C
  H96      1.0000 0.24240  0.72290  0.13830  Biso   1.000  H
  C180     1.0000 0.14083  0.10461  0.80261  Biso   1.000  C
  C181     1.0000 0.47223  0.93717  0.17279  Biso   1.000  C
  H97      1.0000 0.45020  0.95430  0.15830  Biso   1.000  H
  C182     1.0000 0.02805  0.07461  0.11688  Biso   1.000  C
  H98      1.0000 0.05000  0.05770  0.13190  Biso   1.000  H
  Co19     1.0000 0.38001  0.89366  0.22065  Biso   1.000  Co
  Co20     1.0000 0.12232  0.11958  0.07617  Biso   1.000  Co
  Co21     1.0000 0.26359  0.14027  0.05304  Biso   1.000  Co
  N13      1.0000 0.04588  0.10325  0.09143  Biso   1.000  N
  N14      1.0000 0.45447  0.90807  0.19735  Biso   1.000  N
  O85      1.0000 0.24237  0.08893  0.07565  Biso   1.000  O
  O86      1.0000 0.16229  0.08065  0.10799  Biso   1.000  O
  O87      1.0000 0.25931  0.91943  0.20511  Biso   1.000  O
  O88      1.0000 0.34384  0.93856  0.19435  Biso   1.000  O
  O89      1.0000 0.36993  0.66788  0.10265  Biso   1.000  O
  O90      1.0000 0.27897  0.66868  0.09871  Biso   1.000  O
  O91      1.0000 0.20610  0.14180  0.00378  Biso   1.000  O
  O92      1.0000 0.13073  0.10815  0.01394  Biso   1.000  O
  O93      1.0000 0.27545  0.83764  0.20724  Biso   1.000  O
  O94      1.0000 0.36144  0.84879  0.18615  Biso   1.000  O
  O95      1.0000 0.16759  0.12430  0.77543  Biso   1.000  O
  O96      1.0000 0.10471  0.08338  0.78804  Biso   1.000  O
  O97      1.0000 0.54485  0.84834  0.24988  Biso   1.000  O
  O98      1.0000 0.04459  0.16283  0.03800  Biso   1.000  O
  C183     1.0000 0.71083  0.57208  0.10090  Biso   1.000  C
  C184     1.0000 0.73253  0.53808  0.12430  Biso   1.000  C
  C185     1.0000 0.69741  0.51455  0.14661  Biso   1.000  C
  H99      1.0000 0.66020  0.51920  0.14640  Biso   1.000  H
  C186     1.0000 0.71785  0.48415  0.16918  Biso   1.000  C
  H100     1.0000 0.69440  0.46880  0.18500  Biso   1.000  H
  C187     1.0000 0.77234  0.47641  0.16850  Biso   1.000  C
  C188     1.0000 0.80754  0.49966  0.14691  Biso   1.000  C
  H101     1.0000 0.84470  0.49500  0.14740  Biso   1.000  H
  C189     1.0000 0.78671  0.53087  0.12385  Biso   1.000  C
  H102     1.0000 0.81010  0.54650  0.10840  Biso   1.000  H
  C190     1.0000 0.79329  0.44227  0.19173  Biso   1.000  C
  C191     1.0000 0.82250  0.18323  0.10765  Biso   1.000  C
  C192     1.0000 0.82273  0.22110  0.12973  Biso   1.000  C
  C193     1.0000 0.87035  0.24061  0.13538  Biso   1.000  C
  H103     1.0000 0.90310  0.23030  0.12620  Biso   1.000  H
  C194     1.0000 0.66159  0.61621  0.94097  Biso   1.000  C
  C195     1.0000 0.69514  0.63546  0.91250  Biso   1.000  C
  H104     1.0000 0.72200  0.65110  0.92360  Biso   1.000  H
  C196     1.0000 0.68863  0.63135  0.86718  Biso   1.000  C
  H105     1.0000 0.71080  0.64460  0.84790  Biso   1.000  H
  C197     1.0000 0.64927  0.60758  0.85064  Biso   1.000  C
  C198     1.0000 0.61766  0.58749  0.87906  Biso   1.000  C
  H106     1.0000 0.59240  0.57050  0.86830  Biso   1.000  H
  C199     1.0000 0.62388  0.59280  0.92476  Biso   1.000  C
  H107     1.0000 0.60150  0.57990  0.94420  Biso   1.000  H
  C200     1.0000 0.66717  0.62261  0.99027  Biso   1.000  C
  C201     1.0000 0.81847  0.32907  0.18828  Biso   1.000  C
  C202     1.0000 0.82107  0.29121  0.16652  Biso   1.000  C
  C203     1.0000 0.86970  0.27610  0.15496  Biso   1.000  C
  H108     1.0000 0.90190  0.28900  0.15990  Biso   1.000  H
  C204     1.0000 0.77360  0.27179  0.15921  Biso   1.000  C
  H109     1.0000 0.74050  0.28280  0.16610  Biso   1.000  H
  C205     1.0000 0.77452  0.23626  0.14176  Biso   1.000  C
  H110     1.0000 0.74240  0.22290  0.13830  Biso   1.000  H
  C206     1.0000 0.64083  0.60461  0.80261  Biso   1.000  C
  C207     1.0000 0.97223  0.43717  0.17279  Biso   1.000  C
  H111     1.0000 0.95020  0.45430  0.15830  Biso   1.000  H
  C208     1.0000 0.52805  0.57461  0.11688  Biso   1.000  C
  H112     1.0000 0.55000  0.55770  0.13190  Biso   1.000  H
  Co22     1.0000 0.88001  0.39366  0.22065  Biso   1.000  Co
  Co23     1.0000 0.62232  0.61958  0.07617  Biso   1.000  Co
  Co24     1.0000 0.76359  0.64027  0.05304  Biso   1.000  Co
  N15      1.0000 0.54588  0.60325  0.09143  Biso   1.000  N
  N16      1.0000 0.95447  0.40807  0.19735  Biso   1.000  N
  O99      1.0000 0.74237  0.58893  0.07565  Biso   1.000  O
  O100     1.0000 0.66229  0.58065  0.10799  Biso   1.000  O
  O101     1.0000 0.75931  0.41943  0.20511  Biso   1.000  O
  O102     1.0000 0.84384  0.43856  0.19435  Biso   1.000  O
  O103     1.0000 0.86993  0.16788  0.10265  Biso   1.000  O
  O104     1.0000 0.77897  0.16868  0.09871  Biso   1.000  O
  O105     1.0000 0.70610  0.64180  0.00378  Biso   1.000  O
  O106     1.0000 0.63073  0.60815  0.01394  Biso   1.000  O
  O107     1.0000 0.77545  0.33764  0.20724  Biso   1.000  O
  O108     1.0000 0.86144  0.34879  0.18615  Biso   1.000  O
  O109     1.0000 0.66759  0.62430  0.77543  Biso   1.000  O
  O110     1.0000 0.60471  0.58338  0.78804  Biso   1.000  O
  O111     1.0000 0.04485  0.34834  0.24988  Biso   1.000  O
  O112     1.0000 0.54459  0.66283  0.03800  Biso   1.000  O
  C209     1.0000 0.78917  0.07208  0.10090  Biso   1.000  C
  C210     1.0000 0.76747  0.03808  0.12430  Biso   1.000  C
  C211     1.0000 0.80259  0.01455  0.14661  Biso   1.000  C
  H113     1.0000 0.83980  0.01920  0.14640  Biso   1.000  H
  C212     1.0000 0.78215  0.98415  0.16918  Biso   1.000  C
  H114     1.0000 0.80560  0.96880  0.18500  Biso   1.000  H
  C213     1.0000 0.72766  0.97641  0.16850  Biso   1.000  C
  C214     1.0000 0.69246  0.99966  0.14691  Biso   1.000  C
  H115     1.0000 0.65530  0.99500  0.14740  Biso   1.000  H
  C215     1.0000 0.71329  0.03087  0.12385  Biso   1.000  C
  H116     1.0000 0.68990  0.04650  0.10840  Biso   1.000  H
  C216     1.0000 0.70671  0.94227  0.19173  Biso   1.000  C
  C217     1.0000 0.67750  0.68323  0.10765  Biso   1.000  C
  C218     1.0000 0.67727  0.72110  0.12973  Biso   1.000  C
  C219     1.0000 0.62965  0.74061  0.13538  Biso   1.000  C
  H117     1.0000 0.59690  0.73030  0.12620  Biso   1.000  H
  C220     1.0000 0.83841  0.11621  0.94097  Biso   1.000  C
  C221     1.0000 0.80486  0.13546  0.91250  Biso   1.000  C
  H118     1.0000 0.77800  0.15110  0.92360  Biso   1.000  H
  C222     1.0000 0.81137  0.13135  0.86718  Biso   1.000  C
  H119     1.0000 0.78920  0.14460  0.84790  Biso   1.000  H
  C223     1.0000 0.85073  0.10758  0.85064  Biso   1.000  C
  C224     1.0000 0.88234  0.08749  0.87906  Biso   1.000  C
  H120     1.0000 0.90760  0.07050  0.86830  Biso   1.000  H
  C225     1.0000 0.87612  0.09280  0.92476  Biso   1.000  C
  H121     1.0000 0.89850  0.07990  0.94420  Biso   1.000  H
  C226     1.0000 0.83283  0.12261  0.99027  Biso   1.000  C
  C227     1.0000 0.68153  0.82907  0.18828  Biso   1.000  C
  C228     1.0000 0.67893  0.79121  0.16652  Biso   1.000  C
  C229     1.0000 0.63030  0.77610  0.15496  Biso   1.000  C
  H122     1.0000 0.59810  0.78900  0.15990  Biso   1.000  H
  C230     1.0000 0.72640  0.77179  0.15921  Biso   1.000  C
  H123     1.0000 0.75950  0.78280  0.16610  Biso   1.000  H
  C231     1.0000 0.72548  0.73626  0.14176  Biso   1.000  C
  H124     1.0000 0.75760  0.72290  0.13830  Biso   1.000  H
  C232     1.0000 0.85917  0.10461  0.80261  Biso   1.000  C
  C233     1.0000 0.52777  0.93717  0.17279  Biso   1.000  C
  H125     1.0000 0.54980  0.95430  0.15830  Biso   1.000  H
  C234     1.0000 0.97195  0.07461  0.11688  Biso   1.000  C
  H126     1.0000 0.95000  0.05770  0.13190  Biso   1.000  H
  Co25     1.0000 0.61999  0.89366  0.22065  Biso   1.000  Co
  Co26     1.0000 0.87768  0.11958  0.07617  Biso   1.000  Co
  Co27     1.0000 0.73641  0.14027  0.05304  Biso   1.000  Co
  N17      1.0000 0.95412  0.10325  0.09143  Biso   1.000  N
  N18      1.0000 0.54553  0.90807  0.19735  Biso   1.000  N
  O113     1.0000 0.75763  0.08893  0.07565  Biso   1.000  O
  O114     1.0000 0.83771  0.08065  0.10799  Biso   1.000  O
  O115     1.0000 0.74069  0.91943  0.20511  Biso   1.000  O
  O116     1.0000 0.65616  0.93856  0.19435  Biso   1.000  O
  O117     1.0000 0.63007  0.66788  0.10265  Biso   1.000  O
  O118     1.0000 0.72103  0.66868  0.09871  Biso   1.000  O
  O119     1.0000 0.79390  0.14180  0.00378  Biso   1.000  O
  O120     1.0000 0.86927  0.10815  0.01394  Biso   1.000  O
  O121     1.0000 0.72455  0.83764  0.20724  Biso   1.000  O
  O122     1.0000 0.63856  0.84879  0.18615  Biso   1.000  O
  O123     1.0000 0.83241  0.12430  0.77543  Biso   1.000  O
  O124     1.0000 0.89529  0.08338  0.78804  Biso   1.000  O
  O125     1.0000 0.45515  0.84834  0.24988  Biso   1.000  O
  O126     1.0000 0.95541  0.16283  0.03800  Biso   1.000  O
  C235     1.0000 0.28917  0.57208  0.10090  Biso   1.000  C
  C236     1.0000 0.26747  0.53808  0.12430  Biso   1.000  C
  C237     1.0000 0.30259  0.51455  0.14661  Biso   1.000  C
  H127     1.0000 0.33980  0.51920  0.14640  Biso   1.000  H
  C238     1.0000 0.28215  0.48415  0.16918  Biso   1.000  C
  H128     1.0000 0.30560  0.46880  0.18500  Biso   1.000  H
  C239     1.0000 0.22766  0.47641  0.16850  Biso   1.000  C
  C240     1.0000 0.19246  0.49966  0.14691  Biso   1.000  C
  H129     1.0000 0.15530  0.49500  0.14740  Biso   1.000  H
  C241     1.0000 0.21329  0.53087  0.12385  Biso   1.000  C
  H130     1.0000 0.18990  0.54650  0.10840  Biso   1.000  H
  C242     1.0000 0.20671  0.44227  0.19173  Biso   1.000  C
  C243     1.0000 0.17750  0.18323  0.10765  Biso   1.000  C
  C244     1.0000 0.17727  0.22110  0.12973  Biso   1.000  C
  C245     1.0000 0.12965  0.24061  0.13538  Biso   1.000  C
  H131     1.0000 0.09690  0.23030  0.12620  Biso   1.000  H
  C246     1.0000 0.33841  0.61621  0.94097  Biso   1.000  C
  C247     1.0000 0.30486  0.63546  0.91250  Biso   1.000  C
  H132     1.0000 0.27800  0.65110  0.92360  Biso   1.000  H
  C248     1.0000 0.31137  0.63135  0.86718  Biso   1.000  C
  H133     1.0000 0.28920  0.64460  0.84790  Biso   1.000  H
  C249     1.0000 0.35073  0.60758  0.85064  Biso   1.000  C
  C250     1.0000 0.38234  0.58749  0.87906  Biso   1.000  C
  H134     1.0000 0.40760  0.57050  0.86830  Biso   1.000  H
  C251     1.0000 0.37612  0.59280  0.92476  Biso   1.000  C
  H135     1.0000 0.39850  0.57990  0.94420  Biso   1.000  H
  C252     1.0000 0.33283  0.62261  0.99027  Biso   1.000  C
  C253     1.0000 0.18153  0.32907  0.18828  Biso   1.000  C
  C254     1.0000 0.17893  0.29121  0.16652  Biso   1.000  C
  C255     1.0000 0.13030  0.27610  0.15496  Biso   1.000  C
  H136     1.0000 0.09810  0.28900  0.15990  Biso   1.000  H
  C256     1.0000 0.22640  0.27179  0.15921  Biso   1.000  C
  H137     1.0000 0.25950  0.28280  0.16610  Biso   1.000  H
  C257     1.0000 0.22548  0.23626  0.14176  Biso   1.000  C
  H138     1.0000 0.25760  0.22290  0.13830  Biso   1.000  H
  C258     1.0000 0.35917  0.60461  0.80261  Biso   1.000  C
  C259     1.0000 0.02777  0.43717  0.17279  Biso   1.000  C
  H139     1.0000 0.04980  0.45430  0.15830  Biso   1.000  H
  C260     1.0000 0.47195  0.57461  0.11688  Biso   1.000  C
  H140     1.0000 0.45000  0.55770  0.13190  Biso   1.000  H
  Co28     1.0000 0.11999  0.39366  0.22065  Biso   1.000  Co
  Co29     1.0000 0.37768  0.61958  0.07617  Biso   1.000  Co
  Co30     1.0000 0.23641  0.64027  0.05304  Biso   1.000  Co
  N19      1.0000 0.45412  0.60325  0.09143  Biso   1.000  N
  N20      1.0000 0.04553  0.40807  0.19735  Biso   1.000  N
  O127     1.0000 0.25763  0.58893  0.07565  Biso   1.000  O
  O128     1.0000 0.33771  0.58065  0.10799  Biso   1.000  O
  O129     1.0000 0.24069  0.41943  0.20511  Biso   1.000  O
  O130     1.0000 0.15616  0.43856  0.19435  Biso   1.000  O
  O131     1.0000 0.13007  0.16788  0.10265  Biso   1.000  O
  O132     1.0000 0.22103  0.16868  0.09871  Biso   1.000  O
  O133     1.0000 0.29390  0.64180  0.00378  Biso   1.000  O
  O134     1.0000 0.36927  0.60815  0.01394  Biso   1.000  O
  O135     1.0000 0.22455  0.33764  0.20724  Biso   1.000  O
  O136     1.0000 0.13856  0.34879  0.18615  Biso   1.000  O
  O137     1.0000 0.33241  0.62430  0.77543  Biso   1.000  O
  O138     1.0000 0.39529  0.58338  0.78804  Biso   1.000  O
  O139     1.0000 0.95515  0.34834  0.24988  Biso   1.000  O
  O140     1.0000 0.45541  0.66283  0.03800  Biso   1.000  O
  C261     1.0000 0.21083  0.42792  0.60090  Biso   1.000  C
  C262     1.0000 0.23253  0.46192  0.62430  Biso   1.000  C
  C263     1.0000 0.19741  0.48545  0.64661  Biso   1.000  C
  H141     1.0000 0.16020  0.48080  0.64640  Biso   1.000  H
  C264     1.0000 0.21785  0.51585  0.66918  Biso   1.000  C
  H142     1.0000 0.19440  0.53120  0.68500  Biso   1.000  H
  C265     1.0000 0.27234  0.52359  0.66850  Biso   1.000  C
  C266     1.0000 0.30754  0.50034  0.64691  Biso   1.000  C
  H143     1.0000 0.34470  0.50500  0.64740  Biso   1.000  H
  C267     1.0000 0.28671  0.46913  0.62385  Biso   1.000  C
  H144     1.0000 0.31010  0.45350  0.60840  Biso   1.000  H
  C268     1.0000 0.29329  0.55773  0.69173  Biso   1.000  C
  C269     1.0000 0.32250  0.81677  0.60765  Biso   1.000  C
  C270     1.0000 0.32273  0.77890  0.62973  Biso   1.000  C
  C271     1.0000 0.37035  0.75939  0.63538  Biso   1.000  C
  H145     1.0000 0.40310  0.76970  0.62620  Biso   1.000  H
  C272     1.0000 0.16159  0.38379  0.44097  Biso   1.000  C
  C273     1.0000 0.19514  0.36454  0.41250  Biso   1.000  C
  H146     1.0000 0.22200  0.34890  0.42360  Biso   1.000  H
  C274     1.0000 0.18863  0.36865  0.36718  Biso   1.000  C
  H147     1.0000 0.21080  0.35540  0.34790  Biso   1.000  H
  C275     1.0000 0.14927  0.39242  0.35064  Biso   1.000  C
  C276     1.0000 0.11766  0.41251  0.37906  Biso   1.000  C
  H148     1.0000 0.09240  0.42950  0.36830  Biso   1.000  H
  C277     1.0000 0.12388  0.40720  0.42476  Biso   1.000  C
  H149     1.0000 0.10150  0.42010  0.44420  Biso   1.000  H
  C278     1.0000 0.16717  0.37739  0.49027  Biso   1.000  C
  C279     1.0000 0.31847  0.67093  0.68828  Biso   1.000  C
  C280     1.0000 0.32107  0.70879  0.66652  Biso   1.000  C
  C281     1.0000 0.36970  0.72390  0.65496  Biso   1.000  C
  H150     1.0000 0.40190  0.71100  0.65990  Biso   1.000  H
  C282     1.0000 0.27360  0.72821  0.65921  Biso   1.000  C
  H151     1.0000 0.24050  0.71720  0.66610  Biso   1.000  H
  C283     1.0000 0.27452  0.76374  0.64176  Biso   1.000  C
  H152     1.0000 0.24240  0.77710  0.63830  Biso   1.000  H
  C284     1.0000 0.14083  0.39539  0.30261  Biso   1.000  C
  C285     1.0000 0.47223  0.56283  0.67279  Biso   1.000  C
  H153     1.0000 0.45020  0.54570  0.65830  Biso   1.000  H
  C286     1.0000 0.02805  0.42539  0.61688  Biso   1.000  C
  H154     1.0000 0.05000  0.44230  0.63190  Biso   1.000  H
  Co31     1.0000 0.38001  0.60634  0.72065  Biso   1.000  Co
  Co32     1.0000 0.12232  0.38042  0.57617  Biso   1.000  Co
  Co33     1.0000 0.26359  0.35973  0.55304  Biso   1.000  Co
  N21      1.0000 0.04588  0.39675  0.59143  Biso   1.000  N
  N22      1.0000 0.45447  0.59193  0.69735  Biso   1.000  N
  O141     1.0000 0.24237  0.41107  0.57565  Biso   1.000  O
  O142     1.0000 0.16229  0.41935  0.60799  Biso   1.000  O
  O143     1.0000 0.25931  0.58057  0.70511  Biso   1.000  O
  O144     1.0000 0.34384  0.56144  0.69435  Biso   1.000  O
  O145     1.0000 0.36993  0.83212  0.60265  Biso   1.000  O
  O146     1.0000 0.27897  0.83132  0.59871  Biso   1.000  O
  O147     1.0000 0.20610  0.35820  0.50378  Biso   1.000  O
  O148     1.0000 0.13073  0.39185  0.51394  Biso   1.000  O
  O149     1.0000 0.27545  0.66236  0.70724  Biso   1.000  O
  O150     1.0000 0.36144  0.65121  0.68615  Biso   1.000  O
  O151     1.0000 0.16759  0.37570  0.27543  Biso   1.000  O
  O152     1.0000 0.10471  0.41662  0.28804  Biso   1.000  O
  O153     1.0000 0.54485  0.65166  0.74988  Biso   1.000  O
  O154     1.0000 0.04459  0.33717  0.53800  Biso   1.000  O
  C287     1.0000 0.71083  0.92792  0.60090  Biso   1.000  C
  C288     1.0000 0.73253  0.96192  0.62430  Biso   1.000  C
  C289     1.0000 0.69741  0.98545  0.64661  Biso   1.000  C
  H155     1.0000 0.66020  0.98080  0.64640  Biso   1.000  H
  C290     1.0000 0.71785  0.01585  0.66918  Biso   1.000  C
  H156     1.0000 0.69440  0.03120  0.68500  Biso   1.000  H
  C291     1.0000 0.77234  0.02359  0.66850  Biso   1.000  C
  C292     1.0000 0.80754  0.00034  0.64691  Biso   1.000  C
  H157     1.0000 0.84470  0.00500  0.64740  Biso   1.000  H
  C293     1.0000 0.78671  0.96913  0.62385  Biso   1.000  C
  H158     1.0000 0.81010  0.95350  0.60840  Biso   1.000  H
  C294     1.0000 0.79329  0.05773  0.69173  Biso   1.000  C
  C295     1.0000 0.82250  0.31677  0.60765  Biso   1.000  C
  C296     1.0000 0.82273  0.27890  0.62973  Biso   1.000  C
  C297     1.0000 0.87035  0.25939  0.63538  Biso   1.000  C
  H159     1.0000 0.90310  0.26970  0.62620  Biso   1.000  H
  C298     1.0000 0.66159  0.88379  0.44097  Biso   1.000  C
  C299     1.0000 0.69514  0.86454  0.41250  Biso   1.000  C
  H160     1.0000 0.72200  0.84890  0.42360  Biso   1.000  H
  C300     1.0000 0.68863  0.86865  0.36718  Biso   1.000  C
  H161     1.0000 0.71080  0.85540  0.34790  Biso   1.000  H
  C301     1.0000 0.64927  0.89242  0.35064  Biso   1.000  C
  C302     1.0000 0.61766  0.91251  0.37906  Biso   1.000  C
  H162     1.0000 0.59240  0.92950  0.36830  Biso   1.000  H
  C303     1.0000 0.62388  0.90720  0.42476  Biso   1.000  C
  H163     1.0000 0.60150  0.92010  0.44420  Biso   1.000  H
  C304     1.0000 0.66717  0.87739  0.49027  Biso   1.000  C
  C305     1.0000 0.81847  0.17093  0.68828  Biso   1.000  C
  C306     1.0000 0.82107  0.20879  0.66652  Biso   1.000  C
  C307     1.0000 0.86970  0.22390  0.65496  Biso   1.000  C
  H164     1.0000 0.90190  0.21100  0.65990  Biso   1.000  H
  C308     1.0000 0.77360  0.22821  0.65921  Biso   1.000  C
  H165     1.0000 0.74050  0.21720  0.66610  Biso   1.000  H
  C309     1.0000 0.77452  0.26374  0.64176  Biso   1.000  C
  H166     1.0000 0.74240  0.27710  0.63830  Biso   1.000  H
  C310     1.0000 0.64083  0.89539  0.30261  Biso   1.000  C
  C311     1.0000 0.97223  0.06283  0.67279  Biso   1.000  C
  H167     1.0000 0.95020  0.04570  0.65830  Biso   1.000  H
  C312     1.0000 0.52805  0.92539  0.61688  Biso   1.000  C
  H168     1.0000 0.55000  0.94230  0.63190  Biso   1.000  H
  Co34     1.0000 0.88001  0.10634  0.72065  Biso   1.000  Co
  Co35     1.0000 0.62232  0.88042  0.57617  Biso   1.000  Co
  Co36     1.0000 0.76359  0.85973  0.55304  Biso   1.000  Co
  N23      1.0000 0.54588  0.89675  0.59143  Biso   1.000  N
  N24      1.0000 0.95447  0.09193  0.69735  Biso   1.000  N
  O155     1.0000 0.74237  0.91107  0.57565  Biso   1.000  O
  O156     1.0000 0.66229  0.91935  0.60799  Biso   1.000  O
  O157     1.0000 0.75931  0.08057  0.70511  Biso   1.000  O
  O158     1.0000 0.84384  0.06144  0.69435  Biso   1.000  O
  O159     1.0000 0.86993  0.33212  0.60265  Biso   1.000  O
  O160     1.0000 0.77897  0.33132  0.59871  Biso   1.000  O
  O161     1.0000 0.70610  0.85820  0.50378  Biso   1.000  O
  O162     1.0000 0.63073  0.89185  0.51394  Biso   1.000  O
  O163     1.0000 0.77545  0.16236  0.70724  Biso   1.000  O
  O164     1.0000 0.86144  0.15121  0.68615  Biso   1.000  O
  O165     1.0000 0.66759  0.87570  0.27543  Biso   1.000  O
  O166     1.0000 0.60471  0.91662  0.28804  Biso   1.000  O
  O167     1.0000 0.04485  0.15166  0.74988  Biso   1.000  O
  O168     1.0000 0.54459  0.83717  0.53800  Biso   1.000  O
  C313     1.0000 0.21083  0.57208  0.39910  Biso   1.000  C
  C314     1.0000 0.23253  0.53808  0.37570  Biso   1.000  C
  C315     1.0000 0.19741  0.51455  0.35339  Biso   1.000  C
  H169     1.0000 0.16020  0.51920  0.35360  Biso   1.000  H
  C316     1.0000 0.21785  0.48415  0.33082  Biso   1.000  C
  H170     1.0000 0.19440  0.46880  0.31500  Biso   1.000  H
  C317     1.0000 0.27234  0.47641  0.33150  Biso   1.000  C
  C318     1.0000 0.30754  0.49966  0.35309  Biso   1.000  C
  H171     1.0000 0.34470  0.49500  0.35260  Biso   1.000  H
  C319     1.0000 0.28671  0.53087  0.37615  Biso   1.000  C
  H172     1.0000 0.31010  0.54650  0.39160  Biso   1.000  H
  C320     1.0000 0.29329  0.44227  0.30827  Biso   1.000  C
  C321     1.0000 0.32250  0.18323  0.39235  Biso   1.000  C
  C322     1.0000 0.32273  0.22110  0.37027  Biso   1.000  C
  C323     1.0000 0.37035  0.24061  0.36462  Biso   1.000  C
  H173     1.0000 0.40310  0.23030  0.37380  Biso   1.000  H
  C324     1.0000 0.16159  0.61621  0.55903  Biso   1.000  C
  C325     1.0000 0.19514  0.63546  0.58750  Biso   1.000  C
  H174     1.0000 0.22200  0.65110  0.57640  Biso   1.000  H
  C326     1.0000 0.18863  0.63135  0.63282  Biso   1.000  C
  H175     1.0000 0.21080  0.64460  0.65210  Biso   1.000  H
  C327     1.0000 0.14927  0.60758  0.64936  Biso   1.000  C
  C328     1.0000 0.11766  0.58749  0.62094  Biso   1.000  C
  H176     1.0000 0.09240  0.57050  0.63170  Biso   1.000  H
  C329     1.0000 0.12388  0.59280  0.57524  Biso   1.000  C
  H177     1.0000 0.10150  0.57990  0.55580  Biso   1.000  H
  C330     1.0000 0.16717  0.62261  0.50973  Biso   1.000  C
  C331     1.0000 0.31847  0.32907  0.31172  Biso   1.000  C
  C332     1.0000 0.32107  0.29121  0.33348  Biso   1.000  C
  C333     1.0000 0.36970  0.27610  0.34504  Biso   1.000  C
  H178     1.0000 0.40190  0.28900  0.34010  Biso   1.000  H
  C334     1.0000 0.27360  0.27179  0.34079  Biso   1.000  C
  H179     1.0000 0.24050  0.28280  0.33390  Biso   1.000  H
  C335     1.0000 0.27452  0.23626  0.35824  Biso   1.000  C
  H180     1.0000 0.24240  0.22290  0.36170  Biso   1.000  H
  C336     1.0000 0.14083  0.60461  0.69739  Biso   1.000  C
  C337     1.0000 0.47223  0.43717  0.32721  Biso   1.000  C
  H181     1.0000 0.45020  0.45430  0.34170  Biso   1.000  H
  C338     1.0000 0.02805  0.57461  0.38312  Biso   1.000  C
  H182     1.0000 0.05000  0.55770  0.36810  Biso   1.000  H
  Co37     1.0000 0.38001  0.39366  0.27935  Biso   1.000  Co
  Co38     1.0000 0.12232  0.61958  0.42383  Biso   1.000  Co
  Co39     1.0000 0.26359  0.64027  0.44696  Biso   1.000  Co
  N25      1.0000 0.04588  0.60325  0.40857  Biso   1.000  N
  N26      1.0000 0.45447  0.40807  0.30265  Biso   1.000  N
  O169     1.0000 0.24237  0.58893  0.42435  Biso   1.000  O
  O170     1.0000 0.16229  0.58065  0.39201  Biso   1.000  O
  O171     1.0000 0.25931  0.41943  0.29489  Biso   1.000  O
  O172     1.0000 0.34384  0.43856  0.30565  Biso   1.000  O
  O173     1.0000 0.36993  0.16788  0.39735  Biso   1.000  O
  O174     1.0000 0.27897  0.16868  0.40129  Biso   1.000  O
  O175     1.0000 0.20610  0.64180  0.49622  Biso   1.000  O
  O176     1.0000 0.13073  0.60815  0.48606  Biso   1.000  O
  O177     1.0000 0.27545  0.33764  0.29276  Biso   1.000  O
  O178     1.0000 0.36144  0.34879  0.31385  Biso   1.000  O
  O179     1.0000 0.16759  0.62430  0.72457  Biso   1.000  O
  O180     1.0000 0.10471  0.58338  0.71196  Biso   1.000  O
  O181     1.0000 0.54485  0.34834  0.25012  Biso   1.000  O
  O182     1.0000 0.04459  0.66283  0.46200  Biso   1.000  O
  C339     1.0000 0.71083  0.07208  0.39910  Biso   1.000  C
  C340     1.0000 0.73253  0.03808  0.37570  Biso   1.000  C
  C341     1.0000 0.69741  0.01455  0.35339  Biso   1.000  C
  H183     1.0000 0.66020  0.01920  0.35360  Biso   1.000  H
  C342     1.0000 0.71785  0.98415  0.33082  Biso   1.000  C
  H184     1.0000 0.69440  0.96880  0.31500  Biso   1.000  H
  C343     1.0000 0.77234  0.97641  0.33150  Biso   1.000  C
  C344     1.0000 0.80754  0.99966  0.35309  Biso   1.000  C
  H185     1.0000 0.84470  0.99500  0.35260  Biso   1.000  H
  C345     1.0000 0.78671  0.03087  0.37615  Biso   1.000  C
  H186     1.0000 0.81010  0.04650  0.39160  Biso   1.000  H
  C346     1.0000 0.79329  0.94227  0.30827  Biso   1.000  C
  C347     1.0000 0.82250  0.68323  0.39235  Biso   1.000  C
  C348     1.0000 0.82273  0.72110  0.37027  Biso   1.000  C
  C349     1.0000 0.87035  0.74061  0.36462  Biso   1.000  C
  H187     1.0000 0.90310  0.73030  0.37380  Biso   1.000  H
  C350     1.0000 0.66159  0.11621  0.55903  Biso   1.000  C
  C351     1.0000 0.69514  0.13546  0.58750  Biso   1.000  C
  H188     1.0000 0.72200  0.15110  0.57640  Biso   1.000  H
  C352     1.0000 0.68863  0.13135  0.63282  Biso   1.000  C
  H189     1.0000 0.71080  0.14460  0.65210  Biso   1.000  H
  C353     1.0000 0.64927  0.10758  0.64936  Biso   1.000  C
  C354     1.0000 0.61766  0.08749  0.62094  Biso   1.000  C
  H190     1.0000 0.59240  0.07050  0.63170  Biso   1.000  H
  C355     1.0000 0.62388  0.09280  0.57524  Biso   1.000  C
  H191     1.0000 0.60150  0.07990  0.55580  Biso   1.000  H
  C356     1.0000 0.66717  0.12261  0.50973  Biso   1.000  C
  C357     1.0000 0.81847  0.82907  0.31172  Biso   1.000  C
  C358     1.0000 0.82107  0.79121  0.33348  Biso   1.000  C
  C359     1.0000 0.86970  0.77610  0.34504  Biso   1.000  C
  H192     1.0000 0.90190  0.78900  0.34010  Biso   1.000  H
  C360     1.0000 0.77360  0.77179  0.34079  Biso   1.000  C
  H193     1.0000 0.74050  0.78280  0.33390  Biso   1.000  H
  C361     1.0000 0.77452  0.73626  0.35824  Biso   1.000  C
  H194     1.0000 0.74240  0.72290  0.36170  Biso   1.000  H
  C362     1.0000 0.64083  0.10461  0.69739  Biso   1.000  C
  C363     1.0000 0.97223  0.93717  0.32721  Biso   1.000  C
  H195     1.0000 0.95020  0.95430  0.34170  Biso   1.000  H
  C364     1.0000 0.52805  0.07461  0.38312  Biso   1.000  C
  H196     1.0000 0.55000  0.05770  0.36810  Biso   1.000  H
  Co40     1.0000 0.88001  0.89366  0.27935  Biso   1.000  Co
  Co41     1.0000 0.62232  0.11958  0.42383  Biso   1.000  Co
  Co42     1.0000 0.76359  0.14027  0.44696  Biso   1.000  Co
  N27      1.0000 0.54588  0.10325  0.40857  Biso   1.000  N
  N28      1.0000 0.95447  0.90807  0.30265  Biso   1.000  N
  O183     1.0000 0.74237  0.08893  0.42435  Biso   1.000  O
  O184     1.0000 0.66229  0.08065  0.39201  Biso   1.000  O
  O185     1.0000 0.75931  0.91943  0.29489  Biso   1.000  O
  O186     1.0000 0.84384  0.93856  0.30565  Biso   1.000  O
  O187     1.0000 0.86993  0.66788  0.39735  Biso   1.000  O
  O188     1.0000 0.77897  0.66868  0.40129  Biso   1.000  O
  O189     1.0000 0.70610  0.14180  0.49622  Biso   1.000  O
  O190     1.0000 0.63073  0.10815  0.48606  Biso   1.000  O
  O191     1.0000 0.77545  0.83764  0.29276  Biso   1.000  O
  O192     1.0000 0.86144  0.84879  0.31385  Biso   1.000  O
  O193     1.0000 0.66759  0.12430  0.72457  Biso   1.000  O
  O194     1.0000 0.60471  0.08338  0.71196  Biso   1.000  O
  O195     1.0000 0.04485  0.84834  0.25012  Biso   1.000  O
  O196     1.0000 0.54459  0.16283  0.46200  Biso   1.000  O
  C365     1.0000 0.78917  0.92792  0.89910  Biso   1.000  C
  C366     1.0000 0.76747  0.96192  0.87570  Biso   1.000  C
  C367     1.0000 0.80259  0.98545  0.85339  Biso   1.000  C
  H197     1.0000 0.83980  0.98080  0.85360  Biso   1.000  H
  C368     1.0000 0.78215  0.01585  0.83082  Biso   1.000  C
  H198     1.0000 0.80560  0.03120  0.81500  Biso   1.000  H
  C369     1.0000 0.72766  0.02359  0.83150  Biso   1.000  C
  C370     1.0000 0.69246  0.00034  0.85309  Biso   1.000  C
  H199     1.0000 0.65530  0.00500  0.85260  Biso   1.000  H
  C371     1.0000 0.71329  0.96913  0.87615  Biso   1.000  C
  H200     1.0000 0.68990  0.95350  0.89160  Biso   1.000  H
  C372     1.0000 0.70671  0.05773  0.80827  Biso   1.000  C
  C373     1.0000 0.67750  0.31677  0.89235  Biso   1.000  C
  C374     1.0000 0.67727  0.27890  0.87027  Biso   1.000  C
  C375     1.0000 0.62965  0.25939  0.86462  Biso   1.000  C
  H201     1.0000 0.59690  0.26970  0.87380  Biso   1.000  H
  C376     1.0000 0.83841  0.88379  0.05903  Biso   1.000  C
  C377     1.0000 0.80486  0.86454  0.08750  Biso   1.000  C
  H202     1.0000 0.77800  0.84890  0.07640  Biso   1.000  H
  C378     1.0000 0.81137  0.86865  0.13282  Biso   1.000  C
  H203     1.0000 0.78920  0.85540  0.15210  Biso   1.000  H
  C379     1.0000 0.85073  0.89242  0.14936  Biso   1.000  C
  C380     1.0000 0.88234  0.91251  0.12094  Biso   1.000  C
  H204     1.0000 0.90760  0.92950  0.13170  Biso   1.000  H
  C381     1.0000 0.87612  0.90720  0.07524  Biso   1.000  C
  H205     1.0000 0.89850  0.92010  0.05580  Biso   1.000  H
  C382     1.0000 0.83283  0.87739  0.00973  Biso   1.000  C
  C383     1.0000 0.68153  0.17093  0.81172  Biso   1.000  C
  C384     1.0000 0.67893  0.20879  0.83348  Biso   1.000  C
  C385     1.0000 0.63030  0.22390  0.84504  Biso   1.000  C
  H206     1.0000 0.59810  0.21100  0.84010  Biso   1.000  H
  C386     1.0000 0.72640  0.22821  0.84079  Biso   1.000  C
  H207     1.0000 0.75950  0.21720  0.83390  Biso   1.000  H
  C387     1.0000 0.72548  0.26374  0.85824  Biso   1.000  C
  H208     1.0000 0.75760  0.27710  0.86170  Biso   1.000  H
  C388     1.0000 0.85917  0.89539  0.19739  Biso   1.000  C
  C389     1.0000 0.52777  0.06283  0.82721  Biso   1.000  C
  H209     1.0000 0.54980  0.04570  0.84170  Biso   1.000  H
  C390     1.0000 0.97195  0.92539  0.88312  Biso   1.000  C
  H210     1.0000 0.95000  0.94230  0.86810  Biso   1.000  H
  Co43     1.0000 0.61999  0.10634  0.77935  Biso   1.000  Co
  Co44     1.0000 0.87768  0.88042  0.92383  Biso   1.000  Co
  Co45     1.0000 0.73641  0.85973  0.94696  Biso   1.000  Co
  N29      1.0000 0.95412  0.89675  0.90857  Biso   1.000  N
  N30      1.0000 0.54553  0.09193  0.80265  Biso   1.000  N
  O197     1.0000 0.75763  0.91107  0.92435  Biso   1.000  O
  O198     1.0000 0.83771  0.91935  0.89201  Biso   1.000  O
  O199     1.0000 0.74069  0.08057  0.79489  Biso   1.000  O
  O200     1.0000 0.65616  0.06144  0.80565  Biso   1.000  O
  O201     1.0000 0.63007  0.33212  0.89735  Biso   1.000  O
  O202     1.0000 0.72103  0.33132  0.90129  Biso   1.000  O
  O203     1.0000 0.79390  0.85820  0.99622  Biso   1.000  O
  O204     1.0000 0.86927  0.89185  0.98606  Biso   1.000  O
  O205     1.0000 0.72455  0.16236  0.79276  Biso   1.000  O
  O206     1.0000 0.63856  0.15121  0.81385  Biso   1.000  O
  O207     1.0000 0.83241  0.87570  0.22457  Biso   1.000  O
  O208     1.0000 0.89529  0.91662  0.21196  Biso   1.000  O
  O209     1.0000 0.45515  0.15166  0.75012  Biso   1.000  O
  O210     1.0000 0.95541  0.83717  0.96200  Biso   1.000  O
  C391     1.0000 0.28917  0.42792  0.89910  Biso   1.000  C
  C392     1.0000 0.26747  0.46192  0.87570  Biso   1.000  C
  C393     1.0000 0.30259  0.48545  0.85339  Biso   1.000  C
  H211     1.0000 0.33980  0.48080  0.85360  Biso   1.000  H
  C394     1.0000 0.28215  0.51585  0.83082  Biso   1.000  C
  H212     1.0000 0.30560  0.53120  0.81500  Biso   1.000  H
  C395     1.0000 0.22766  0.52359  0.83150  Biso   1.000  C
  C396     1.0000 0.19246  0.50034  0.85309  Biso   1.000  C
  H213     1.0000 0.15530  0.50500  0.85260  Biso   1.000  H
  C397     1.0000 0.21329  0.46913  0.87615  Biso   1.000  C
  H214     1.0000 0.18990  0.45350  0.89160  Biso   1.000  H
  C398     1.0000 0.20671  0.55773  0.80827  Biso   1.000  C
  C399     1.0000 0.17750  0.81677  0.89235  Biso   1.000  C
  C400     1.0000 0.17727  0.77890  0.87027  Biso   1.000  C
  C401     1.0000 0.12965  0.75939  0.86462  Biso   1.000  C
  H215     1.0000 0.09690  0.76970  0.87380  Biso   1.000  H
  C402     1.0000 0.33841  0.38379  0.05903  Biso   1.000  C
  C403     1.0000 0.30486  0.36454  0.08750  Biso   1.000  C
  H216     1.0000 0.27800  0.34890  0.07640  Biso   1.000  H
  C404     1.0000 0.31137  0.36865  0.13282  Biso   1.000  C
  H217     1.0000 0.28920  0.35540  0.15210  Biso   1.000  H
  C405     1.0000 0.35073  0.39242  0.14936  Biso   1.000  C
  C406     1.0000 0.38234  0.41251  0.12094  Biso   1.000  C
  H218     1.0000 0.40760  0.42950  0.13170  Biso   1.000  H
  C407     1.0000 0.37612  0.40720  0.07524  Biso   1.000  C
  H219     1.0000 0.39850  0.42010  0.05580  Biso   1.000  H
  C408     1.0000 0.33283  0.37739  0.00973  Biso   1.000  C
  C409     1.0000 0.18153  0.67093  0.81172  Biso   1.000  C
  C410     1.0000 0.17893  0.70879  0.83348  Biso   1.000  C
  C411     1.0000 0.13030  0.72390  0.84504  Biso   1.000  C
  H220     1.0000 0.09810  0.71100  0.84010  Biso   1.000  H
  C412     1.0000 0.22640  0.72821  0.84079  Biso   1.000  C
  H221     1.0000 0.25950  0.71720  0.83390  Biso   1.000  H
  C413     1.0000 0.22548  0.76374  0.85824  Biso   1.000  C
  H222     1.0000 0.25760  0.77710  0.86170  Biso   1.000  H
  C414     1.0000 0.35917  0.39539  0.19739  Biso   1.000  C
  C415     1.0000 0.02777  0.56283  0.82721  Biso   1.000  C
  H223     1.0000 0.04980  0.54570  0.84170  Biso   1.000  H
  C416     1.0000 0.47195  0.42539  0.88312  Biso   1.000  C
  H224     1.0000 0.45000  0.44230  0.86810  Biso   1.000  H
  Co46     1.0000 0.11999  0.60634  0.77935  Biso   1.000  Co
  Co47     1.0000 0.37768  0.38042  0.92383  Biso   1.000  Co
  Co48     1.0000 0.23641  0.35973  0.94696  Biso   1.000  Co
  N31      1.0000 0.45412  0.39675  0.90857  Biso   1.000  N
  N32      1.0000 0.04553  0.59193  0.80265  Biso   1.000  N
  O211     1.0000 0.25763  0.41107  0.92435  Biso   1.000  O
  O212     1.0000 0.33771  0.41935  0.89201  Biso   1.000  O
  O213     1.0000 0.24069  0.58057  0.79489  Biso   1.000  O
  O214     1.0000 0.15616  0.56144  0.80565  Biso   1.000  O
  O215     1.0000 0.13007  0.83212  0.89735  Biso   1.000  O
  O216     1.0000 0.22103  0.83132  0.90129  Biso   1.000  O
  O217     1.0000 0.29390  0.35820  0.99622  Biso   1.000  O
  O218     1.0000 0.36927  0.39185  0.98606  Biso   1.000  O
  O219     1.0000 0.22455  0.66236  0.79276  Biso   1.000  O
  O220     1.0000 0.13856  0.65121  0.81385  Biso   1.000  O
  O221     1.0000 0.33241  0.37570  0.22457  Biso   1.000  O
  O222     1.0000 0.39529  0.41662  0.21196  Biso   1.000  O
  O223     1.0000 0.95515  0.65166  0.75012  Biso   1.000  O
  O224     1.0000 0.45541  0.33717  0.96200  Biso   1.000  O
  C417     1.0000 0.50000  0.10732  0.78864  Biso   1.000  C
  N33      1.0000 0.50000  0.13821  0.76133  Biso   1.000  N
  C418     1.0000 0.00000  0.60732  0.78864  Biso   1.000  C
  N34      1.0000 0.00000  0.63821  0.76133  Biso   1.000  N
  C419     1.0000 0.50000  0.39268  0.28864  Biso   1.000  C
  N35      1.0000 0.50000  0.36179  0.26133  Biso   1.000  N
  C420     1.0000 0.00000  0.89268  0.28864  Biso   1.000  C
  N36      1.0000 0.00000  0.86179  0.26133  Biso   1.000  N
  C421     1.0000 0.50000  0.60732  0.71136  Biso   1.000  C
  N37      1.0000 0.50000  0.63821  0.73867  Biso   1.000  N
  C422     1.0000 0.00000  0.10732  0.71136  Biso   1.000  C
  N38      1.0000 0.00000  0.13821  0.73867  Biso   1.000  N
  C423     1.0000 0.50000  0.89268  0.21136  Biso   1.000  C
  N39      1.0000 0.50000  0.86179  0.23867  Biso   1.000  N
  C424     1.0000 0.00000  0.39268  0.21136  Biso   1.000  C
  N40      1.0000 0.00000  0.36179  0.23867  Biso   1.000  N
  C425     1.0000 0.00000  0.88067  0.92311  Biso   1.000  C
  N41      1.0000 0.00000  0.84985  0.95049  Biso   1.000  N
  C426     1.0000 0.50000  0.38067  0.92311  Biso   1.000  C
  N42      1.0000 0.50000  0.34985  0.95049  Biso   1.000  N
  C427     1.0000 0.00000  0.61933  0.42311  Biso   1.000  C
  N43      1.0000 0.00000  0.65015  0.45049  Biso   1.000  N
  C428     1.0000 0.50000  0.11933  0.42311  Biso   1.000  C
  N44      1.0000 0.50000  0.15015  0.45049  Biso   1.000  N
  C429     1.0000 0.00000  0.38067  0.57689  Biso   1.000  C
  N45      1.0000 0.00000  0.34985  0.54951  Biso   1.000  N
  C430     1.0000 0.50000  0.88067  0.57689  Biso   1.000  C
  N46      1.0000 0.50000  0.84985  0.54951  Biso   1.000  N
  C431     1.0000 0.00000  0.11933  0.07689  Biso   1.000  C
  N47      1.0000 0.00000  0.15015  0.04951  Biso   1.000  N
  C432     1.0000 0.50000  0.61933  0.07689  Biso   1.000  C
  N48      1.0000 0.50000  0.65015  0.04951  Biso   1.000  N
  Co49     1.0000 0.25000  0.12250  0.75000  Biso   1.000  Co
  Co50     1.0000 0.75000  0.37750  0.25000  Biso   1.000  Co
  Co51     1.0000 0.75000  0.62250  0.75000  Biso   1.000  Co
  Co52     1.0000 0.25000  0.87750  0.25000  Biso   1.000  Co
  Co53     1.0000 0.75000  0.87750  0.25000  Biso   1.000  Co
  Co54     1.0000 0.25000  0.62250  0.75000  Biso   1.000  Co
  Co55     1.0000 0.25000  0.37750  0.25000  Biso   1.000  Co
  Co56     1.0000 0.75000  0.12250  0.75000  Biso   1.000  Co
