data_image0
_cell_length_a       32.0784
_cell_length_b       18.4491
_cell_length_c       41.2495
_cell_angle_alpha    90
_cell_angle_beta     118.55
_cell_angle_gamma    90

_symmetry_space_group_name_H-M    "P 1"
_symmetry_int_tables_number       1

loop_
  _symmetry_equiv_pos_as_xyz
  'x, y, z'

loop_
  _atom_site_label
  _atom_site_occupancy
  _atom_site_fract_x
  _atom_site_fract_y
  _atom_site_fract_z
  _atom_site_thermal_displace_type
  _atom_site_B_iso_or_equiv
  _atom_site_type_symbol
  Cu1      1.0000 0.21781  0.17692  0.22179  Biso   1.000  Cu
  Cu2      1.0000 0.27816  0.25088  0.28090  Biso   1.000  Cu
  Cu3      1.0000 0.99395  0.96391  0.27988  Biso   1.000  Cu
  O1       1.0000 0.26109  0.83350  0.24829  Biso   1.000  O
  O2       1.0000 0.31278  0.77020  0.29822  Biso   1.000  O
  O3       1.0000 0.23385  0.23170  0.29916  Biso   1.000  O
  O4       1.0000 0.30635  0.15320  0.29937  Biso   1.000  O
  O5       1.0000 0.04557  0.89100  0.29632  Biso   1.000  O
  O6       1.0000 0.18310  0.16850  0.24977  Biso   1.000  O
  O7       1.0000 0.25600  0.09330  0.24852  Biso   1.000  O
  O8       1.0000 0.05396  0.03580  0.25045  Biso   1.000  O
  O9       1.0000 0.04207  0.04020  0.29915  Biso   1.000  O
  O10      1.0000 0.05220  0.88790  0.24452  Biso   1.000  O
  O11      1.0000 0.23654  0.69840  0.29581  Biso   1.000  O
  O12      1.0000 0.18448  0.76090  0.24471  Biso   1.000  O
  C1       1.0000 0.06530  0.05540  0.28137  Biso   1.000  C
  C2       1.0000 0.20119  0.74080  0.27753  Biso   1.000  C
  C3       1.0000 0.22480  0.74300  0.46139  Biso   1.000  C
  C4       1.0000 0.19260  0.21590  0.42408  Biso   1.000  C
  C5       1.0000 0.29603  0.82950  0.28019  Biso   1.000  C
  C6       1.0000 0.31650  0.89870  0.29922  Biso   1.000  C
  C7       1.0000 0.16800  0.17590  0.29978  Biso   1.000  C
  C8       1.0000 0.28755  0.10020  0.28127  Biso   1.000  C
  C9       1.0000 0.46940  0.98690  0.46231  Biso   1.000  C
  C10      1.0000 0.21950  0.23410  0.46158  Biso   1.000  C
  C11      1.0000 0.12867  0.13230  0.28228  Biso   1.000  C
  H1       1.0000 0.11870  0.11740  0.25810  Biso   1.000  H
  C12      1.0000 0.29806  0.96390  0.28154  Biso   1.000  C
  H2       1.0000 0.27470  0.96380  0.25690  Biso   1.000  H
  C13      1.0000 0.10373  0.11010  0.30023  Biso   1.000  C
  C14      1.0000 0.12043  0.79830  0.33202  Biso   1.000  C
  H3       1.0000 0.10330  0.81150  0.34400  Biso   1.000  H
  C15      1.0000 0.06376  0.86970  0.27714  Biso   1.000  C
  C16      1.0000 0.17410  0.19960  0.39217  Biso   1.000  C
  C17      1.0000 0.50150  0.93630  0.48406  Biso   1.000  C
  C18      1.0000 0.19694  0.19560  0.28124  Biso   1.000  C
  C19      1.0000 0.35300  0.89860  0.33627  Biso   1.000  C
  H4       1.0000 0.36540  0.85520  0.34860  Biso   1.000  H
  C20      1.0000 0.34950  0.02840  0.33571  Biso   1.000  C
  H5       1.0000 0.36010  0.07250  0.34780  Biso   1.000  H
  C21      1.0000 0.11770  0.13410  0.33629  Biso   1.000  C
  H6       1.0000 0.10080  0.12000  0.34830  Biso   1.000  H
  C22      1.0000 0.10413  0.82060  0.29518  Biso   1.000  C
  C23      1.0000 0.24920  0.42350  0.46070  Biso   1.000  C
  C24      1.0000 0.12950  0.79550  0.27695  Biso   1.000  C
  H7       1.0000 0.11800  0.80570  0.25200  Biso   1.000  H
  C25      1.0000 0.43530  0.97520  0.42386  Biso   1.000  C
  C26      1.0000 0.18330  0.19870  0.33617  Biso   1.000  C
  H8       1.0000 0.21060  0.22670  0.34840  Biso   1.000  H
  C27      1.0000 0.17080  0.75620  0.29569  Biso   1.000  C
  C28      1.0000 0.20040  0.75200  0.48130  Biso   1.000  C
  C29      1.0000 0.31330  0.02730  0.29930  Biso   1.000  C
  C30      1.0000 0.37010  0.96470  0.35407  Biso   1.000  C
  C31      1.0000 0.19940  0.73990  0.42143  Biso   1.000  C
  C32      1.0000 0.25110  0.29440  0.47395  Biso   1.000  C
  C33      1.0000 0.50050  0.80570  0.49700  Biso   1.000  C
  C34      1.0000 0.18590  0.73570  0.33230  Biso   1.000  C
  H9       1.0000 0.21290  0.70710  0.34440  Biso   1.000  H
  C35      1.0000 0.40670  0.96760  0.39215  Biso   1.000  C
  C36      1.0000 0.53230  0.81720  0.53340  Biso   1.000  C
  C37      1.0000 0.53430  0.77350  0.56020  Biso   1.000  C
  H10      1.0000 0.55690  0.77990  0.58480  Biso   1.000  H
  C38      1.0000 0.27900  0.43730  0.49700  Biso   1.000  C
  C39      1.0000 0.22050  0.19300  0.49087  Biso   1.000  C
  C40      1.0000 0.33900  0.35600  0.49410  Biso   1.000  C
  C41      1.0000 0.46865  0.05340  0.47927  Biso   1.000  C
  C42      1.0000 0.27460  0.74120  0.47993  Biso   1.000  C
  C43      1.0000 0.63810  0.86680  0.52830  Biso   1.000  C
  H11      1.0000 0.65950  0.87230  0.55330  Biso   1.000  H
  C44      1.0000 0.15710  0.17900  0.35393  Biso   1.000  C
  C45      1.0000 0.25580  0.34800  0.44711  Biso   1.000  C
  H12      1.0000 0.23420  0.33840  0.42100  Biso   1.000  H
  C46      1.0000 0.13890  0.82960  0.47980  Biso   1.000  C
  C47      1.0000 0.38500  0.35260  0.50490  Biso   1.000  C
  H13      1.0000 0.40650  0.36020  0.52960  Biso   1.000  H
  C48      1.0000 0.16370  0.83990  0.51890  Biso   1.000  C
  C49      1.0000 0.10800  0.88660  0.45640  Biso   1.000  C
  H14      1.0000 0.09110  0.88290  0.43080  Biso   1.000  H
  C50      1.0000 0.15480  0.65070  0.54650  Biso   1.000  C
  H15      1.0000 0.17200  0.65410  0.57210  Biso   1.000  H
  C51      1.0000 0.16180  0.75680  0.35091  Biso   1.000  C
  C52      1.0000 0.18000  0.74350  0.38886  Biso   1.000  C
  C53      1.0000 0.16080  0.70560  0.52430  Biso   1.000  C
  C54      1.0000 0.55800  0.85710  0.47850  Biso   1.000  C
  C55      1.0000 0.14600  0.75810  0.46570  Biso   1.000  C
  H16      1.0000 0.12810  0.75360  0.43880  Biso   1.000  H
  C56      1.0000 0.50680  0.85970  0.47050  Biso   1.000  C
  H17      1.0000 0.48420  0.85110  0.44440  Biso   1.000  H
  C57      1.0000 0.13550  0.69920  0.48560  Biso   1.000  C
  C58      1.0000 0.31280  0.37280  0.51630  Biso   1.000  C
  H18      1.0000 0.33420  0.38140  0.54260  Biso   1.000  H
  C59      1.0000 0.27870  0.50350  0.51340  Biso   1.000  C
  H19      1.0000 0.30050  0.51380  0.53780  Biso   1.000  H
  C60      1.0000 0.46780  0.75110  0.48670  Biso   1.000  C
  H20      1.0000 0.44590  0.74510  0.46190  Biso   1.000  H
  C61      1.0000 0.21420  0.47650  0.43910  Biso   1.000  C
  H21      1.0000 0.19320  0.46770  0.41430  Biso   1.000  H
  C62      1.0000 0.57610  0.84090  0.45450  Biso   1.000  C
  H22      1.0000 0.55540  0.82950  0.43000  Biso   1.000  H
  C63      1.0000 0.30880  0.34580  0.45790  Biso   1.000  C
  C64      1.0000 0.32340  0.33410  0.43230  Biso   1.000  C
  H23      1.0000 0.30130  0.32970  0.40740  Biso   1.000  H
  C65      1.0000 0.56580  0.88130  0.53865  Biso   1.000  C
  H24      1.0000 0.58820  0.88990  0.56470  Biso   1.000  H
  C66      1.0000 0.58960  0.86860  0.51700  Biso   1.000  C
  C67      1.0000 0.15810  0.89810  0.53390  Biso   1.000  C
  H25      1.0000 0.17390  0.90040  0.55950  Biso   1.000  H
  C68      1.0000 0.24430  0.55270  0.49150  Biso   1.000  C
  H26      1.0000 0.24240  0.59700  0.50140  Biso   1.000  H
  C69      1.0000 0.19390  0.76940  0.53770  Biso   1.000  C
  H27      1.0000 0.21170  0.77270  0.56460  Biso   1.000  H
  C70      1.0000 0.50060  0.71780  0.54940  Biso   1.000  C
  H28      1.0000 0.50040  0.68750  0.56740  Biso   1.000  H
  C71      1.0000 0.46660  0.70620  0.51180  Biso   1.000  C
  H29      1.0000 0.44450  0.66900  0.50490  Biso   1.000  H
  C72      1.0000 0.10630  0.94640  0.47550  Biso   1.000  C
  H30      1.0000 0.08730  0.98490  0.46190  Biso   1.000  H
  C73      1.0000 0.62480  0.84170  0.46700  Biso   1.000  C
  H31      1.0000 0.63650  0.83190  0.45070  Biso   1.000  H
  C74      1.0000 0.36880  0.32910  0.44290  Biso   1.000  C
  H32      1.0000 0.37880  0.31960  0.42550  Biso   1.000  H
  C75      1.0000 0.40240  0.33780  0.47970  Biso   1.000  C
  H33      1.0000 0.43480  0.33410  0.48750  Biso   1.000  H
  C76      1.0000 0.10430  0.64240  0.47000  Biso   1.000  C
  H34      1.0000 0.08630  0.63870  0.44450  Biso   1.000  H
  C77      1.0000 0.10010  0.59130  0.49240  Biso   1.000  C
  H35      1.0000 0.07980  0.55240  0.48140  Biso   1.000  H
  C78      1.0000 0.12530  0.59490  0.53140  Biso   1.000  C
  H36      1.0000 0.12130  0.55980  0.54590  Biso   1.000  H
  C79      1.0000 0.21200  0.53690  0.45440  Biso   1.000  C
  H37      1.0000 0.18860  0.57060  0.44050  Biso   1.000  H
  C80      1.0000 0.65580  0.85700  0.50360  Biso   1.000  C
  H38      1.0000 0.68820  0.86070  0.51170  Biso   1.000  H
  C81      1.0000 0.13230  0.95410  0.51610  Biso   1.000  C
  H39      1.0000 0.13040  0.99570  0.52810  Biso   1.000  H
  Cu4      1.0000 0.71781  0.67692  0.22179  Biso   1.000  Cu
  Cu5      1.0000 0.77816  0.75088  0.28090  Biso   1.000  Cu
  Cu6      1.0000 0.49395  0.46391  0.27988  Biso   1.000  Cu
  O13      1.0000 0.76109  0.33350  0.24829  Biso   1.000  O
  O14      1.0000 0.81278  0.27020  0.29822  Biso   1.000  O
  O15      1.0000 0.73385  0.73170  0.29916  Biso   1.000  O
  O16      1.0000 0.80635  0.65320  0.29937  Biso   1.000  O
  O17      1.0000 0.54557  0.39100  0.29632  Biso   1.000  O
  O18      1.0000 0.68310  0.66850  0.24977  Biso   1.000  O
  O19      1.0000 0.75600  0.59330  0.24852  Biso   1.000  O
  O20      1.0000 0.55396  0.53580  0.25045  Biso   1.000  O
  O21      1.0000 0.54207  0.54020  0.29915  Biso   1.000  O
  O22      1.0000 0.55220  0.38790  0.24452  Biso   1.000  O
  O23      1.0000 0.73654  0.19840  0.29581  Biso   1.000  O
  O24      1.0000 0.68448  0.26090  0.24471  Biso   1.000  O
  C82      1.0000 0.56530  0.55540  0.28137  Biso   1.000  C
  C83      1.0000 0.70119  0.24080  0.27753  Biso   1.000  C
  C84      1.0000 0.72480  0.24300  0.46139  Biso   1.000  C
  C85      1.0000 0.69260  0.71590  0.42408  Biso   1.000  C
  C86      1.0000 0.79603  0.32950  0.28019  Biso   1.000  C
  C87      1.0000 0.81650  0.39870  0.29922  Biso   1.000  C
  C88      1.0000 0.66800  0.67590  0.29978  Biso   1.000  C
  C89      1.0000 0.78755  0.60020  0.28127  Biso   1.000  C
  C90      1.0000 0.96940  0.48690  0.46231  Biso   1.000  C
  C91      1.0000 0.71950  0.73410  0.46158  Biso   1.000  C
  C92      1.0000 0.62867  0.63230  0.28228  Biso   1.000  C
  H40      1.0000 0.61870  0.61740  0.25810  Biso   1.000  H
  C93      1.0000 0.79806  0.46390  0.28154  Biso   1.000  C
  H41      1.0000 0.77470  0.46380  0.25690  Biso   1.000  H
  C94      1.0000 0.60373  0.61010  0.30023  Biso   1.000  C
  C95      1.0000 0.62043  0.29830  0.33202  Biso   1.000  C
  H42      1.0000 0.60330  0.31150  0.34400  Biso   1.000  H
  C96      1.0000 0.56376  0.36970  0.27714  Biso   1.000  C
  C97      1.0000 0.67410  0.69960  0.39217  Biso   1.000  C
  C98      1.0000 0.00150  0.43630  0.48406  Biso   1.000  C
  C99      1.0000 0.69694  0.69560  0.28124  Biso   1.000  C
  C100     1.0000 0.85300  0.39860  0.33627  Biso   1.000  C
  H43      1.0000 0.86540  0.35520  0.34860  Biso   1.000  H
  C101     1.0000 0.84950  0.52840  0.33571  Biso   1.000  C
  H44      1.0000 0.86010  0.57250  0.34780  Biso   1.000  H
  C102     1.0000 0.61770  0.63410  0.33629  Biso   1.000  C
  H45      1.0000 0.60080  0.62000  0.34830  Biso   1.000  H
  C103     1.0000 0.60413  0.32060  0.29518  Biso   1.000  C
  C104     1.0000 0.74920  0.92350  0.46070  Biso   1.000  C
  C105     1.0000 0.62950  0.29550  0.27695  Biso   1.000  C
  H46      1.0000 0.61800  0.30570  0.25200  Biso   1.000  H
  C106     1.0000 0.93530  0.47520  0.42386  Biso   1.000  C
  C107     1.0000 0.68330  0.69870  0.33617  Biso   1.000  C
  H47      1.0000 0.71060  0.72670  0.34840  Biso   1.000  H
  C108     1.0000 0.67080  0.25620  0.29569  Biso   1.000  C
  C109     1.0000 0.70040  0.25200  0.48130  Biso   1.000  C
  C110     1.0000 0.81330  0.52730  0.29930  Biso   1.000  C
  C111     1.0000 0.87010  0.46470  0.35407  Biso   1.000  C
  C112     1.0000 0.69940  0.23990  0.42143  Biso   1.000  C
  C113     1.0000 0.75110  0.79440  0.47395  Biso   1.000  C
  C114     1.0000 0.00050  0.30570  0.49700  Biso   1.000  C
  C115     1.0000 0.68590  0.23570  0.33230  Biso   1.000  C
  H48      1.0000 0.71290  0.20710  0.34440  Biso   1.000  H
  C116     1.0000 0.90670  0.46760  0.39215  Biso   1.000  C
  C117     1.0000 0.03230  0.31720  0.53340  Biso   1.000  C
  C118     1.0000 0.03430  0.27350  0.56020  Biso   1.000  C
  H49      1.0000 0.05690  0.27990  0.58480  Biso   1.000  H
  C119     1.0000 0.77900  0.93730  0.49700  Biso   1.000  C
  C120     1.0000 0.72050  0.69300  0.49087  Biso   1.000  C
  C121     1.0000 0.83900  0.85600  0.49410  Biso   1.000  C
  C122     1.0000 0.96865  0.55340  0.47927  Biso   1.000  C
  C123     1.0000 0.77460  0.24120  0.47993  Biso   1.000  C
  C124     1.0000 0.13810  0.36680  0.52830  Biso   1.000  C
  H50      1.0000 0.15950  0.37230  0.55330  Biso   1.000  H
  C125     1.0000 0.65710  0.67900  0.35393  Biso   1.000  C
  C126     1.0000 0.75580  0.84800  0.44711  Biso   1.000  C
  H51      1.0000 0.73420  0.83840  0.42100  Biso   1.000  H
  C127     1.0000 0.63890  0.32960  0.47980  Biso   1.000  C
  C128     1.0000 0.88500  0.85260  0.50490  Biso   1.000  C
  H52      1.0000 0.90650  0.86020  0.52960  Biso   1.000  H
  C129     1.0000 0.66370  0.33990  0.51890  Biso   1.000  C
  C130     1.0000 0.60800  0.38660  0.45640  Biso   1.000  C
  H53      1.0000 0.59110  0.38290  0.43080  Biso   1.000  H
  C131     1.0000 0.65480  0.15070  0.54650  Biso   1.000  C
  H54      1.0000 0.67200  0.15410  0.57210  Biso   1.000  H
  C132     1.0000 0.66180  0.25680  0.35091  Biso   1.000  C
  C133     1.0000 0.68000  0.24350  0.38886  Biso   1.000  C
  C134     1.0000 0.66080  0.20560  0.52430  Biso   1.000  C
  C135     1.0000 0.05800  0.35710  0.47850  Biso   1.000  C
  C136     1.0000 0.64600  0.25810  0.46570  Biso   1.000  C
  H55      1.0000 0.62810  0.25360  0.43880  Biso   1.000  H
  C137     1.0000 0.00680  0.35970  0.47050  Biso   1.000  C
  H56      1.0000 0.98420  0.35110  0.44440  Biso   1.000  H
  C138     1.0000 0.63550  0.19920  0.48560  Biso   1.000  C
  C139     1.0000 0.81280  0.87280  0.51630  Biso   1.000  C
  H57      1.0000 0.83420  0.88140  0.54260  Biso   1.000  H
  C140     1.0000 0.77870  0.00350  0.51340  Biso   1.000  C
  H58      1.0000 0.80050  0.01380  0.53780  Biso   1.000  H
  C141     1.0000 0.96780  0.25110  0.48670  Biso   1.000  C
  H59      1.0000 0.94590  0.24510  0.46190  Biso   1.000  H
  C142     1.0000 0.71420  0.97650  0.43910  Biso   1.000  C
  H60      1.0000 0.69320  0.96770  0.41430  Biso   1.000  H
  C143     1.0000 0.07610  0.34090  0.45450  Biso   1.000  C
  H61      1.0000 0.05540  0.32950  0.43000  Biso   1.000  H
  C144     1.0000 0.80880  0.84580  0.45790  Biso   1.000  C
  C145     1.0000 0.82340  0.83410  0.43230  Biso   1.000  C
  H62      1.0000 0.80130  0.82970  0.40740  Biso   1.000  H
  C146     1.0000 0.06580  0.38130  0.53865  Biso   1.000  C
  H63      1.0000 0.08820  0.38990  0.56470  Biso   1.000  H
  C147     1.0000 0.08960  0.36860  0.51700  Biso   1.000  C
  C148     1.0000 0.65810  0.39810  0.53390  Biso   1.000  C
  H64      1.0000 0.67390  0.40040  0.55950  Biso   1.000  H
  C149     1.0000 0.74430  0.05270  0.49150  Biso   1.000  C
  H65      1.0000 0.74240  0.09700  0.50140  Biso   1.000  H
  C150     1.0000 0.69390  0.26940  0.53770  Biso   1.000  C
  H66      1.0000 0.71170  0.27270  0.56460  Biso   1.000  H
  C151     1.0000 0.00060  0.21780  0.54940  Biso   1.000  C
  H67      1.0000 0.00040  0.18750  0.56740  Biso   1.000  H
  C152     1.0000 0.96660  0.20620  0.51180  Biso   1.000  C
  H68      1.0000 0.94450  0.16900  0.50490  Biso   1.000  H
  C153     1.0000 0.60630  0.44640  0.47550  Biso   1.000  C
  H69      1.0000 0.58730  0.48490  0.46190  Biso   1.000  H
  C154     1.0000 0.12480  0.34170  0.46700  Biso   1.000  C
  H70      1.0000 0.13650  0.33190  0.45070  Biso   1.000  H
  C155     1.0000 0.86880  0.82910  0.44290  Biso   1.000  C
  H71      1.0000 0.87880  0.81960  0.42550  Biso   1.000  H
  C156     1.0000 0.90240  0.83780  0.47970  Biso   1.000  C
  H72      1.0000 0.93480  0.83410  0.48750  Biso   1.000  H
  C157     1.0000 0.60430  0.14240  0.47000  Biso   1.000  C
  H73      1.0000 0.58630  0.13870  0.44450  Biso   1.000  H
  C158     1.0000 0.60010  0.09130  0.49240  Biso   1.000  C
  H74      1.0000 0.57980  0.05240  0.48140  Biso   1.000  H
  C159     1.0000 0.62530  0.09490  0.53140  Biso   1.000  C
  H75      1.0000 0.62130  0.05980  0.54590  Biso   1.000  H
  C160     1.0000 0.71200  0.03690  0.45440  Biso   1.000  C
  H76      1.0000 0.68860  0.07060  0.44050  Biso   1.000  H
  C161     1.0000 0.15580  0.35700  0.50360  Biso   1.000  C
  H77      1.0000 0.18820  0.36070  0.51170  Biso   1.000  H
  C162     1.0000 0.63230  0.45410  0.51610  Biso   1.000  C
  H78      1.0000 0.63040  0.49570  0.52810  Biso   1.000  H
  Cu7      1.0000 0.78219  0.17692  0.27821  Biso   1.000  Cu
  Cu8      1.0000 0.72184  0.25088  0.21909  Biso   1.000  Cu
  Cu9      1.0000 0.00605  0.96391  0.22012  Biso   1.000  Cu
  O25      1.0000 0.73891  0.83350  0.25171  Biso   1.000  O
  O26      1.0000 0.68722  0.77020  0.20178  Biso   1.000  O
  O27      1.0000 0.76615  0.23170  0.20084  Biso   1.000  O
  O28      1.0000 0.69365  0.15320  0.20063  Biso   1.000  O
  O29      1.0000 0.95443  0.89100  0.20368  Biso   1.000  O
  O30      1.0000 0.81690  0.16850  0.25023  Biso   1.000  O
  O31      1.0000 0.74400  0.09330  0.25148  Biso   1.000  O
  O32      1.0000 0.94604  0.03580  0.24955  Biso   1.000  O
  O33      1.0000 0.95793  0.04020  0.20085  Biso   1.000  O
  O34      1.0000 0.94780  0.88790  0.25548  Biso   1.000  O
  O35      1.0000 0.76346  0.69840  0.20419  Biso   1.000  O
  O36      1.0000 0.81552  0.76090  0.25529  Biso   1.000  O
  C163     1.0000 0.93470  0.05540  0.21863  Biso   1.000  C
  C164     1.0000 0.79881  0.74080  0.22247  Biso   1.000  C
  C165     1.0000 0.77520  0.74300  0.03861  Biso   1.000  C
  C166     1.0000 0.80740  0.21590  0.07592  Biso   1.000  C
  C167     1.0000 0.70397  0.82950  0.21981  Biso   1.000  C
  C168     1.0000 0.68350  0.89870  0.20078  Biso   1.000  C
  C169     1.0000 0.83200  0.17590  0.20022  Biso   1.000  C
  C170     1.0000 0.71245  0.10020  0.21873  Biso   1.000  C
  C171     1.0000 0.53060  0.98690  0.03769  Biso   1.000  C
  C172     1.0000 0.78050  0.23410  0.03842  Biso   1.000  C
  C173     1.0000 0.87133  0.13230  0.21772  Biso   1.000  C
  H79      1.0000 0.88130  0.11740  0.24190  Biso   1.000  H
  C174     1.0000 0.70194  0.96390  0.21846  Biso   1.000  C
  H80      1.0000 0.72530  0.96380  0.24310  Biso   1.000  H
  C175     1.0000 0.89627  0.11010  0.19977  Biso   1.000  C
  C176     1.0000 0.87957  0.79830  0.16798  Biso   1.000  C
  H81      1.0000 0.89670  0.81150  0.15600  Biso   1.000  H
  C177     1.0000 0.93624  0.86970  0.22286  Biso   1.000  C
  C178     1.0000 0.82590  0.19960  0.10783  Biso   1.000  C
  C179     1.0000 0.49850  0.93630  0.01594  Biso   1.000  C
  C180     1.0000 0.80306  0.19560  0.21876  Biso   1.000  C
  C181     1.0000 0.64700  0.89860  0.16373  Biso   1.000  C
  H82      1.0000 0.63460  0.85520  0.15140  Biso   1.000  H
  C182     1.0000 0.65050  0.02840  0.16429  Biso   1.000  C
  H83      1.0000 0.63990  0.07250  0.15220  Biso   1.000  H
  C183     1.0000 0.88230  0.13410  0.16371  Biso   1.000  C
  H84      1.0000 0.89920  0.12000  0.15170  Biso   1.000  H
  C184     1.0000 0.89587  0.82060  0.20482  Biso   1.000  C
  C185     1.0000 0.75080  0.42350  0.03930  Biso   1.000  C
  C186     1.0000 0.87050  0.79550  0.22305  Biso   1.000  C
  H85      1.0000 0.88200  0.80570  0.24800  Biso   1.000  H
  C187     1.0000 0.56470  0.97520  0.07614  Biso   1.000  C
  C188     1.0000 0.81670  0.19870  0.16383  Biso   1.000  C
  H86      1.0000 0.78940  0.22670  0.15160  Biso   1.000  H
  C189     1.0000 0.82920  0.75620  0.20431  Biso   1.000  C
  C190     1.0000 0.79960  0.75200  0.01870  Biso   1.000  C
  C191     1.0000 0.68670  0.02730  0.20070  Biso   1.000  C
  C192     1.0000 0.62990  0.96470  0.14593  Biso   1.000  C
  C193     1.0000 0.80060  0.73990  0.07857  Biso   1.000  C
  C194     1.0000 0.74890  0.29440  0.02605  Biso   1.000  C
  C195     1.0000 0.49950  0.80570  0.00300  Biso   1.000  C
  C196     1.0000 0.81410  0.73570  0.16770  Biso   1.000  C
  H87      1.0000 0.78710  0.70710  0.15560  Biso   1.000  H
  C197     1.0000 0.59330  0.96760  0.10785  Biso   1.000  C
  C198     1.0000 0.46770  0.81720  0.96660  Biso   1.000  C
  C199     1.0000 0.46570  0.77350  0.93980  Biso   1.000  C
  H88      1.0000 0.44310  0.77990  0.91520  Biso   1.000  H
  C200     1.0000 0.72100  0.43730  0.00300  Biso   1.000  C
  C201     1.0000 0.77950  0.19300  0.00913  Biso   1.000  C
  C202     1.0000 0.66100  0.35600  0.00590  Biso   1.000  C
  C203     1.0000 0.53135  0.05340  0.02073  Biso   1.000  C
  C204     1.0000 0.72540  0.74120  0.02007  Biso   1.000  C
  C205     1.0000 0.36190  0.86680  0.97170  Biso   1.000  C
  H89      1.0000 0.34050  0.87230  0.94670  Biso   1.000  H
  C206     1.0000 0.84290  0.17900  0.14607  Biso   1.000  C
  C207     1.0000 0.74420  0.34800  0.05289  Biso   1.000  C
  H90      1.0000 0.76580  0.33840  0.07900  Biso   1.000  H
  C208     1.0000 0.86110  0.82960  0.02020  Biso   1.000  C
  C209     1.0000 0.61500  0.35260  0.99510  Biso   1.000  C
  H91      1.0000 0.59350  0.36020  0.97040  Biso   1.000  H
  C210     1.0000 0.83630  0.83990  0.98110  Biso   1.000  C
  C211     1.0000 0.89200  0.88660  0.04360  Biso   1.000  C
  H92      1.0000 0.90890  0.88290  0.06920  Biso   1.000  H
  C212     1.0000 0.84520  0.65070  0.95350  Biso   1.000  C
  H93      1.0000 0.82800  0.65410  0.92790  Biso   1.000  H
  C213     1.0000 0.83820  0.75680  0.14909  Biso   1.000  C
  C214     1.0000 0.82000  0.74350  0.11114  Biso   1.000  C
  C215     1.0000 0.83920  0.70560  0.97570  Biso   1.000  C
  C216     1.0000 0.44200  0.85710  0.02150  Biso   1.000  C
  C217     1.0000 0.85400  0.75810  0.03430  Biso   1.000  C
  H94      1.0000 0.87190  0.75360  0.06120  Biso   1.000  H
  C218     1.0000 0.49320  0.85970  0.02950  Biso   1.000  C
  H95      1.0000 0.51580  0.85110  0.05560  Biso   1.000  H
  C219     1.0000 0.86450  0.69920  0.01440  Biso   1.000  C
  C220     1.0000 0.68720  0.37280  0.98370  Biso   1.000  C
  H96      1.0000 0.66580  0.38140  0.95740  Biso   1.000  H
  C221     1.0000 0.72130  0.50350  0.98660  Biso   1.000  C
  H97      1.0000 0.69950  0.51380  0.96220  Biso   1.000  H
  C222     1.0000 0.53220  0.75110  0.01330  Biso   1.000  C
  H98      1.0000 0.55410  0.74510  0.03810  Biso   1.000  H
  C223     1.0000 0.78580  0.47650  0.06090  Biso   1.000  C
  H99      1.0000 0.80680  0.46770  0.08570  Biso   1.000  H
  C224     1.0000 0.42390  0.84090  0.04550  Biso   1.000  C
  H100     1.0000 0.44460  0.82950  0.07000  Biso   1.000  H
  C225     1.0000 0.69120  0.34580  0.04210  Biso   1.000  C
  C226     1.0000 0.67660  0.33410  0.06770  Biso   1.000  C
  H101     1.0000 0.69870  0.32970  0.09260  Biso   1.000  H
  C227     1.0000 0.43420  0.88130  0.96135  Biso   1.000  C
  H102     1.0000 0.41180  0.88990  0.93530  Biso   1.000  H
  C228     1.0000 0.41040  0.86860  0.98300  Biso   1.000  C
  C229     1.0000 0.84190  0.89810  0.96610  Biso   1.000  C
  H103     1.0000 0.82610  0.90040  0.94050  Biso   1.000  H
  C230     1.0000 0.75570  0.55270  0.00850  Biso   1.000  C
  H104     1.0000 0.75760  0.59700  0.99860  Biso   1.000  H
  C231     1.0000 0.80610  0.76940  0.96230  Biso   1.000  C
  H105     1.0000 0.78830  0.77270  0.93540  Biso   1.000  H
  C232     1.0000 0.49940  0.71780  0.95060  Biso   1.000  C
  H106     1.0000 0.49960  0.68750  0.93260  Biso   1.000  H
  C233     1.0000 0.53340  0.70620  0.98820  Biso   1.000  C
  H107     1.0000 0.55550  0.66900  0.99510  Biso   1.000  H
  C234     1.0000 0.89370  0.94640  0.02450  Biso   1.000  C
  H108     1.0000 0.91270  0.98490  0.03810  Biso   1.000  H
  C235     1.0000 0.37520  0.84170  0.03300  Biso   1.000  C
  H109     1.0000 0.36350  0.83190  0.04930  Biso   1.000  H
  C236     1.0000 0.63120  0.32910  0.05710  Biso   1.000  C
  H110     1.0000 0.62120  0.31960  0.07450  Biso   1.000  H
  C237     1.0000 0.59760  0.33780  0.02030  Biso   1.000  C
  H111     1.0000 0.56520  0.33410  0.01250  Biso   1.000  H
  C238     1.0000 0.89570  0.64240  0.03000  Biso   1.000  C
  H112     1.0000 0.91370  0.63870  0.05550  Biso   1.000  H
  C239     1.0000 0.89990  0.59130  0.00760  Biso   1.000  C
  H113     1.0000 0.92020  0.55240  0.01860  Biso   1.000  H
  C240     1.0000 0.87470  0.59490  0.96860  Biso   1.000  C
  H114     1.0000 0.87870  0.55980  0.95410  Biso   1.000  H
  C241     1.0000 0.78800  0.53690  0.04560  Biso   1.000  C
  H115     1.0000 0.81140  0.57060  0.05950  Biso   1.000  H
  C242     1.0000 0.34420  0.85700  0.99640  Biso   1.000  C
  H116     1.0000 0.31180  0.86070  0.98830  Biso   1.000  H
  C243     1.0000 0.86770  0.95410  0.98390  Biso   1.000  C
  H117     1.0000 0.86960  0.99570  0.97190  Biso   1.000  H
  Cu10     1.0000 0.28219  0.67692  0.27821  Biso   1.000  Cu
  Cu11     1.0000 0.22184  0.75088  0.21910  Biso   1.000  Cu
  Cu12     1.0000 0.50605  0.46391  0.22012  Biso   1.000  Cu
  O37      1.0000 0.23891  0.33350  0.25171  Biso   1.000  O
  O38      1.0000 0.18722  0.27020  0.20178  Biso   1.000  O
  O39      1.0000 0.26615  0.73170  0.20084  Biso   1.000  O
  O40      1.0000 0.19365  0.65320  0.20063  Biso   1.000  O
  O41      1.0000 0.45443  0.39100  0.20368  Biso   1.000  O
  O42      1.0000 0.31690  0.66850  0.25023  Biso   1.000  O
  O43      1.0000 0.24400  0.59330  0.25148  Biso   1.000  O
  O44      1.0000 0.44604  0.53580  0.24955  Biso   1.000  O
  O45      1.0000 0.45793  0.54020  0.20085  Biso   1.000  O
  O46      1.0000 0.44780  0.38790  0.25548  Biso   1.000  O
  O47      1.0000 0.26346  0.19840  0.20419  Biso   1.000  O
  O48      1.0000 0.31552  0.26090  0.25529  Biso   1.000  O
  C244     1.0000 0.43470  0.55540  0.21863  Biso   1.000  C
  C245     1.0000 0.29881  0.24080  0.22247  Biso   1.000  C
  C246     1.0000 0.27520  0.24300  0.03861  Biso   1.000  C
  C247     1.0000 0.30740  0.71590  0.07592  Biso   1.000  C
  C248     1.0000 0.20397  0.32950  0.21981  Biso   1.000  C
  C249     1.0000 0.18350  0.39870  0.20078  Biso   1.000  C
  C250     1.0000 0.33200  0.67590  0.20022  Biso   1.000  C
  C251     1.0000 0.21245  0.60020  0.21873  Biso   1.000  C
  C252     1.0000 0.03060  0.48690  0.03769  Biso   1.000  C
  C253     1.0000 0.28050  0.73410  0.03842  Biso   1.000  C
  C254     1.0000 0.37133  0.63230  0.21772  Biso   1.000  C
  H118     1.0000 0.38130  0.61740  0.24190  Biso   1.000  H
  C255     1.0000 0.20194  0.46390  0.21846  Biso   1.000  C
  H119     1.0000 0.22530  0.46380  0.24310  Biso   1.000  H
  C256     1.0000 0.39627  0.61010  0.19977  Biso   1.000  C
  C257     1.0000 0.37957  0.29830  0.16798  Biso   1.000  C
  H120     1.0000 0.39670  0.31150  0.15600  Biso   1.000  H
  C258     1.0000 0.43624  0.36970  0.22286  Biso   1.000  C
  C259     1.0000 0.32590  0.69960  0.10783  Biso   1.000  C
  C260     1.0000 0.99850  0.43630  0.01594  Biso   1.000  C
  C261     1.0000 0.30306  0.69560  0.21876  Biso   1.000  C
  C262     1.0000 0.14700  0.39860  0.16373  Biso   1.000  C
  H121     1.0000 0.13460  0.35520  0.15140  Biso   1.000  H
  C263     1.0000 0.15050  0.52840  0.16429  Biso   1.000  C
  H122     1.0000 0.13990  0.57250  0.15220  Biso   1.000  H
  C264     1.0000 0.38230  0.63410  0.16371  Biso   1.000  C
  H123     1.0000 0.39920  0.62000  0.15170  Biso   1.000  H
  C265     1.0000 0.39587  0.32060  0.20482  Biso   1.000  C
  C266     1.0000 0.25080  0.92350  0.03930  Biso   1.000  C
  C267     1.0000 0.37050  0.29550  0.22305  Biso   1.000  C
  H124     1.0000 0.38200  0.30570  0.24800  Biso   1.000  H
  C268     1.0000 0.06470  0.47520  0.07614  Biso   1.000  C
  C269     1.0000 0.31670  0.69870  0.16383  Biso   1.000  C
  H125     1.0000 0.28940  0.72670  0.15160  Biso   1.000  H
  C270     1.0000 0.32920  0.25620  0.20431  Biso   1.000  C
  C271     1.0000 0.29960  0.25200  0.01870  Biso   1.000  C
  C272     1.0000 0.18670  0.52730  0.20070  Biso   1.000  C
  C273     1.0000 0.12990  0.46470  0.14593  Biso   1.000  C
  C274     1.0000 0.30060  0.23990  0.07857  Biso   1.000  C
  C275     1.0000 0.24890  0.79440  0.02605  Biso   1.000  C
  C276     1.0000 0.99950  0.30570  0.00300  Biso   1.000  C
  C277     1.0000 0.31410  0.23570  0.16770  Biso   1.000  C
  H126     1.0000 0.28710  0.20710  0.15560  Biso   1.000  H
  C278     1.0000 0.09330  0.46760  0.10785  Biso   1.000  C
  C279     1.0000 0.96770  0.31720  0.96660  Biso   1.000  C
  C280     1.0000 0.96570  0.27350  0.93980  Biso   1.000  C
  H127     1.0000 0.94310  0.27990  0.91520  Biso   1.000  H
  C281     1.0000 0.22100  0.93730  0.00300  Biso   1.000  C
  C282     1.0000 0.27950  0.69300  0.00913  Biso   1.000  C
  C283     1.0000 0.16100  0.85600  0.00590  Biso   1.000  C
  C284     1.0000 0.03135  0.55340  0.02073  Biso   1.000  C
  C285     1.0000 0.22540  0.24120  0.02007  Biso   1.000  C
  C286     1.0000 0.86190  0.36680  0.97170  Biso   1.000  C
  H128     1.0000 0.84050  0.37230  0.94670  Biso   1.000  H
  C287     1.0000 0.34290  0.67900  0.14607  Biso   1.000  C
  C288     1.0000 0.24420  0.84800  0.05289  Biso   1.000  C
  H129     1.0000 0.26580  0.83840  0.07900  Biso   1.000  H
  C289     1.0000 0.36110  0.32960  0.02020  Biso   1.000  C
  C290     1.0000 0.11500  0.85260  0.99510  Biso   1.000  C
  H130     1.0000 0.09350  0.86020  0.97040  Biso   1.000  H
  C291     1.0000 0.33630  0.33990  0.98110  Biso   1.000  C
  C292     1.0000 0.39200  0.38660  0.04360  Biso   1.000  C
  H131     1.0000 0.40890  0.38290  0.06920  Biso   1.000  H
  C293     1.0000 0.34520  0.15070  0.95350  Biso   1.000  C
  H132     1.0000 0.32800  0.15410  0.92790  Biso   1.000  H
  C294     1.0000 0.33820  0.25680  0.14909  Biso   1.000  C
  C295     1.0000 0.32000  0.24350  0.11114  Biso   1.000  C
  C296     1.0000 0.33920  0.20560  0.97570  Biso   1.000  C
  C297     1.0000 0.94200  0.35710  0.02150  Biso   1.000  C
  C298     1.0000 0.35400  0.25810  0.03430  Biso   1.000  C
  H133     1.0000 0.37190  0.25360  0.06120  Biso   1.000  H
  C299     1.0000 0.99320  0.35970  0.02950  Biso   1.000  C
  H134     1.0000 0.01580  0.35110  0.05560  Biso   1.000  H
  C300     1.0000 0.36450  0.19920  0.01440  Biso   1.000  C
  C301     1.0000 0.18720  0.87280  0.98370  Biso   1.000  C
  H135     1.0000 0.16580  0.88140  0.95740  Biso   1.000  H
  C302     1.0000 0.22130  0.00350  0.98660  Biso   1.000  C
  H136     1.0000 0.19950  0.01380  0.96220  Biso   1.000  H
  C303     1.0000 0.03220  0.25110  0.01330  Biso   1.000  C
  H137     1.0000 0.05410  0.24510  0.03810  Biso   1.000  H
  C304     1.0000 0.28580  0.97650  0.06090  Biso   1.000  C
  H138     1.0000 0.30680  0.96770  0.08570  Biso   1.000  H
  C305     1.0000 0.92390  0.34090  0.04550  Biso   1.000  C
  H139     1.0000 0.94460  0.32950  0.07000  Biso   1.000  H
  C306     1.0000 0.19120  0.84580  0.04210  Biso   1.000  C
  C307     1.0000 0.17660  0.83410  0.06770  Biso   1.000  C
  H140     1.0000 0.19870  0.82970  0.09260  Biso   1.000  H
  C308     1.0000 0.93420  0.38130  0.96135  Biso   1.000  C
  H141     1.0000 0.91180  0.38990  0.93530  Biso   1.000  H
  C309     1.0000 0.91040  0.36860  0.98300  Biso   1.000  C
  C310     1.0000 0.34190  0.39810  0.96610  Biso   1.000  C
  H142     1.0000 0.32610  0.40040  0.94050  Biso   1.000  H
  C311     1.0000 0.25570  0.05270  0.00850  Biso   1.000  C
  H143     1.0000 0.25760  0.09700  0.99860  Biso   1.000  H
  C312     1.0000 0.30610  0.26940  0.96230  Biso   1.000  C
  H144     1.0000 0.28830  0.27270  0.93540  Biso   1.000  H
  C313     1.0000 0.99940  0.21780  0.95060  Biso   1.000  C
  H145     1.0000 0.99960  0.18750  0.93260  Biso   1.000  H
  C314     1.0000 0.03340  0.20620  0.98820  Biso   1.000  C
  H146     1.0000 0.05550  0.16900  0.99510  Biso   1.000  H
  C315     1.0000 0.39370  0.44640  0.02450  Biso   1.000  C
  H147     1.0000 0.41270  0.48490  0.03810  Biso   1.000  H
  C316     1.0000 0.87520  0.34170  0.03300  Biso   1.000  C
  H148     1.0000 0.86350  0.33190  0.04930  Biso   1.000  H
  C317     1.0000 0.13120  0.82910  0.05710  Biso   1.000  C
  H149     1.0000 0.12120  0.81960  0.07450  Biso   1.000  H
  C318     1.0000 0.09760  0.83780  0.02030  Biso   1.000  C
  H150     1.0000 0.06520  0.83410  0.01250  Biso   1.000  H
  C319     1.0000 0.39570  0.14240  0.03000  Biso   1.000  C
  H151     1.0000 0.41370  0.13870  0.05550  Biso   1.000  H
  C320     1.0000 0.39990  0.09130  0.00760  Biso   1.000  C
  H152     1.0000 0.42020  0.05240  0.01860  Biso   1.000  H
  C321     1.0000 0.37470  0.09490  0.96860  Biso   1.000  C
  H153     1.0000 0.37870  0.05980  0.95410  Biso   1.000  H
  C322     1.0000 0.28800  0.03690  0.04560  Biso   1.000  C
  H154     1.0000 0.31140  0.07060  0.05950  Biso   1.000  H
  C323     1.0000 0.84420  0.35700  0.99640  Biso   1.000  C
  H155     1.0000 0.81180  0.36070  0.98830  Biso   1.000  H
  C324     1.0000 0.36770  0.45410  0.98390  Biso   1.000  C
  H156     1.0000 0.36960  0.49570  0.97190  Biso   1.000  H
  Cu13     1.0000 0.78219  0.82308  0.77821  Biso   1.000  Cu
  Cu14     1.0000 0.72184  0.74912  0.71910  Biso   1.000  Cu
  Cu15     1.0000 0.00605  0.03609  0.72012  Biso   1.000  Cu
  O49      1.0000 0.73891  0.16650  0.75171  Biso   1.000  O
  O50      1.0000 0.68722  0.22980  0.70178  Biso   1.000  O
  O51      1.0000 0.76615  0.76830  0.70084  Biso   1.000  O
  O52      1.0000 0.69365  0.84680  0.70063  Biso   1.000  O
  O53      1.0000 0.95443  0.10900  0.70368  Biso   1.000  O
  O54      1.0000 0.81690  0.83150  0.75023  Biso   1.000  O
  O55      1.0000 0.74400  0.90670  0.75148  Biso   1.000  O
  O56      1.0000 0.94604  0.96420  0.74955  Biso   1.000  O
  O57      1.0000 0.95793  0.95980  0.70085  Biso   1.000  O
  O58      1.0000 0.94780  0.11210  0.75548  Biso   1.000  O
  O59      1.0000 0.76346  0.30160  0.70419  Biso   1.000  O
  O60      1.0000 0.81552  0.23910  0.75529  Biso   1.000  O
  C325     1.0000 0.93470  0.94460  0.71863  Biso   1.000  C
  C326     1.0000 0.79881  0.25920  0.72247  Biso   1.000  C
  C327     1.0000 0.77520  0.25700  0.53861  Biso   1.000  C
  C328     1.0000 0.80740  0.78410  0.57592  Biso   1.000  C
  C329     1.0000 0.70397  0.17050  0.71981  Biso   1.000  C
  C330     1.0000 0.68350  0.10130  0.70078  Biso   1.000  C
  C331     1.0000 0.83200  0.82410  0.70022  Biso   1.000  C
  C332     1.0000 0.71245  0.89980  0.71873  Biso   1.000  C
  C333     1.0000 0.53060  0.01310  0.53769  Biso   1.000  C
  C334     1.0000 0.78050  0.76590  0.53842  Biso   1.000  C
  C335     1.0000 0.87133  0.86770  0.71772  Biso   1.000  C
  H157     1.0000 0.88130  0.88260  0.74190  Biso   1.000  H
  C336     1.0000 0.70194  0.03610  0.71846  Biso   1.000  C
  H158     1.0000 0.72530  0.03620  0.74310  Biso   1.000  H
  C337     1.0000 0.89627  0.88990  0.69977  Biso   1.000  C
  C338     1.0000 0.87957  0.20170  0.66798  Biso   1.000  C
  H159     1.0000 0.89670  0.18850  0.65600  Biso   1.000  H
  C339     1.0000 0.93624  0.13030  0.72286  Biso   1.000  C
  C340     1.0000 0.82590  0.80040  0.60783  Biso   1.000  C
  C341     1.0000 0.49850  0.06370  0.51594  Biso   1.000  C
  C342     1.0000 0.80306  0.80440  0.71876  Biso   1.000  C
  C343     1.0000 0.64700  0.10140  0.66373  Biso   1.000  C
  H160     1.0000 0.63460  0.14480  0.65140  Biso   1.000  H
  C344     1.0000 0.65050  0.97160  0.66429  Biso   1.000  C
  H161     1.0000 0.63990  0.92750  0.65220  Biso   1.000  H
  C345     1.0000 0.88230  0.86590  0.66371  Biso   1.000  C
  H162     1.0000 0.89920  0.88000  0.65170  Biso   1.000  H
  C346     1.0000 0.89587  0.17940  0.70482  Biso   1.000  C
  C347     1.0000 0.75080  0.57650  0.53930  Biso   1.000  C
  C348     1.0000 0.87050  0.20450  0.72305  Biso   1.000  C
  H163     1.0000 0.88200  0.19430  0.74800  Biso   1.000  H
  C349     1.0000 0.56470  0.02480  0.57614  Biso   1.000  C
  C350     1.0000 0.81670  0.80130  0.66383  Biso   1.000  C
  H164     1.0000 0.78940  0.77330  0.65160  Biso   1.000  H
  C351     1.0000 0.82920  0.24380  0.70431  Biso   1.000  C
  C352     1.0000 0.79960  0.24800  0.51870  Biso   1.000  C
  C353     1.0000 0.68670  0.97270  0.70070  Biso   1.000  C
  C354     1.0000 0.62990  0.03530  0.64593  Biso   1.000  C
  C355     1.0000 0.80060  0.26010  0.57857  Biso   1.000  C
  C356     1.0000 0.74890  0.70560  0.52605  Biso   1.000  C
  C357     1.0000 0.49950  0.19430  0.50300  Biso   1.000  C
  C358     1.0000 0.81410  0.26430  0.66770  Biso   1.000  C
  H165     1.0000 0.78710  0.29290  0.65560  Biso   1.000  H
  C359     1.0000 0.59330  0.03240  0.60785  Biso   1.000  C
  C360     1.0000 0.46770  0.18280  0.46660  Biso   1.000  C
  C361     1.0000 0.46570  0.22650  0.43980  Biso   1.000  C
  H166     1.0000 0.44310  0.22010  0.41520  Biso   1.000  H
  C362     1.0000 0.72100  0.56270  0.50300  Biso   1.000  C
  C363     1.0000 0.77950  0.80700  0.50913  Biso   1.000  C
  C364     1.0000 0.66100  0.64400  0.50590  Biso   1.000  C
  C365     1.0000 0.53135  0.94660  0.52073  Biso   1.000  C
  C366     1.0000 0.72540  0.25880  0.52007  Biso   1.000  C
  C367     1.0000 0.36190  0.13320  0.47170  Biso   1.000  C
  H167     1.0000 0.34050  0.12770  0.44670  Biso   1.000  H
  C368     1.0000 0.84290  0.82100  0.64607  Biso   1.000  C
  C369     1.0000 0.74420  0.65200  0.55289  Biso   1.000  C
  H168     1.0000 0.76580  0.66160  0.57900  Biso   1.000  H
  C370     1.0000 0.86110  0.17040  0.52020  Biso   1.000  C
  C371     1.0000 0.61500  0.64740  0.49510  Biso   1.000  C
  H169     1.0000 0.59350  0.63980  0.47040  Biso   1.000  H
  C372     1.0000 0.83630  0.16010  0.48110  Biso   1.000  C
  C373     1.0000 0.89200  0.11340  0.54360  Biso   1.000  C
  H170     1.0000 0.90890  0.11710  0.56920  Biso   1.000  H
  C374     1.0000 0.84520  0.34930  0.45350  Biso   1.000  C
  H171     1.0000 0.82800  0.34590  0.42790  Biso   1.000  H
  C375     1.0000 0.83820  0.24320  0.64909  Biso   1.000  C
  C376     1.0000 0.82000  0.25650  0.61114  Biso   1.000  C
  C377     1.0000 0.83920  0.29440  0.47570  Biso   1.000  C
  C378     1.0000 0.44200  0.14290  0.52150  Biso   1.000  C
  C379     1.0000 0.85400  0.24190  0.53430  Biso   1.000  C
  H172     1.0000 0.87190  0.24640  0.56120  Biso   1.000  H
  C380     1.0000 0.49320  0.14030  0.52950  Biso   1.000  C
  H173     1.0000 0.51580  0.14890  0.55560  Biso   1.000  H
  C381     1.0000 0.86450  0.30080  0.51440  Biso   1.000  C
  C382     1.0000 0.68720  0.62720  0.48370  Biso   1.000  C
  H174     1.0000 0.66580  0.61860  0.45740  Biso   1.000  H
  C383     1.0000 0.72130  0.49650  0.48660  Biso   1.000  C
  H175     1.0000 0.69950  0.48620  0.46220  Biso   1.000  H
  C384     1.0000 0.53220  0.24890  0.51330  Biso   1.000  C
  H176     1.0000 0.55410  0.25490  0.53810  Biso   1.000  H
  C385     1.0000 0.78580  0.52350  0.56090  Biso   1.000  C
  H177     1.0000 0.80680  0.53230  0.58570  Biso   1.000  H
  C386     1.0000 0.42390  0.15910  0.54550  Biso   1.000  C
  H178     1.0000 0.44460  0.17050  0.57000  Biso   1.000  H
  C387     1.0000 0.69120  0.65420  0.54210  Biso   1.000  C
  C388     1.0000 0.67660  0.66590  0.56770  Biso   1.000  C
  H179     1.0000 0.69870  0.67030  0.59260  Biso   1.000  H
  C389     1.0000 0.43420  0.11870  0.46135  Biso   1.000  C
  H180     1.0000 0.41180  0.11010  0.43530  Biso   1.000  H
  C390     1.0000 0.41040  0.13140  0.48300  Biso   1.000  C
  C391     1.0000 0.84190  0.10190  0.46610  Biso   1.000  C
  H181     1.0000 0.82610  0.09960  0.44050  Biso   1.000  H
  C392     1.0000 0.75570  0.44730  0.50850  Biso   1.000  C
  H182     1.0000 0.75760  0.40300  0.49860  Biso   1.000  H
  C393     1.0000 0.80610  0.23060  0.46230  Biso   1.000  C
  H183     1.0000 0.78830  0.22730  0.43540  Biso   1.000  H
  C394     1.0000 0.49940  0.28220  0.45060  Biso   1.000  C
  H184     1.0000 0.49960  0.31250  0.43260  Biso   1.000  H
  C395     1.0000 0.53340  0.29380  0.48820  Biso   1.000  C
  H185     1.0000 0.55550  0.33100  0.49510  Biso   1.000  H
  C396     1.0000 0.89370  0.05360  0.52450  Biso   1.000  C
  H186     1.0000 0.91270  0.01510  0.53810  Biso   1.000  H
  C397     1.0000 0.37520  0.15830  0.53300  Biso   1.000  C
  H187     1.0000 0.36350  0.16810  0.54930  Biso   1.000  H
  C398     1.0000 0.63120  0.67090  0.55710  Biso   1.000  C
  H188     1.0000 0.62120  0.68040  0.57450  Biso   1.000  H
  C399     1.0000 0.59760  0.66220  0.52030  Biso   1.000  C
  H189     1.0000 0.56520  0.66590  0.51250  Biso   1.000  H
  C400     1.0000 0.89570  0.35760  0.53000  Biso   1.000  C
  H190     1.0000 0.91370  0.36130  0.55550  Biso   1.000  H
  C401     1.0000 0.89990  0.40870  0.50760  Biso   1.000  C
  H191     1.0000 0.92020  0.44760  0.51860  Biso   1.000  H
  C402     1.0000 0.87470  0.40510  0.46860  Biso   1.000  C
  H192     1.0000 0.87870  0.44020  0.45410  Biso   1.000  H
  C403     1.0000 0.78800  0.46310  0.54560  Biso   1.000  C
  H193     1.0000 0.81140  0.42940  0.55950  Biso   1.000  H
  C404     1.0000 0.34420  0.14300  0.49640  Biso   1.000  C
  H194     1.0000 0.31180  0.13930  0.48830  Biso   1.000  H
  C405     1.0000 0.86770  0.04590  0.48390  Biso   1.000  C
  H195     1.0000 0.86960  0.00430  0.47190  Biso   1.000  H
  Cu16     1.0000 0.28219  0.32308  0.77821  Biso   1.000  Cu
  Cu17     1.0000 0.22184  0.24912  0.71910  Biso   1.000  Cu
  Cu18     1.0000 0.50605  0.53609  0.72012  Biso   1.000  Cu
  O61      1.0000 0.23891  0.66650  0.75171  Biso   1.000  O
  O62      1.0000 0.18722  0.72980  0.70178  Biso   1.000  O
  O63      1.0000 0.26615  0.26830  0.70084  Biso   1.000  O
  O64      1.0000 0.19365  0.34680  0.70063  Biso   1.000  O
  O65      1.0000 0.45443  0.60900  0.70368  Biso   1.000  O
  O66      1.0000 0.31690  0.33150  0.75023  Biso   1.000  O
  O67      1.0000 0.24400  0.40670  0.75148  Biso   1.000  O
  O68      1.0000 0.44604  0.46420  0.74955  Biso   1.000  O
  O69      1.0000 0.45793  0.45980  0.70085  Biso   1.000  O
  O70      1.0000 0.44780  0.61210  0.75548  Biso   1.000  O
  O71      1.0000 0.26346  0.80160  0.70419  Biso   1.000  O
  O72      1.0000 0.31552  0.73910  0.75529  Biso   1.000  O
  C406     1.0000 0.43470  0.44460  0.71863  Biso   1.000  C
  C407     1.0000 0.29881  0.75920  0.72247  Biso   1.000  C
  C408     1.0000 0.27520  0.75700  0.53861  Biso   1.000  C
  C409     1.0000 0.30740  0.28410  0.57592  Biso   1.000  C
  C410     1.0000 0.20397  0.67050  0.71981  Biso   1.000  C
  C411     1.0000 0.18350  0.60130  0.70078  Biso   1.000  C
  C412     1.0000 0.33200  0.32410  0.70022  Biso   1.000  C
  C413     1.0000 0.21245  0.39980  0.71873  Biso   1.000  C
  C414     1.0000 0.03060  0.51310  0.53769  Biso   1.000  C
  C415     1.0000 0.28050  0.26590  0.53842  Biso   1.000  C
  C416     1.0000 0.37133  0.36770  0.71772  Biso   1.000  C
  H196     1.0000 0.38130  0.38260  0.74190  Biso   1.000  H
  C417     1.0000 0.20194  0.53610  0.71846  Biso   1.000  C
  H197     1.0000 0.22530  0.53620  0.74310  Biso   1.000  H
  C418     1.0000 0.39627  0.38990  0.69977  Biso   1.000  C
  C419     1.0000 0.37957  0.70170  0.66798  Biso   1.000  C
  H198     1.0000 0.39670  0.68850  0.65600  Biso   1.000  H
  C420     1.0000 0.43624  0.63030  0.72286  Biso   1.000  C
  C421     1.0000 0.32590  0.30040  0.60783  Biso   1.000  C
  C422     1.0000 0.99850  0.56370  0.51594  Biso   1.000  C
  C423     1.0000 0.30306  0.30440  0.71876  Biso   1.000  C
  C424     1.0000 0.14700  0.60140  0.66373  Biso   1.000  C
  H199     1.0000 0.13460  0.64480  0.65140  Biso   1.000  H
  C425     1.0000 0.15050  0.47160  0.66429  Biso   1.000  C
  H200     1.0000 0.13990  0.42750  0.65220  Biso   1.000  H
  C426     1.0000 0.38230  0.36590  0.66371  Biso   1.000  C
  H201     1.0000 0.39920  0.38000  0.65170  Biso   1.000  H
  C427     1.0000 0.39587  0.67940  0.70482  Biso   1.000  C
  C428     1.0000 0.25080  0.07650  0.53930  Biso   1.000  C
  C429     1.0000 0.37050  0.70450  0.72305  Biso   1.000  C
  H202     1.0000 0.38200  0.69430  0.74800  Biso   1.000  H
  C430     1.0000 0.06470  0.52480  0.57614  Biso   1.000  C
  C431     1.0000 0.31670  0.30130  0.66383  Biso   1.000  C
  H203     1.0000 0.28940  0.27330  0.65160  Biso   1.000  H
  C432     1.0000 0.32920  0.74380  0.70431  Biso   1.000  C
  C433     1.0000 0.29960  0.74800  0.51870  Biso   1.000  C
  C434     1.0000 0.18670  0.47270  0.70070  Biso   1.000  C
  C435     1.0000 0.12990  0.53530  0.64593  Biso   1.000  C
  C436     1.0000 0.30060  0.76010  0.57857  Biso   1.000  C
  C437     1.0000 0.24890  0.20560  0.52605  Biso   1.000  C
  C438     1.0000 0.99950  0.69430  0.50300  Biso   1.000  C
  C439     1.0000 0.31410  0.76430  0.66770  Biso   1.000  C
  H204     1.0000 0.28710  0.79290  0.65560  Biso   1.000  H
  C440     1.0000 0.09330  0.53240  0.60785  Biso   1.000  C
  C441     1.0000 0.96770  0.68280  0.46660  Biso   1.000  C
  C442     1.0000 0.96570  0.72650  0.43980  Biso   1.000  C
  H205     1.0000 0.94310  0.72010  0.41520  Biso   1.000  H
  C443     1.0000 0.22100  0.06270  0.50300  Biso   1.000  C
  C444     1.0000 0.27950  0.30700  0.50913  Biso   1.000  C
  C445     1.0000 0.16100  0.14400  0.50590  Biso   1.000  C
  C446     1.0000 0.03135  0.44660  0.52073  Biso   1.000  C
  C447     1.0000 0.22540  0.75880  0.52007  Biso   1.000  C
  C448     1.0000 0.86190  0.63320  0.47170  Biso   1.000  C
  H206     1.0000 0.84050  0.62770  0.44670  Biso   1.000  H
  C449     1.0000 0.34290  0.32100  0.64607  Biso   1.000  C
  C450     1.0000 0.24420  0.15200  0.55289  Biso   1.000  C
  H207     1.0000 0.26580  0.16160  0.57900  Biso   1.000  H
  C451     1.0000 0.36110  0.67040  0.52020  Biso   1.000  C
  C452     1.0000 0.11500  0.14740  0.49510  Biso   1.000  C
  H208     1.0000 0.09350  0.13980  0.47040  Biso   1.000  H
  C453     1.0000 0.33630  0.66010  0.48110  Biso   1.000  C
  C454     1.0000 0.39200  0.61340  0.54360  Biso   1.000  C
  H209     1.0000 0.40890  0.61710  0.56920  Biso   1.000  H
  C455     1.0000 0.34520  0.84930  0.45350  Biso   1.000  C
  H210     1.0000 0.32800  0.84590  0.42790  Biso   1.000  H
  C456     1.0000 0.33820  0.74320  0.64909  Biso   1.000  C
  C457     1.0000 0.32000  0.75650  0.61114  Biso   1.000  C
  C458     1.0000 0.33920  0.79440  0.47570  Biso   1.000  C
  C459     1.0000 0.94200  0.64290  0.52150  Biso   1.000  C
  C460     1.0000 0.35400  0.74190  0.53430  Biso   1.000  C
  H211     1.0000 0.37190  0.74640  0.56120  Biso   1.000  H
  C461     1.0000 0.99320  0.64030  0.52950  Biso   1.000  C
  H212     1.0000 0.01580  0.64890  0.55560  Biso   1.000  H
  C462     1.0000 0.36450  0.80080  0.51440  Biso   1.000  C
  C463     1.0000 0.18720  0.12720  0.48370  Biso   1.000  C
  H213     1.0000 0.16580  0.11860  0.45740  Biso   1.000  H
  C464     1.0000 0.22130  0.99650  0.48660  Biso   1.000  C
  H214     1.0000 0.19950  0.98620  0.46220  Biso   1.000  H
  C465     1.0000 0.03220  0.74890  0.51330  Biso   1.000  C
  H215     1.0000 0.05410  0.75490  0.53810  Biso   1.000  H
  C466     1.0000 0.28580  0.02350  0.56090  Biso   1.000  C
  H216     1.0000 0.30680  0.03230  0.58570  Biso   1.000  H
  C467     1.0000 0.92390  0.65910  0.54550  Biso   1.000  C
  H217     1.0000 0.94460  0.67050  0.57000  Biso   1.000  H
  C468     1.0000 0.19120  0.15420  0.54210  Biso   1.000  C
  C469     1.0000 0.17660  0.16590  0.56770  Biso   1.000  C
  H218     1.0000 0.19870  0.17030  0.59260  Biso   1.000  H
  C470     1.0000 0.93420  0.61870  0.46135  Biso   1.000  C
  H219     1.0000 0.91180  0.61010  0.43530  Biso   1.000  H
  C471     1.0000 0.91040  0.63140  0.48300  Biso   1.000  C
  C472     1.0000 0.34190  0.60190  0.46610  Biso   1.000  C
  H220     1.0000 0.32610  0.59960  0.44050  Biso   1.000  H
  C473     1.0000 0.25570  0.94730  0.50850  Biso   1.000  C
  H221     1.0000 0.25760  0.90300  0.49860  Biso   1.000  H
  C474     1.0000 0.30610  0.73060  0.46230  Biso   1.000  C
  H222     1.0000 0.28830  0.72730  0.43540  Biso   1.000  H
  C475     1.0000 0.99940  0.78220  0.45060  Biso   1.000  C
  H223     1.0000 0.99960  0.81250  0.43260  Biso   1.000  H
  C476     1.0000 0.03340  0.79380  0.48820  Biso   1.000  C
  H224     1.0000 0.05550  0.83100  0.49510  Biso   1.000  H
  C477     1.0000 0.39370  0.55360  0.52450  Biso   1.000  C
  H225     1.0000 0.41270  0.51510  0.53810  Biso   1.000  H
  C478     1.0000 0.87520  0.65830  0.53300  Biso   1.000  C
  H226     1.0000 0.86350  0.66810  0.54930  Biso   1.000  H
  C479     1.0000 0.13120  0.17090  0.55710  Biso   1.000  C
  H227     1.0000 0.12120  0.18040  0.57450  Biso   1.000  H
  C480     1.0000 0.09760  0.16220  0.52030  Biso   1.000  C
  H228     1.0000 0.06520  0.16590  0.51250  Biso   1.000  H
  C481     1.0000 0.39570  0.85760  0.53000  Biso   1.000  C
  H229     1.0000 0.41370  0.86130  0.55550  Biso   1.000  H
  C482     1.0000 0.39990  0.90870  0.50760  Biso   1.000  C
  H230     1.0000 0.42020  0.94760  0.51860  Biso   1.000  H
  C483     1.0000 0.37470  0.90510  0.46860  Biso   1.000  C
  H231     1.0000 0.37870  0.94020  0.45410  Biso   1.000  H
  C484     1.0000 0.28800  0.96310  0.54560  Biso   1.000  C
  H232     1.0000 0.31140  0.92940  0.55950  Biso   1.000  H
  C485     1.0000 0.84420  0.64300  0.49640  Biso   1.000  C
  H233     1.0000 0.81180  0.63930  0.48830  Biso   1.000  H
  C486     1.0000 0.36770  0.54590  0.48390  Biso   1.000  C
  H234     1.0000 0.36960  0.50430  0.47190  Biso   1.000  H
  Cu19     1.0000 0.21781  0.82308  0.72179  Biso   1.000  Cu
  Cu20     1.0000 0.27816  0.74912  0.78091  Biso   1.000  Cu
  Cu21     1.0000 0.99395  0.03609  0.77988  Biso   1.000  Cu
  O73      1.0000 0.26109  0.16650  0.74829  Biso   1.000  O
  O74      1.0000 0.31278  0.22980  0.79822  Biso   1.000  O
  O75      1.0000 0.23385  0.76830  0.79916  Biso   1.000  O
  O76      1.0000 0.30635  0.84680  0.79937  Biso   1.000  O
  O77      1.0000 0.04557  0.10900  0.79632  Biso   1.000  O
  O78      1.0000 0.18310  0.83150  0.74977  Biso   1.000  O
  O79      1.0000 0.25600  0.90670  0.74852  Biso   1.000  O
  O80      1.0000 0.05396  0.96420  0.75045  Biso   1.000  O
  O81      1.0000 0.04207  0.95980  0.79915  Biso   1.000  O
  O82      1.0000 0.05220  0.11210  0.74452  Biso   1.000  O
  O83      1.0000 0.23654  0.30160  0.79581  Biso   1.000  O
  O84      1.0000 0.18448  0.23910  0.74471  Biso   1.000  O
  C487     1.0000 0.06530  0.94460  0.78137  Biso   1.000  C
  C488     1.0000 0.20119  0.25920  0.77753  Biso   1.000  C
  C489     1.0000 0.22480  0.25700  0.96139  Biso   1.000  C
  C490     1.0000 0.19260  0.78410  0.92408  Biso   1.000  C
  C491     1.0000 0.29603  0.17050  0.78019  Biso   1.000  C
  C492     1.0000 0.31650  0.10130  0.79922  Biso   1.000  C
  C493     1.0000 0.16800  0.82410  0.79978  Biso   1.000  C
  C494     1.0000 0.28755  0.89980  0.78127  Biso   1.000  C
  C495     1.0000 0.46940  0.01310  0.96231  Biso   1.000  C
  C496     1.0000 0.21950  0.76590  0.96158  Biso   1.000  C
  C497     1.0000 0.12867  0.86770  0.78228  Biso   1.000  C
  H235     1.0000 0.11870  0.88260  0.75810  Biso   1.000  H
  C498     1.0000 0.29806  0.03610  0.78154  Biso   1.000  C
  H236     1.0000 0.27470  0.03620  0.75690  Biso   1.000  H
  C499     1.0000 0.10373  0.88990  0.80023  Biso   1.000  C
  C500     1.0000 0.12043  0.20170  0.83202  Biso   1.000  C
  H237     1.0000 0.10330  0.18850  0.84400  Biso   1.000  H
  C501     1.0000 0.06376  0.13030  0.77714  Biso   1.000  C
  C502     1.0000 0.17410  0.80040  0.89217  Biso   1.000  C
  C503     1.0000 0.50150  0.06370  0.98406  Biso   1.000  C
  C504     1.0000 0.19694  0.80440  0.78124  Biso   1.000  C
  C505     1.0000 0.35300  0.10140  0.83627  Biso   1.000  C
  H238     1.0000 0.36540  0.14480  0.84860  Biso   1.000  H
  C506     1.0000 0.34950  0.97160  0.83571  Biso   1.000  C
  H239     1.0000 0.36010  0.92750  0.84780  Biso   1.000  H
  C507     1.0000 0.11770  0.86590  0.83629  Biso   1.000  C
  H240     1.0000 0.10080  0.88000  0.84830  Biso   1.000  H
  C508     1.0000 0.10413  0.17940  0.79518  Biso   1.000  C
  C509     1.0000 0.24920  0.57650  0.96070  Biso   1.000  C
  C510     1.0000 0.12950  0.20450  0.77695  Biso   1.000  C
  H241     1.0000 0.11800  0.19430  0.75200  Biso   1.000  H
  C511     1.0000 0.43530  0.02480  0.92386  Biso   1.000  C
  C512     1.0000 0.18330  0.80130  0.83617  Biso   1.000  C
  H242     1.0000 0.21060  0.77330  0.84840  Biso   1.000  H
  C513     1.0000 0.17080  0.24380  0.79569  Biso   1.000  C
  C514     1.0000 0.20040  0.24800  0.98130  Biso   1.000  C
  C515     1.0000 0.31330  0.97270  0.79930  Biso   1.000  C
  C516     1.0000 0.37010  0.03530  0.85407  Biso   1.000  C
  C517     1.0000 0.19940  0.26010  0.92143  Biso   1.000  C
  C518     1.0000 0.25110  0.70560  0.97395  Biso   1.000  C
  C519     1.0000 0.50050  0.19430  0.99700  Biso   1.000  C
  C520     1.0000 0.18590  0.26430  0.83230  Biso   1.000  C
  H243     1.0000 0.21290  0.29290  0.84440  Biso   1.000  H
  C521     1.0000 0.40670  0.03240  0.89215  Biso   1.000  C
  C522     1.0000 0.53230  0.18280  0.03340  Biso   1.000  C
  C523     1.0000 0.53430  0.22650  0.06020  Biso   1.000  C
  H244     1.0000 0.55690  0.22010  0.08480  Biso   1.000  H
  C524     1.0000 0.27900  0.56270  0.99700  Biso   1.000  C
  C525     1.0000 0.22050  0.80700  0.99087  Biso   1.000  C
  C526     1.0000 0.33900  0.64400  0.99410  Biso   1.000  C
  C527     1.0000 0.46865  0.94660  0.97927  Biso   1.000  C
  C528     1.0000 0.27460  0.25880  0.97993  Biso   1.000  C
  C529     1.0000 0.63810  0.13320  0.02830  Biso   1.000  C
  H245     1.0000 0.65950  0.12770  0.05330  Biso   1.000  H
  C530     1.0000 0.15710  0.82100  0.85393  Biso   1.000  C
  C531     1.0000 0.25580  0.65200  0.94711  Biso   1.000  C
  H246     1.0000 0.23420  0.66160  0.92100  Biso   1.000  H
  C532     1.0000 0.13890  0.17040  0.97980  Biso   1.000  C
  C533     1.0000 0.38500  0.64740  0.00490  Biso   1.000  C
  H247     1.0000 0.40650  0.63980  0.02960  Biso   1.000  H
  C534     1.0000 0.16370  0.16010  0.01890  Biso   1.000  C
  C535     1.0000 0.10800  0.11340  0.95640  Biso   1.000  C
  H248     1.0000 0.09110  0.11710  0.93080  Biso   1.000  H
  C536     1.0000 0.15480  0.34930  0.04650  Biso   1.000  C
  H249     1.0000 0.17200  0.34590  0.07210  Biso   1.000  H
  C537     1.0000 0.16180  0.24320  0.85091  Biso   1.000  C
  C538     1.0000 0.18000  0.25650  0.88886  Biso   1.000  C
  C539     1.0000 0.16080  0.29440  0.02430  Biso   1.000  C
  C540     1.0000 0.55800  0.14290  0.97850  Biso   1.000  C
  C541     1.0000 0.14600  0.24190  0.96570  Biso   1.000  C
  H250     1.0000 0.12810  0.24640  0.93880  Biso   1.000  H
  C542     1.0000 0.50680  0.14030  0.97050  Biso   1.000  C
  H251     1.0000 0.48420  0.14890  0.94440  Biso   1.000  H
  C543     1.0000 0.13550  0.30080  0.98560  Biso   1.000  C
  C544     1.0000 0.31280  0.62720  0.01630  Biso   1.000  C
  H252     1.0000 0.33420  0.61860  0.04260  Biso   1.000  H
  C545     1.0000 0.27870  0.49650  0.01340  Biso   1.000  C
  H253     1.0000 0.30050  0.48620  0.03780  Biso   1.000  H
  C546     1.0000 0.46780  0.24890  0.98670  Biso   1.000  C
  H254     1.0000 0.44590  0.25490  0.96190  Biso   1.000  H
  C547     1.0000 0.21420  0.52350  0.93910  Biso   1.000  C
  H255     1.0000 0.19320  0.53230  0.91430  Biso   1.000  H
  C548     1.0000 0.57610  0.15910  0.95450  Biso   1.000  C
  H256     1.0000 0.55540  0.17050  0.93000  Biso   1.000  H
  C549     1.0000 0.30880  0.65420  0.95790  Biso   1.000  C
  C550     1.0000 0.32340  0.66590  0.93230  Biso   1.000  C
  H257     1.0000 0.30130  0.67030  0.90740  Biso   1.000  H
  C551     1.0000 0.56580  0.11870  0.03865  Biso   1.000  C
  H258     1.0000 0.58820  0.11010  0.06470  Biso   1.000  H
  C552     1.0000 0.58960  0.13140  0.01700  Biso   1.000  C
  C553     1.0000 0.15810  0.10190  0.03390  Biso   1.000  C
  H259     1.0000 0.17390  0.09960  0.05950  Biso   1.000  H
  C554     1.0000 0.24430  0.44730  0.99150  Biso   1.000  C
  H260     1.0000 0.24240  0.40300  0.00140  Biso   1.000  H
  C555     1.0000 0.19390  0.23060  0.03770  Biso   1.000  C
  H261     1.0000 0.21170  0.22730  0.06460  Biso   1.000  H
  C556     1.0000 0.50060  0.28220  0.04940  Biso   1.000  C
  H262     1.0000 0.50040  0.31250  0.06740  Biso   1.000  H
  C557     1.0000 0.46660  0.29380  0.01180  Biso   1.000  C
  H263     1.0000 0.44450  0.33100  0.00490  Biso   1.000  H
  C558     1.0000 0.10630  0.05360  0.97550  Biso   1.000  C
  H264     1.0000 0.08730  0.01510  0.96190  Biso   1.000  H
  C559     1.0000 0.62480  0.15830  0.96700  Biso   1.000  C
  H265     1.0000 0.63650  0.16810  0.95070  Biso   1.000  H
  C560     1.0000 0.36880  0.67090  0.94290  Biso   1.000  C
  H266     1.0000 0.37880  0.68040  0.92550  Biso   1.000  H
  C561     1.0000 0.40240  0.66220  0.97970  Biso   1.000  C
  H267     1.0000 0.43480  0.66590  0.98750  Biso   1.000  H
  C562     1.0000 0.10430  0.35760  0.97000  Biso   1.000  C
  H268     1.0000 0.08630  0.36130  0.94450  Biso   1.000  H
  C563     1.0000 0.10010  0.40870  0.99240  Biso   1.000  C
  H269     1.0000 0.07980  0.44760  0.98140  Biso   1.000  H
  C564     1.0000 0.12530  0.40510  0.03140  Biso   1.000  C
  H270     1.0000 0.12130  0.44020  0.04590  Biso   1.000  H
  C565     1.0000 0.21200  0.46310  0.95440  Biso   1.000  C
  H271     1.0000 0.18860  0.42940  0.94050  Biso   1.000  H
  C566     1.0000 0.65580  0.14300  0.00360  Biso   1.000  C
  H272     1.0000 0.68820  0.13930  0.01170  Biso   1.000  H
  C567     1.0000 0.13230  0.04590  0.01610  Biso   1.000  C
  H273     1.0000 0.13040  0.00430  0.02810  Biso   1.000  H
  Cu22     1.0000 0.71781  0.32308  0.72179  Biso   1.000  Cu
  Cu23     1.0000 0.77816  0.24912  0.78090  Biso   1.000  Cu
  Cu24     1.0000 0.49395  0.53609  0.77988  Biso   1.000  Cu
  O85      1.0000 0.76109  0.66650  0.74829  Biso   1.000  O
  O86      1.0000 0.81278  0.72980  0.79822  Biso   1.000  O
  O87      1.0000 0.73385  0.26830  0.79916  Biso   1.000  O
  O88      1.0000 0.80635  0.34680  0.79937  Biso   1.000  O
  O89      1.0000 0.54557  0.60900  0.79632  Biso   1.000  O
  O90      1.0000 0.68310  0.33150  0.74977  Biso   1.000  O
  O91      1.0000 0.75600  0.40670  0.74852  Biso   1.000  O
  O92      1.0000 0.55396  0.46420  0.75045  Biso   1.000  O
  O93      1.0000 0.54207  0.45980  0.79915  Biso   1.000  O
  O94      1.0000 0.55220  0.61210  0.74452  Biso   1.000  O
  O95      1.0000 0.73654  0.80160  0.79581  Biso   1.000  O
  O96      1.0000 0.68448  0.73910  0.74471  Biso   1.000  O
  C568     1.0000 0.56530  0.44460  0.78137  Biso   1.000  C
  C569     1.0000 0.70119  0.75920  0.77753  Biso   1.000  C
  C570     1.0000 0.72480  0.75700  0.96139  Biso   1.000  C
  C571     1.0000 0.69260  0.28410  0.92408  Biso   1.000  C
  C572     1.0000 0.79603  0.67050  0.78019  Biso   1.000  C
  C573     1.0000 0.81650  0.60130  0.79922  Biso   1.000  C
  C574     1.0000 0.66800  0.32410  0.79978  Biso   1.000  C
  C575     1.0000 0.78755  0.39980  0.78127  Biso   1.000  C
  C576     1.0000 0.96940  0.51310  0.96231  Biso   1.000  C
  C577     1.0000 0.71950  0.26590  0.96158  Biso   1.000  C
  C578     1.0000 0.62867  0.36770  0.78228  Biso   1.000  C
  H274     1.0000 0.61870  0.38260  0.75810  Biso   1.000  H
  C579     1.0000 0.79806  0.53610  0.78154  Biso   1.000  C
  H275     1.0000 0.77470  0.53620  0.75690  Biso   1.000  H
  C580     1.0000 0.60373  0.38990  0.80023  Biso   1.000  C
  C581     1.0000 0.62043  0.70170  0.83202  Biso   1.000  C
  H276     1.0000 0.60330  0.68850  0.84400  Biso   1.000  H
  C582     1.0000 0.56376  0.63030  0.77714  Biso   1.000  C
  C583     1.0000 0.67410  0.30040  0.89217  Biso   1.000  C
  C584     1.0000 0.00150  0.56370  0.98406  Biso   1.000  C
  C585     1.0000 0.69694  0.30440  0.78124  Biso   1.000  C
  C586     1.0000 0.85300  0.60140  0.83627  Biso   1.000  C
  H277     1.0000 0.86540  0.64480  0.84860  Biso   1.000  H
  C587     1.0000 0.84950  0.47160  0.83571  Biso   1.000  C
  H278     1.0000 0.86010  0.42750  0.84780  Biso   1.000  H
  C588     1.0000 0.61770  0.36590  0.83629  Biso   1.000  C
  H279     1.0000 0.60080  0.38000  0.84830  Biso   1.000  H
  C589     1.0000 0.60413  0.67940  0.79518  Biso   1.000  C
  C590     1.0000 0.74920  0.07650  0.96070  Biso   1.000  C
  C591     1.0000 0.62950  0.70450  0.77695  Biso   1.000  C
  H280     1.0000 0.61800  0.69430  0.75200  Biso   1.000  H
  C592     1.0000 0.93530  0.52480  0.92386  Biso   1.000  C
  C593     1.0000 0.68330  0.30130  0.83617  Biso   1.000  C
  H281     1.0000 0.71060  0.27330  0.84840  Biso   1.000  H
  C594     1.0000 0.67080  0.74380  0.79569  Biso   1.000  C
  C595     1.0000 0.70040  0.74800  0.98130  Biso   1.000  C
  C596     1.0000 0.81330  0.47270  0.79930  Biso   1.000  C
  C597     1.0000 0.87010  0.53530  0.85407  Biso   1.000  C
  C598     1.0000 0.69940  0.76010  0.92143  Biso   1.000  C
  C599     1.0000 0.75110  0.20560  0.97395  Biso   1.000  C
  C600     1.0000 0.00050  0.69430  0.99700  Biso   1.000  C
  C601     1.0000 0.68590  0.76430  0.83230  Biso   1.000  C
  H282     1.0000 0.71290  0.79290  0.84440  Biso   1.000  H
  C602     1.0000 0.90670  0.53240  0.89215  Biso   1.000  C
  C603     1.0000 0.03230  0.68280  0.03340  Biso   1.000  C
  C604     1.0000 0.03430  0.72650  0.06020  Biso   1.000  C
  H283     1.0000 0.05690  0.72010  0.08480  Biso   1.000  H
  C605     1.0000 0.77900  0.06270  0.99700  Biso   1.000  C
  C606     1.0000 0.72050  0.30700  0.99087  Biso   1.000  C
  C607     1.0000 0.83900  0.14400  0.99410  Biso   1.000  C
  C608     1.0000 0.96865  0.44660  0.97927  Biso   1.000  C
  C609     1.0000 0.77460  0.75880  0.97993  Biso   1.000  C
  C610     1.0000 0.13810  0.63320  0.02830  Biso   1.000  C
  H284     1.0000 0.15950  0.62770  0.05330  Biso   1.000  H
  C611     1.0000 0.65710  0.32100  0.85393  Biso   1.000  C
  C612     1.0000 0.75580  0.15200  0.94711  Biso   1.000  C
  H285     1.0000 0.73420  0.16160  0.92100  Biso   1.000  H
  C613     1.0000 0.63890  0.67040  0.97980  Biso   1.000  C
  C614     1.0000 0.88500  0.14740  0.00490  Biso   1.000  C
  H286     1.0000 0.90650  0.13980  0.02960  Biso   1.000  H
  C615     1.0000 0.66370  0.66010  0.01890  Biso   1.000  C
  C616     1.0000 0.60800  0.61340  0.95640  Biso   1.000  C
  H287     1.0000 0.59110  0.61710  0.93080  Biso   1.000  H
  C617     1.0000 0.65480  0.84930  0.04650  Biso   1.000  C
  H288     1.0000 0.67200  0.84590  0.07210  Biso   1.000  H
  C618     1.0000 0.66180  0.74320  0.85091  Biso   1.000  C
  C619     1.0000 0.68000  0.75650  0.88886  Biso   1.000  C
  C620     1.0000 0.66080  0.79440  0.02430  Biso   1.000  C
  C621     1.0000 0.05800  0.64290  0.97850  Biso   1.000  C
  C622     1.0000 0.64600  0.74190  0.96570  Biso   1.000  C
  H289     1.0000 0.62810  0.74640  0.93880  Biso   1.000  H
  C623     1.0000 0.00680  0.64030  0.97050  Biso   1.000  C
  H290     1.0000 0.98420  0.64890  0.94440  Biso   1.000  H
  C624     1.0000 0.63550  0.80080  0.98560  Biso   1.000  C
  C625     1.0000 0.81280  0.12720  0.01630  Biso   1.000  C
  H291     1.0000 0.83420  0.11860  0.04260  Biso   1.000  H
  C626     1.0000 0.77870  0.99650  0.01340  Biso   1.000  C
  H292     1.0000 0.80050  0.98620  0.03780  Biso   1.000  H
  C627     1.0000 0.96780  0.74890  0.98670  Biso   1.000  C
  H293     1.0000 0.94590  0.75490  0.96190  Biso   1.000  H
  C628     1.0000 0.71420  0.02350  0.93910  Biso   1.000  C
  H294     1.0000 0.69320  0.03230  0.91430  Biso   1.000  H
  C629     1.0000 0.07610  0.65910  0.95450  Biso   1.000  C
  H295     1.0000 0.05540  0.67050  0.93000  Biso   1.000  H
  C630     1.0000 0.80880  0.15420  0.95790  Biso   1.000  C
  C631     1.0000 0.82340  0.16590  0.93230  Biso   1.000  C
  H296     1.0000 0.80130  0.17030  0.90740  Biso   1.000  H
  C632     1.0000 0.06580  0.61870  0.03865  Biso   1.000  C
  H297     1.0000 0.08820  0.61010  0.06470  Biso   1.000  H
  C633     1.0000 0.08960  0.63140  0.01700  Biso   1.000  C
  C634     1.0000 0.65810  0.60190  0.03390  Biso   1.000  C
  H298     1.0000 0.67390  0.59960  0.05950  Biso   1.000  H
  C635     1.0000 0.74430  0.94730  0.99150  Biso   1.000  C
  H299     1.0000 0.74240  0.90300  0.00140  Biso   1.000  H
  C636     1.0000 0.69390  0.73060  0.03770  Biso   1.000  C
  H300     1.0000 0.71170  0.72730  0.06460  Biso   1.000  H
  C637     1.0000 0.00060  0.78220  0.04940  Biso   1.000  C
  H301     1.0000 0.00040  0.81250  0.06740  Biso   1.000  H
  C638     1.0000 0.96660  0.79380  0.01180  Biso   1.000  C
  H302     1.0000 0.94450  0.83100  0.00490  Biso   1.000  H
  C639     1.0000 0.60630  0.55360  0.97550  Biso   1.000  C
  H303     1.0000 0.58730  0.51510  0.96190  Biso   1.000  H
  C640     1.0000 0.12480  0.65830  0.96700  Biso   1.000  C
  H304     1.0000 0.13650  0.66810  0.95070  Biso   1.000  H
  C641     1.0000 0.86880  0.17090  0.94290  Biso   1.000  C
  H305     1.0000 0.87880  0.18040  0.92550  Biso   1.000  H
  C642     1.0000 0.90240  0.16220  0.97970  Biso   1.000  C
  H306     1.0000 0.93480  0.16590  0.98750  Biso   1.000  H
  C643     1.0000 0.60430  0.85760  0.97000  Biso   1.000  C
  H307     1.0000 0.58630  0.86130  0.94450  Biso   1.000  H
  C644     1.0000 0.60010  0.90870  0.99240  Biso   1.000  C
  H308     1.0000 0.57980  0.94760  0.98140  Biso   1.000  H
  C645     1.0000 0.62530  0.90510  0.03140  Biso   1.000  C
  H309     1.0000 0.62130  0.94020  0.04590  Biso   1.000  H
  C646     1.0000 0.71200  0.96310  0.95440  Biso   1.000  C
  H310     1.0000 0.68860  0.92940  0.94050  Biso   1.000  H
  C647     1.0000 0.15580  0.64300  0.00360  Biso   1.000  C
  H311     1.0000 0.18820  0.63930  0.01170  Biso   1.000  H
  C648     1.0000 0.63230  0.54590  0.01610  Biso   1.000  C
  H312     1.0000 0.63040  0.50430  0.02810  Biso   1.000  H
