data_image0
_cell_length_a       31.4077
_cell_length_b       31.4077
_cell_length_c       15.0945
_cell_angle_alpha    90
_cell_angle_beta     90
_cell_angle_gamma    120

_symmetry_space_group_name_H-M    "P 1"
_symmetry_int_tables_number       1

loop_
  _symmetry_equiv_pos_as_xyz
  'x, y, z'

loop_
  _atom_site_label
  _atom_site_occupancy
  _atom_site_fract_x
  _atom_site_fract_y
  _atom_site_fract_z
  _atom_site_thermal_displace_type
  _atom_site_B_iso_or_equiv
  _atom_site_type_symbol
  Zn1      1.0000 0.06099  0.73073  0.48688  Biso   1.000  Zn
  C1       1.0000 0.14877  0.73931  0.54540  Biso   1.000  C
  C2       1.0000 0.18614  0.72238  0.55090  Biso   1.000  C
  C3       1.0000 0.17635  0.67761  0.51330  Biso   1.000  C
  H1       1.0000 0.14600  0.65720  0.48700  Biso   1.000  H
  C4       1.0000 0.21152  0.66387  0.51530  Biso   1.000  C
  H2       1.0000 0.20440  0.63390  0.49060  Biso   1.000  H
  C5       1.0000 0.25817  0.69405  0.55390  Biso   1.000  C
  C6       1.0000 0.26610  0.73749  0.59440  Biso   1.000  C
  H3       1.0000 0.29590  0.75750  0.62270  Biso   1.000  H
  C7       1.0000 0.23070  0.75147  0.59330  Biso   1.000  C
  H4       1.0000 0.23680  0.78040  0.62110  Biso   1.000  H
  C8       1.0000 0.29656  0.67981  0.55200  Biso   1.000  C
  C9       1.0000 0.34646  0.71604  0.55160  Biso   1.000  C
  H5       1.0000 0.35520  0.74900  0.55100  Biso   1.000  H
  C10      1.0000 0.07470  0.81930  0.43340  Biso   1.000  C
  C11      1.0000 0.05795  0.85585  0.41670  Biso   1.000  C
  C12      1.0000 0.08423  0.89555  0.35930  Biso   1.000  C
  H6       1.0000 0.11200  0.89910  0.33060  Biso   1.000  H
  C13      1.0000 0.06950  0.92930  0.34490  Biso   1.000  C
  H7       1.0000 0.08810  0.95600  0.30800  Biso   1.000  H
  C14      1.0000 0.02707  0.92456  0.38410  Biso   1.000  C
  C15      1.0000 0.00002  0.88435  0.43930  Biso   1.000  C
  H8       1.0000 0.97140  0.88020  0.46580  Biso   1.000  H
  C16      1.0000 0.01507  0.85032  0.45560  Biso   1.000  C
  H9       1.0000 0.99650  0.82370  0.49260  Biso   1.000  H
  C17      1.0000 0.01307  0.96325  0.37450  Biso   1.000  C
  C18      1.0000 0.96348  0.95084  0.37400  Biso   1.000  C
  H10      1.0000 0.93910  0.91790  0.37340  Biso   1.000  H
  C19      1.0000 0.04252  0.67070  0.31800  Biso   1.000  C
  O1       1.0000 0.10882  0.82070  0.39170  Biso   1.000  O
  O2       1.0000 0.05124  0.78729  0.49260  Biso   1.000  O
  O3       1.0000 0.15096  0.77167  0.59460  Biso   1.000  O
  O4       1.0000 0.11538  0.71742  0.48660  Biso   1.000  O
  N1       1.0000 0.97160  0.65730  0.27980  Biso   1.000  N
  N2       1.0000 0.00779  0.64786  0.25700  Biso   1.000  N
  N3       1.0000 0.98413  0.68470  0.34930  Biso   1.000  N
  N4       1.0000 0.08670  0.67350  0.31780  Biso   1.000  N
  H11      1.0000 0.09420  0.65990  0.27590  Biso   1.000  H
  H12      1.0000 0.10740  0.68890  0.35960  Biso   1.000  H
  N5       1.0000 0.02896  0.69370  0.37630  Biso   1.000  N
  Zn2      1.0000 0.72766  0.06406  0.82021  Biso   1.000  Zn
  C20      1.0000 0.81544  0.07264  0.87873  Biso   1.000  C
  C21      1.0000 0.85281  0.05571  0.88423  Biso   1.000  C
  C22      1.0000 0.84302  0.01094  0.84663  Biso   1.000  C
  H13      1.0000 0.81267  0.99053  0.82033  Biso   1.000  H
  C23      1.0000 0.87819  0.99720  0.84863  Biso   1.000  C
  H14      1.0000 0.87107  0.96723  0.82393  Biso   1.000  H
  C24      1.0000 0.92484  0.02738  0.88723  Biso   1.000  C
  C25      1.0000 0.93277  0.07082  0.92773  Biso   1.000  C
  H15      1.0000 0.96257  0.09083  0.95603  Biso   1.000  H
  C26      1.0000 0.89737  0.08480  0.92663  Biso   1.000  C
  H16      1.0000 0.90347  0.11373  0.95443  Biso   1.000  H
  C27      1.0000 0.96323  0.01314  0.88533  Biso   1.000  C
  C28      1.0000 0.01313  0.04937  0.88493  Biso   1.000  C
  H17      1.0000 0.02187  0.08233  0.88433  Biso   1.000  H
  C29      1.0000 0.74137  0.15263  0.76673  Biso   1.000  C
  C30      1.0000 0.72462  0.18918  0.75003  Biso   1.000  C
  C31      1.0000 0.75090  0.22888  0.69263  Biso   1.000  C
  H18      1.0000 0.77867  0.23243  0.66393  Biso   1.000  H
  C32      1.0000 0.73617  0.26263  0.67823  Biso   1.000  C
  H19      1.0000 0.75477  0.28933  0.64133  Biso   1.000  H
  C33      1.0000 0.69374  0.25789  0.71743  Biso   1.000  C
  C34      1.0000 0.66669  0.21768  0.77263  Biso   1.000  C
  H20      1.0000 0.63807  0.21353  0.79913  Biso   1.000  H
  C35      1.0000 0.68174  0.18365  0.78893  Biso   1.000  C
  H21      1.0000 0.66317  0.15703  0.82593  Biso   1.000  H
  C36      1.0000 0.67974  0.29658  0.70783  Biso   1.000  C
  C37      1.0000 0.63015  0.28417  0.70733  Biso   1.000  C
  H22      1.0000 0.60577  0.25123  0.70673  Biso   1.000  H
  C38      1.0000 0.70919  0.00403  0.65133  Biso   1.000  C
  O5       1.0000 0.77549  0.15403  0.72503  Biso   1.000  O
  O6       1.0000 0.71791  0.12062  0.82593  Biso   1.000  O
  O7       1.0000 0.81763  0.10500  0.92793  Biso   1.000  O
  O8       1.0000 0.78205  0.05075  0.81993  Biso   1.000  O
  N6       1.0000 0.63827  0.99063  0.61313  Biso   1.000  N
  N7       1.0000 0.67446  0.98119  0.59033  Biso   1.000  N
  N8       1.0000 0.65080  0.01803  0.68263  Biso   1.000  N
  N9       1.0000 0.75337  0.00683  0.65113  Biso   1.000  N
  H23      1.0000 0.76087  0.99323  0.60923  Biso   1.000  H
  H24      1.0000 0.77407  0.02223  0.69293  Biso   1.000  H
  N10      1.0000 0.69563  0.02703  0.70963  Biso   1.000  N
  Zn3      1.0000 0.39432  0.39740  0.15355  Biso   1.000  Zn
  C39      1.0000 0.48210  0.40598  0.21207  Biso   1.000  C
  C40      1.0000 0.51947  0.38905  0.21757  Biso   1.000  C
  C41      1.0000 0.50968  0.34428  0.17997  Biso   1.000  C
  H25      1.0000 0.47933  0.32387  0.15367  Biso   1.000  H
  C42      1.0000 0.54485  0.33054  0.18197  Biso   1.000  C
  H26      1.0000 0.53773  0.30057  0.15727  Biso   1.000  H
  C43      1.0000 0.59150  0.36072  0.22057  Biso   1.000  C
  C44      1.0000 0.59943  0.40416  0.26107  Biso   1.000  C
  H27      1.0000 0.62923  0.42417  0.28937  Biso   1.000  H
  C45      1.0000 0.56403  0.41814  0.25997  Biso   1.000  C
  H28      1.0000 0.57013  0.44707  0.28777  Biso   1.000  H
  C46      1.0000 0.62989  0.34648  0.21867  Biso   1.000  C
  C47      1.0000 0.67979  0.38271  0.21827  Biso   1.000  C
  H29      1.0000 0.68853  0.41567  0.21767  Biso   1.000  H
  C48      1.0000 0.40803  0.48597  0.10007  Biso   1.000  C
  C49      1.0000 0.39128  0.52252  0.08337  Biso   1.000  C
  C50      1.0000 0.41756  0.56222  0.02597  Biso   1.000  C
  H30      1.0000 0.44533  0.56577  0.99727  Biso   1.000  H
  C51      1.0000 0.40283  0.59597  0.01157  Biso   1.000  C
  H31      1.0000 0.42143  0.62267  0.97467  Biso   1.000  H
  C52      1.0000 0.36040  0.59123  0.05077  Biso   1.000  C
  C53      1.0000 0.33335  0.55102  0.10597  Biso   1.000  C
  H32      1.0000 0.30473  0.54687  0.13247  Biso   1.000  H
  C54      1.0000 0.34840  0.51699  0.12227  Biso   1.000  C
  H33      1.0000 0.32983  0.49037  0.15927  Biso   1.000  H
  C55      1.0000 0.34640  0.62992  0.04117  Biso   1.000  C
  C56      1.0000 0.29681  0.61751  0.04067  Biso   1.000  C
  H34      1.0000 0.27243  0.58457  0.04007  Biso   1.000  H
  C57      1.0000 0.37585  0.33737  0.98467  Biso   1.000  C
  O9       1.0000 0.44215  0.48737  0.05837  Biso   1.000  O
  O10      1.0000 0.38457  0.45396  0.15927  Biso   1.000  O
  O11      1.0000 0.48429  0.43834  0.26127  Biso   1.000  O
  O12      1.0000 0.44871  0.38409  0.15327  Biso   1.000  O
  N11      1.0000 0.30493  0.32397  0.94647  Biso   1.000  N
  N12      1.0000 0.34112  0.31453  0.92367  Biso   1.000  N
  N13      1.0000 0.31746  0.35137  0.01597  Biso   1.000  N
  N14      1.0000 0.42003  0.34017  0.98447  Biso   1.000  N
  H35      1.0000 0.42753  0.32657  0.94257  Biso   1.000  H
  H36      1.0000 0.44073  0.35557  0.02627  Biso   1.000  H
  N15      1.0000 0.36229  0.36037  0.04297  Biso   1.000  N
  Zn4      1.0000 0.26927  0.33026  0.48688  Biso   1.000  Zn
  C58      1.0000 0.26069  0.40946  0.54540  Biso   1.000  C
  C59      1.0000 0.27762  0.46376  0.55090  Biso   1.000  C
  C60      1.0000 0.32239  0.49874  0.51330  Biso   1.000  C
  H37      1.0000 0.34280  0.48880  0.48700  Biso   1.000  H
  C61      1.0000 0.33613  0.54765  0.51530  Biso   1.000  C
  H38      1.0000 0.36610  0.57050  0.49060  Biso   1.000  H
  C62      1.0000 0.30595  0.56412  0.55390  Biso   1.000  C
  C63      1.0000 0.26251  0.52861  0.59440  Biso   1.000  C
  H39      1.0000 0.24250  0.53840  0.62270  Biso   1.000  H
  C64      1.0000 0.24853  0.47923  0.59330  Biso   1.000  C
  H40      1.0000 0.21960  0.45640  0.62110  Biso   1.000  H
  C65      1.0000 0.32019  0.61675  0.55200  Biso   1.000  C
  C66      1.0000 0.28396  0.63042  0.55160  Biso   1.000  C
  H41      1.0000 0.25100  0.60620  0.55100  Biso   1.000  H
  C67      1.0000 0.18070  0.25540  0.43340  Biso   1.000  C
  C68      1.0000 0.14415  0.20210  0.41670  Biso   1.000  C
  C69      1.0000 0.10445  0.18868  0.35930  Biso   1.000  C
  H42      1.0000 0.10090  0.21290  0.33060  Biso   1.000  H
  C70      1.0000 0.07070  0.14020  0.34490  Biso   1.000  C
  H43      1.0000 0.04400  0.13210  0.30800  Biso   1.000  H
  C71      1.0000 0.07544  0.10251  0.38410  Biso   1.000  C
  C72      1.0000 0.11565  0.11567  0.43930  Biso   1.000  C
  H44      1.0000 0.11980  0.09120  0.46580  Biso   1.000  H
  C73      1.0000 0.14968  0.16475  0.45560  Biso   1.000  C
  H45      1.0000 0.17630  0.17280  0.49260  Biso   1.000  H
  C74      1.0000 0.03675  0.04982  0.37450  Biso   1.000  C
  C75      1.0000 0.04916  0.01264  0.37400  Biso   1.000  C
  H46      1.0000 0.08210  0.02120  0.37340  Biso   1.000  H
  C76      1.0000 0.32930  0.37182  0.31800  Biso   1.000  C
  O13      1.0000 0.17930  0.28812  0.39170  Biso   1.000  O
  O14      1.0000 0.21271  0.26395  0.49260  Biso   1.000  O
  O15      1.0000 0.22833  0.37929  0.59460  Biso   1.000  O
  O16      1.0000 0.28258  0.39796  0.48660  Biso   1.000  O
  N16      1.0000 0.34270  0.31430  0.27980  Biso   1.000  N
  N17      1.0000 0.35214  0.35993  0.25700  Biso   1.000  N
  N18      1.0000 0.31530  0.29943  0.34930  Biso   1.000  N
  N19      1.0000 0.32650  0.41320  0.31780  Biso   1.000  N
  H47      1.0000 0.34010  0.43430  0.27590  Biso   1.000  H
  H48      1.0000 0.31110  0.41850  0.35960  Biso   1.000  H
  N20      1.0000 0.30630  0.33526  0.37630  Biso   1.000  N
  Zn5      1.0000 0.93594  0.66359  0.82021  Biso   1.000  Zn
  C77      1.0000 0.92736  0.74279  0.87873  Biso   1.000  C
  C78      1.0000 0.94429  0.79709  0.88423  Biso   1.000  C
  C79      1.0000 0.98906  0.83207  0.84663  Biso   1.000  C
  H49      1.0000 0.00947  0.82213  0.82033  Biso   1.000  H
  C80      1.0000 0.00280  0.88098  0.84863  Biso   1.000  C
  H50      1.0000 0.03277  0.90383  0.82393  Biso   1.000  H
  C81      1.0000 0.97262  0.89745  0.88723  Biso   1.000  C
  C82      1.0000 0.92918  0.86194  0.92773  Biso   1.000  C
  H51      1.0000 0.90917  0.87173  0.95603  Biso   1.000  H
  C83      1.0000 0.91520  0.81256  0.92663  Biso   1.000  C
  H52      1.0000 0.88627  0.78973  0.95443  Biso   1.000  H
  C84      1.0000 0.98686  0.95008  0.88533  Biso   1.000  C
  C85      1.0000 0.95063  0.96375  0.88493  Biso   1.000  C
  H53      1.0000 0.91767  0.93953  0.88433  Biso   1.000  H
  C86      1.0000 0.84737  0.58873  0.76673  Biso   1.000  C
  C87      1.0000 0.81082  0.53543  0.75003  Biso   1.000  C
  C88      1.0000 0.77112  0.52201  0.69263  Biso   1.000  C
  H54      1.0000 0.76757  0.54623  0.66393  Biso   1.000  H
  C89      1.0000 0.73737  0.47353  0.67823  Biso   1.000  C
  H55      1.0000 0.71067  0.46543  0.64133  Biso   1.000  H
  C90      1.0000 0.74211  0.43584  0.71743  Biso   1.000  C
  C91      1.0000 0.78232  0.44900  0.77263  Biso   1.000  C
  H56      1.0000 0.78647  0.42453  0.79913  Biso   1.000  H
  C92      1.0000 0.81635  0.49808  0.78893  Biso   1.000  C
  H57      1.0000 0.84297  0.50613  0.82593  Biso   1.000  H
  C93      1.0000 0.70342  0.38315  0.70783  Biso   1.000  C
  C94      1.0000 0.71583  0.34597  0.70733  Biso   1.000  C
  H58      1.0000 0.74877  0.35453  0.70673  Biso   1.000  H
  C95      1.0000 0.99597  0.70515  0.65133  Biso   1.000  C
  O17      1.0000 0.84597  0.62145  0.72503  Biso   1.000  O
  O18      1.0000 0.87938  0.59728  0.82593  Biso   1.000  O
  O19      1.0000 0.89500  0.71262  0.92793  Biso   1.000  O
  O20      1.0000 0.94925  0.73129  0.81993  Biso   1.000  O
  N21      1.0000 0.00937  0.64763  0.61313  Biso   1.000  N
  N22      1.0000 0.01881  0.69326  0.59033  Biso   1.000  N
  N23      1.0000 0.98197  0.63276  0.68263  Biso   1.000  N
  N24      1.0000 0.99317  0.74653  0.65113  Biso   1.000  N
  H59      1.0000 0.00677  0.76763  0.60923  Biso   1.000  H
  H60      1.0000 0.97777  0.75183  0.69293  Biso   1.000  H
  N25      1.0000 0.97297  0.66859  0.70963  Biso   1.000  N
  Zn6      1.0000 0.60260  0.99693  0.15355  Biso   1.000  Zn
  C96      1.0000 0.59402  0.07613  0.21207  Biso   1.000  C
  C97      1.0000 0.61095  0.13043  0.21757  Biso   1.000  C
  C98      1.0000 0.65572  0.16541  0.17997  Biso   1.000  C
  H61      1.0000 0.67613  0.15547  0.15367  Biso   1.000  H
  C99      1.0000 0.66946  0.21432  0.18197  Biso   1.000  C
  H62      1.0000 0.69943  0.23717  0.15727  Biso   1.000  H
  C100     1.0000 0.63928  0.23079  0.22057  Biso   1.000  C
  C101     1.0000 0.59584  0.19528  0.26107  Biso   1.000  C
  H63      1.0000 0.57583  0.20507  0.28937  Biso   1.000  H
  C102     1.0000 0.58186  0.14590  0.25997  Biso   1.000  C
  H64      1.0000 0.55293  0.12307  0.28777  Biso   1.000  H
  C103     1.0000 0.65352  0.28342  0.21867  Biso   1.000  C
  C104     1.0000 0.61729  0.29709  0.21827  Biso   1.000  C
  H65      1.0000 0.58433  0.27287  0.21767  Biso   1.000  H
  C105     1.0000 0.51403  0.92207  0.10007  Biso   1.000  C
  C106     1.0000 0.47748  0.86877  0.08337  Biso   1.000  C
  C107     1.0000 0.43778  0.85535  0.02597  Biso   1.000  C
  H66      1.0000 0.43423  0.87957  0.99727  Biso   1.000  H
  C108     1.0000 0.40403  0.80687  0.01157  Biso   1.000  C
  H67      1.0000 0.37733  0.79877  0.97467  Biso   1.000  H
  C109     1.0000 0.40877  0.76918  0.05077  Biso   1.000  C
  C110     1.0000 0.44898  0.78234  0.10597  Biso   1.000  C
  H68      1.0000 0.45313  0.75787  0.13247  Biso   1.000  H
  C111     1.0000 0.48301  0.83142  0.12227  Biso   1.000  C
  H69      1.0000 0.50963  0.83947  0.15927  Biso   1.000  H
  C112     1.0000 0.37008  0.71649  0.04117  Biso   1.000  C
  C113     1.0000 0.38249  0.67931  0.04067  Biso   1.000  C
  H70      1.0000 0.41543  0.68787  0.04007  Biso   1.000  H
  C114     1.0000 0.66263  0.03849  0.98467  Biso   1.000  C
  O21      1.0000 0.51263  0.95479  0.05837  Biso   1.000  O
  O22      1.0000 0.54604  0.93062  0.15927  Biso   1.000  O
  O23      1.0000 0.56166  0.04596  0.26127  Biso   1.000  O
  O24      1.0000 0.61591  0.06463  0.15327  Biso   1.000  O
  N26      1.0000 0.67603  0.98097  0.94647  Biso   1.000  N
  N27      1.0000 0.68547  0.02660  0.92367  Biso   1.000  N
  N28      1.0000 0.64863  0.96610  0.01597  Biso   1.000  N
  N29      1.0000 0.65983  0.07987  0.98447  Biso   1.000  N
  H71      1.0000 0.67343  0.10097  0.94257  Biso   1.000  H
  H72      1.0000 0.64443  0.08517  0.02627  Biso   1.000  H
  N30      1.0000 0.63963  0.00193  0.04297  Biso   1.000  N
  Zn7      1.0000 0.66974  0.93901  0.48688  Biso   1.000  Zn
  C115     1.0000 0.59054  0.85123  0.54540  Biso   1.000  C
  C116     1.0000 0.53624  0.81386  0.55090  Biso   1.000  C
  C117     1.0000 0.50126  0.82365  0.51330  Biso   1.000  C
  H73      1.0000 0.51120  0.85400  0.48700  Biso   1.000  H
  C118     1.0000 0.45235  0.78848  0.51530  Biso   1.000  C
  H74      1.0000 0.42950  0.79560  0.49060  Biso   1.000  H
  C119     1.0000 0.43588  0.74183  0.55390  Biso   1.000  C
  C120     1.0000 0.47139  0.73390  0.59440  Biso   1.000  C
  H75      1.0000 0.46160  0.70410  0.62270  Biso   1.000  H
  C121     1.0000 0.52077  0.76930  0.59330  Biso   1.000  C
  H76      1.0000 0.54360  0.76320  0.62110  Biso   1.000  H
  C122     1.0000 0.38325  0.70344  0.55200  Biso   1.000  C
  C123     1.0000 0.36958  0.65354  0.55160  Biso   1.000  C
  H77      1.0000 0.39380  0.64480  0.55100  Biso   1.000  H
  C124     1.0000 0.74460  0.92530  0.43340  Biso   1.000  C
  C125     1.0000 0.79790  0.94205  0.41670  Biso   1.000  C
  C126     1.0000 0.81132  0.91577  0.35930  Biso   1.000  C
  H78      1.0000 0.78710  0.88800  0.33060  Biso   1.000  H
  C127     1.0000 0.85980  0.93050  0.34490  Biso   1.000  C
  H79      1.0000 0.86790  0.91190  0.30800  Biso   1.000  H
  C128     1.0000 0.89749  0.97293  0.38410  Biso   1.000  C
  C129     1.0000 0.88433  0.99998  0.43930  Biso   1.000  C
  H80      1.0000 0.90880  0.02860  0.46580  Biso   1.000  H
  C130     1.0000 0.83525  0.98493  0.45560  Biso   1.000  C
  H81      1.0000 0.82720  0.00350  0.49260  Biso   1.000  H
  C131     1.0000 0.95018  0.98693  0.37450  Biso   1.000  C
  C132     1.0000 0.98736  0.03652  0.37400  Biso   1.000  C
  H82      1.0000 0.97880  0.06090  0.37340  Biso   1.000  H
  C133     1.0000 0.62818  0.95748  0.31800  Biso   1.000  C
  O25      1.0000 0.71188  0.89118  0.39170  Biso   1.000  O
  O26      1.0000 0.73605  0.94876  0.49260  Biso   1.000  O
  O27      1.0000 0.62071  0.84904  0.59460  Biso   1.000  O
  O28      1.0000 0.60204  0.88462  0.48660  Biso   1.000  O
  N31      1.0000 0.68570  0.02840  0.27980  Biso   1.000  N
  N32      1.0000 0.64007  0.99221  0.25700  Biso   1.000  N
  N33      1.0000 0.70057  0.01587  0.34930  Biso   1.000  N
  N34      1.0000 0.58680  0.91330  0.31780  Biso   1.000  N
  H83      1.0000 0.56570  0.90580  0.27590  Biso   1.000  H
  H84      1.0000 0.58150  0.89260  0.35960  Biso   1.000  H
  N35      1.0000 0.66474  0.97104  0.37630  Biso   1.000  N
  Zn8      1.0000 0.33641  0.27234  0.82021  Biso   1.000  Zn
  C134     1.0000 0.25721  0.18456  0.87873  Biso   1.000  C
  C135     1.0000 0.20291  0.14719  0.88423  Biso   1.000  C
  C136     1.0000 0.16793  0.15698  0.84663  Biso   1.000  C
  H85      1.0000 0.17787  0.18733  0.82033  Biso   1.000  H
  C137     1.0000 0.11902  0.12181  0.84863  Biso   1.000  C
  H86      1.0000 0.09617  0.12893  0.82393  Biso   1.000  H
  C138     1.0000 0.10255  0.07516  0.88723  Biso   1.000  C
  C139     1.0000 0.13806  0.06723  0.92773  Biso   1.000  C
  H87      1.0000 0.12827  0.03743  0.95603  Biso   1.000  H
  C140     1.0000 0.18744  0.10263  0.92663  Biso   1.000  C
  H88      1.0000 0.21027  0.09653  0.95443  Biso   1.000  H
  C141     1.0000 0.04992  0.03677  0.88533  Biso   1.000  C
  C142     1.0000 0.03625  0.98687  0.88493  Biso   1.000  C
  H89      1.0000 0.06047  0.97813  0.88433  Biso   1.000  H
  C143     1.0000 0.41127  0.25863  0.76673  Biso   1.000  C
  C144     1.0000 0.46457  0.27538  0.75003  Biso   1.000  C
  C145     1.0000 0.47799  0.24910  0.69263  Biso   1.000  C
  H90      1.0000 0.45377  0.22133  0.66393  Biso   1.000  H
  C146     1.0000 0.52647  0.26383  0.67823  Biso   1.000  C
  H91      1.0000 0.53457  0.24523  0.64133  Biso   1.000  H
  C147     1.0000 0.56416  0.30626  0.71743  Biso   1.000  C
  C148     1.0000 0.55100  0.33331  0.77263  Biso   1.000  C
  H92      1.0000 0.57547  0.36193  0.79913  Biso   1.000  H
  C149     1.0000 0.50192  0.31826  0.78893  Biso   1.000  C
  H93      1.0000 0.49387  0.33683  0.82593  Biso   1.000  H
  C150     1.0000 0.61685  0.32026  0.70783  Biso   1.000  C
  C151     1.0000 0.65403  0.36985  0.70733  Biso   1.000  C
  H94      1.0000 0.64547  0.39423  0.70673  Biso   1.000  H
  C152     1.0000 0.29485  0.29081  0.65133  Biso   1.000  C
  O29      1.0000 0.37855  0.22451  0.72503  Biso   1.000  O
  O30      1.0000 0.40272  0.28209  0.82593  Biso   1.000  O
  O31      1.0000 0.28738  0.18237  0.92793  Biso   1.000  O
  O32      1.0000 0.26871  0.21795  0.81993  Biso   1.000  O
  N36      1.0000 0.35237  0.36173  0.61313  Biso   1.000  N
  N37      1.0000 0.30674  0.32554  0.59033  Biso   1.000  N
  N38      1.0000 0.36724  0.34920  0.68263  Biso   1.000  N
  N39      1.0000 0.25347  0.24663  0.65113  Biso   1.000  N
  H95      1.0000 0.23237  0.23913  0.60923  Biso   1.000  H
  H96      1.0000 0.24817  0.22593  0.69293  Biso   1.000  H
  N40      1.0000 0.33141  0.30437  0.70963  Biso   1.000  N
  Zn9      1.0000 0.00307  0.60568  0.15355  Biso   1.000  Zn
  C153     1.0000 0.92387  0.51790  0.21207  Biso   1.000  C
  C154     1.0000 0.86957  0.48053  0.21757  Biso   1.000  C
  C155     1.0000 0.83459  0.49032  0.17997  Biso   1.000  C
  H97      1.0000 0.84453  0.52067  0.15367  Biso   1.000  H
  C156     1.0000 0.78568  0.45515  0.18197  Biso   1.000  C
  H98      1.0000 0.76283  0.46227  0.15727  Biso   1.000  H
  C157     1.0000 0.76921  0.40850  0.22057  Biso   1.000  C
  C158     1.0000 0.80472  0.40057  0.26107  Biso   1.000  C
  H99      1.0000 0.79493  0.37077  0.28937  Biso   1.000  H
  C159     1.0000 0.85410  0.43597  0.25997  Biso   1.000  C
  H100     1.0000 0.87693  0.42987  0.28777  Biso   1.000  H
  C160     1.0000 0.71658  0.37011  0.21867  Biso   1.000  C
  C161     1.0000 0.70291  0.32021  0.21827  Biso   1.000  C
  H101     1.0000 0.72713  0.31147  0.21767  Biso   1.000  H
  C162     1.0000 0.07793  0.59197  0.10007  Biso   1.000  C
  C163     1.0000 0.13123  0.60872  0.08337  Biso   1.000  C
  C164     1.0000 0.14465  0.58244  0.02597  Biso   1.000  C
  H102     1.0000 0.12043  0.55467  0.99727  Biso   1.000  H
  C165     1.0000 0.19313  0.59717  0.01157  Biso   1.000  C
  H103     1.0000 0.20123  0.57857  0.97467  Biso   1.000  H
  C166     1.0000 0.23082  0.63960  0.05077  Biso   1.000  C
  C167     1.0000 0.21766  0.66665  0.10597  Biso   1.000  C
  H104     1.0000 0.24213  0.69527  0.13247  Biso   1.000  H
  C168     1.0000 0.16858  0.65160  0.12227  Biso   1.000  C
  H105     1.0000 0.16053  0.67017  0.15927  Biso   1.000  H
  C169     1.0000 0.28351  0.65360  0.04117  Biso   1.000  C
  C170     1.0000 0.32069  0.70319  0.04067  Biso   1.000  C
  H106     1.0000 0.31213  0.72757  0.04007  Biso   1.000  H
  C171     1.0000 0.96151  0.62415  0.98467  Biso   1.000  C
  O33      1.0000 0.04521  0.55785  0.05837  Biso   1.000  O
  O34      1.0000 0.06938  0.61543  0.15927  Biso   1.000  O
  O35      1.0000 0.95404  0.51571  0.26127  Biso   1.000  O
  O36      1.0000 0.93537  0.55129  0.15327  Biso   1.000  O
  N41      1.0000 0.01903  0.69507  0.94647  Biso   1.000  N
  N42      1.0000 0.97340  0.65888  0.92367  Biso   1.000  N
  N43      1.0000 0.03390  0.68254  0.01597  Biso   1.000  N
  N44      1.0000 0.92013  0.57997  0.98447  Biso   1.000  N
  H107     1.0000 0.89903  0.57247  0.94257  Biso   1.000  H
  H108     1.0000 0.91483  0.55927  0.02627  Biso   1.000  H
  N45      1.0000 0.99807  0.63771  0.04297  Biso   1.000  N
  Zn10     1.0000 0.93901  0.26927  0.51312  Biso   1.000  Zn
  C172     1.0000 0.85123  0.26069  0.45460  Biso   1.000  C
  C173     1.0000 0.81386  0.27762  0.44910  Biso   1.000  C
  C174     1.0000 0.82365  0.32239  0.48670  Biso   1.000  C
  H109     1.0000 0.85400  0.34280  0.51300  Biso   1.000  H
  C175     1.0000 0.78848  0.33613  0.48470  Biso   1.000  C
  H110     1.0000 0.79560  0.36610  0.50940  Biso   1.000  H
  C176     1.0000 0.74183  0.30595  0.44610  Biso   1.000  C
  C177     1.0000 0.73390  0.26251  0.40560  Biso   1.000  C
  H111     1.0000 0.70410  0.24250  0.37730  Biso   1.000  H
  C178     1.0000 0.76930  0.24853  0.40670  Biso   1.000  C
  H112     1.0000 0.76320  0.21960  0.37890  Biso   1.000  H
  C179     1.0000 0.70344  0.32019  0.44800  Biso   1.000  C
  C180     1.0000 0.65354  0.28396  0.44840  Biso   1.000  C
  H113     1.0000 0.64480  0.25100  0.44900  Biso   1.000  H
  C181     1.0000 0.92530  0.18070  0.56660  Biso   1.000  C
  C182     1.0000 0.94205  0.14415  0.58330  Biso   1.000  C
  C183     1.0000 0.91577  0.10445  0.64070  Biso   1.000  C
  H114     1.0000 0.88800  0.10090  0.66940  Biso   1.000  H
  C184     1.0000 0.93050  0.07070  0.65510  Biso   1.000  C
  H115     1.0000 0.91190  0.04400  0.69200  Biso   1.000  H
  C185     1.0000 0.97293  0.07544  0.61590  Biso   1.000  C
  C186     1.0000 0.99998  0.11565  0.56070  Biso   1.000  C
  H116     1.0000 0.02860  0.11980  0.53420  Biso   1.000  H
  C187     1.0000 0.98493  0.14968  0.54440  Biso   1.000  C
  H117     1.0000 0.00350  0.17630  0.50740  Biso   1.000  H
  C188     1.0000 0.98693  0.03675  0.62550  Biso   1.000  C
  C189     1.0000 0.03652  0.04916  0.62600  Biso   1.000  C
  H118     1.0000 0.06090  0.08210  0.62660  Biso   1.000  H
  C190     1.0000 0.95748  0.32930  0.68200  Biso   1.000  C
  O37      1.0000 0.89118  0.17930  0.60830  Biso   1.000  O
  O38      1.0000 0.94876  0.21271  0.50740  Biso   1.000  O
  O39      1.0000 0.84904  0.22833  0.40540  Biso   1.000  O
  O40      1.0000 0.88462  0.28258  0.51340  Biso   1.000  O
  N46      1.0000 0.02840  0.34270  0.72020  Biso   1.000  N
  N47      1.0000 0.99221  0.35214  0.74300  Biso   1.000  N
  N48      1.0000 0.01587  0.31530  0.65070  Biso   1.000  N
  N49      1.0000 0.91330  0.32650  0.68220  Biso   1.000  N
  H119     1.0000 0.90580  0.34010  0.72410  Biso   1.000  H
  H120     1.0000 0.89260  0.31110  0.64040  Biso   1.000  H
  N50      1.0000 0.97104  0.30630  0.62370  Biso   1.000  N
  Zn11     1.0000 0.60568  0.60260  0.84645  Biso   1.000  Zn
  C191     1.0000 0.51790  0.59402  0.78793  Biso   1.000  C
  C192     1.0000 0.48053  0.61095  0.78243  Biso   1.000  C
  C193     1.0000 0.49032  0.65572  0.82003  Biso   1.000  C
  H121     1.0000 0.52067  0.67613  0.84633  Biso   1.000  H
  C194     1.0000 0.45515  0.66946  0.81803  Biso   1.000  C
  H122     1.0000 0.46227  0.69943  0.84273  Biso   1.000  H
  C195     1.0000 0.40850  0.63928  0.77943  Biso   1.000  C
  C196     1.0000 0.40057  0.59584  0.73893  Biso   1.000  C
  H123     1.0000 0.37077  0.57583  0.71063  Biso   1.000  H
  C197     1.0000 0.43597  0.58186  0.74003  Biso   1.000  C
  H124     1.0000 0.42987  0.55293  0.71223  Biso   1.000  H
  C198     1.0000 0.37011  0.65352  0.78133  Biso   1.000  C
  C199     1.0000 0.32021  0.61729  0.78173  Biso   1.000  C
  H125     1.0000 0.31147  0.58433  0.78233  Biso   1.000  H
  C200     1.0000 0.59197  0.51403  0.89993  Biso   1.000  C
  C201     1.0000 0.60872  0.47748  0.91663  Biso   1.000  C
  C202     1.0000 0.58244  0.43778  0.97403  Biso   1.000  C
  H126     1.0000 0.55467  0.43423  0.00273  Biso   1.000  H
  C203     1.0000 0.59717  0.40403  0.98843  Biso   1.000  C
  H127     1.0000 0.57857  0.37733  0.02533  Biso   1.000  H
  C204     1.0000 0.63960  0.40877  0.94923  Biso   1.000  C
  C205     1.0000 0.66665  0.44898  0.89403  Biso   1.000  C
  H128     1.0000 0.69527  0.45313  0.86753  Biso   1.000  H
  C206     1.0000 0.65160  0.48301  0.87773  Biso   1.000  C
  H129     1.0000 0.67017  0.50963  0.84073  Biso   1.000  H
  C207     1.0000 0.65360  0.37008  0.95883  Biso   1.000  C
  C208     1.0000 0.70319  0.38249  0.95933  Biso   1.000  C
  H130     1.0000 0.72757  0.41543  0.95993  Biso   1.000  H
  C209     1.0000 0.62415  0.66263  0.01533  Biso   1.000  C
  O41      1.0000 0.55785  0.51263  0.94163  Biso   1.000  O
  O42      1.0000 0.61543  0.54604  0.84073  Biso   1.000  O
  O43      1.0000 0.51571  0.56166  0.73873  Biso   1.000  O
  O44      1.0000 0.55129  0.61591  0.84673  Biso   1.000  O
  N51      1.0000 0.69507  0.67603  0.05353  Biso   1.000  N
  N52      1.0000 0.65888  0.68547  0.07633  Biso   1.000  N
  N53      1.0000 0.68254  0.64863  0.98403  Biso   1.000  N
  N54      1.0000 0.57997  0.65983  0.01553  Biso   1.000  N
  H131     1.0000 0.57247  0.67343  0.05743  Biso   1.000  H
  H132     1.0000 0.55927  0.64443  0.97373  Biso   1.000  H
  N55      1.0000 0.63771  0.63963  0.95703  Biso   1.000  N
  Zn12     1.0000 0.27234  0.93594  0.17979  Biso   1.000  Zn
  C210     1.0000 0.18456  0.92736  0.12127  Biso   1.000  C
  C211     1.0000 0.14719  0.94429  0.11577  Biso   1.000  C
  C212     1.0000 0.15698  0.98906  0.15337  Biso   1.000  C
  H133     1.0000 0.18733  0.00947  0.17967  Biso   1.000  H
  C213     1.0000 0.12181  0.00280  0.15137  Biso   1.000  C
  H134     1.0000 0.12893  0.03277  0.17607  Biso   1.000  H
  C214     1.0000 0.07516  0.97262  0.11277  Biso   1.000  C
  C215     1.0000 0.06723  0.92918  0.07227  Biso   1.000  C
  H135     1.0000 0.03743  0.90917  0.04397  Biso   1.000  H
  C216     1.0000 0.10263  0.91520  0.07337  Biso   1.000  C
  H136     1.0000 0.09653  0.88627  0.04557  Biso   1.000  H
  C217     1.0000 0.03677  0.98686  0.11467  Biso   1.000  C
  C218     1.0000 0.98687  0.95063  0.11507  Biso   1.000  C
  H137     1.0000 0.97813  0.91767  0.11567  Biso   1.000  H
  C219     1.0000 0.25863  0.84737  0.23327  Biso   1.000  C
  C220     1.0000 0.27538  0.81082  0.24997  Biso   1.000  C
  C221     1.0000 0.24910  0.77112  0.30737  Biso   1.000  C
  H138     1.0000 0.22133  0.76757  0.33607  Biso   1.000  H
  C222     1.0000 0.26383  0.73737  0.32177  Biso   1.000  C
  H139     1.0000 0.24523  0.71067  0.35867  Biso   1.000  H
  C223     1.0000 0.30626  0.74211  0.28257  Biso   1.000  C
  C224     1.0000 0.33331  0.78232  0.22737  Biso   1.000  C
  H140     1.0000 0.36193  0.78647  0.20087  Biso   1.000  H
  C225     1.0000 0.31826  0.81635  0.21107  Biso   1.000  C
  H141     1.0000 0.33683  0.84297  0.17407  Biso   1.000  H
  C226     1.0000 0.32026  0.70342  0.29217  Biso   1.000  C
  C227     1.0000 0.36985  0.71583  0.29267  Biso   1.000  C
  H142     1.0000 0.39423  0.74877  0.29327  Biso   1.000  H
  C228     1.0000 0.29081  0.99597  0.34867  Biso   1.000  C
  O45      1.0000 0.22451  0.84597  0.27497  Biso   1.000  O
  O46      1.0000 0.28209  0.87938  0.17407  Biso   1.000  O
  O47      1.0000 0.18237  0.89500  0.07207  Biso   1.000  O
  O48      1.0000 0.21795  0.94925  0.18007  Biso   1.000  O
  N56      1.0000 0.36173  0.00937  0.38687  Biso   1.000  N
  N57      1.0000 0.32554  0.01881  0.40967  Biso   1.000  N
  N58      1.0000 0.34920  0.98197  0.31737  Biso   1.000  N
  N59      1.0000 0.24663  0.99317  0.34887  Biso   1.000  N
  H143     1.0000 0.23913  0.00677  0.39077  Biso   1.000  H
  H144     1.0000 0.22593  0.97777  0.30707  Biso   1.000  H
  N60      1.0000 0.30437  0.97297  0.29037  Biso   1.000  N
  Zn13     1.0000 0.73073  0.66974  0.51312  Biso   1.000  Zn
  C229     1.0000 0.73931  0.59054  0.45460  Biso   1.000  C
  C230     1.0000 0.72238  0.53624  0.44910  Biso   1.000  C
  C231     1.0000 0.67761  0.50126  0.48670  Biso   1.000  C
  H145     1.0000 0.65720  0.51120  0.51300  Biso   1.000  H
  C232     1.0000 0.66387  0.45235  0.48470  Biso   1.000  C
  H146     1.0000 0.63390  0.42950  0.50940  Biso   1.000  H
  C233     1.0000 0.69405  0.43588  0.44610  Biso   1.000  C
  C234     1.0000 0.73749  0.47139  0.40560  Biso   1.000  C
  H147     1.0000 0.75750  0.46160  0.37730  Biso   1.000  H
  C235     1.0000 0.75147  0.52077  0.40670  Biso   1.000  C
  H148     1.0000 0.78040  0.54360  0.37890  Biso   1.000  H
  C236     1.0000 0.67981  0.38325  0.44800  Biso   1.000  C
  C237     1.0000 0.71604  0.36958  0.44840  Biso   1.000  C
  H149     1.0000 0.74900  0.39380  0.44900  Biso   1.000  H
  C238     1.0000 0.81930  0.74460  0.56660  Biso   1.000  C
  C239     1.0000 0.85585  0.79790  0.58330  Biso   1.000  C
  C240     1.0000 0.89555  0.81132  0.64070  Biso   1.000  C
  H150     1.0000 0.89910  0.78710  0.66940  Biso   1.000  H
  C241     1.0000 0.92930  0.85980  0.65510  Biso   1.000  C
  H151     1.0000 0.95600  0.86790  0.69200  Biso   1.000  H
  C242     1.0000 0.92456  0.89749  0.61590  Biso   1.000  C
  C243     1.0000 0.88435  0.88433  0.56070  Biso   1.000  C
  H152     1.0000 0.88020  0.90880  0.53420  Biso   1.000  H
  C244     1.0000 0.85032  0.83525  0.54440  Biso   1.000  C
  H153     1.0000 0.82370  0.82720  0.50740  Biso   1.000  H
  C245     1.0000 0.96325  0.95018  0.62550  Biso   1.000  C
  C246     1.0000 0.95084  0.98736  0.62600  Biso   1.000  C
  H154     1.0000 0.91790  0.97880  0.62660  Biso   1.000  H
  C247     1.0000 0.67070  0.62818  0.68200  Biso   1.000  C
  O49      1.0000 0.82070  0.71188  0.60830  Biso   1.000  O
  O50      1.0000 0.78729  0.73605  0.50740  Biso   1.000  O
  O51      1.0000 0.77167  0.62071  0.40540  Biso   1.000  O
  O52      1.0000 0.71742  0.60204  0.51340  Biso   1.000  O
  N61      1.0000 0.65730  0.68570  0.72020  Biso   1.000  N
  N62      1.0000 0.64786  0.64007  0.74300  Biso   1.000  N
  N63      1.0000 0.68470  0.70057  0.65070  Biso   1.000  N
  N64      1.0000 0.67350  0.58680  0.68220  Biso   1.000  N
  H155     1.0000 0.65990  0.56570  0.72410  Biso   1.000  H
  H156     1.0000 0.68890  0.58150  0.64040  Biso   1.000  H
  N65      1.0000 0.69370  0.66474  0.62370  Biso   1.000  N
  Zn14     1.0000 0.39740  0.00307  0.84645  Biso   1.000  Zn
  C248     1.0000 0.40598  0.92387  0.78793  Biso   1.000  C
  C249     1.0000 0.38905  0.86957  0.78243  Biso   1.000  C
  C250     1.0000 0.34428  0.83459  0.82003  Biso   1.000  C
  H157     1.0000 0.32387  0.84453  0.84633  Biso   1.000  H
  C251     1.0000 0.33054  0.78568  0.81803  Biso   1.000  C
  H158     1.0000 0.30057  0.76283  0.84273  Biso   1.000  H
  C252     1.0000 0.36072  0.76921  0.77943  Biso   1.000  C
  C253     1.0000 0.40416  0.80472  0.73893  Biso   1.000  C
  H159     1.0000 0.42417  0.79493  0.71063  Biso   1.000  H
  C254     1.0000 0.41814  0.85410  0.74003  Biso   1.000  C
  H160     1.0000 0.44707  0.87693  0.71223  Biso   1.000  H
  C255     1.0000 0.34648  0.71658  0.78133  Biso   1.000  C
  C256     1.0000 0.38271  0.70291  0.78173  Biso   1.000  C
  H161     1.0000 0.41567  0.72713  0.78233  Biso   1.000  H
  C257     1.0000 0.48597  0.07793  0.89993  Biso   1.000  C
  C258     1.0000 0.52252  0.13123  0.91663  Biso   1.000  C
  C259     1.0000 0.56222  0.14465  0.97403  Biso   1.000  C
  H162     1.0000 0.56577  0.12043  0.00273  Biso   1.000  H
  C260     1.0000 0.59597  0.19313  0.98843  Biso   1.000  C
  H163     1.0000 0.62267  0.20123  0.02533  Biso   1.000  H
  C261     1.0000 0.59123  0.23082  0.94923  Biso   1.000  C
  C262     1.0000 0.55102  0.21766  0.89403  Biso   1.000  C
  H164     1.0000 0.54687  0.24213  0.86753  Biso   1.000  H
  C263     1.0000 0.51699  0.16858  0.87773  Biso   1.000  C
  H165     1.0000 0.49037  0.16053  0.84073  Biso   1.000  H
  C264     1.0000 0.62992  0.28351  0.95883  Biso   1.000  C
  C265     1.0000 0.61751  0.32069  0.95933  Biso   1.000  C
  H166     1.0000 0.58457  0.31213  0.95993  Biso   1.000  H
  C266     1.0000 0.33737  0.96151  0.01533  Biso   1.000  C
  O53      1.0000 0.48737  0.04521  0.94163  Biso   1.000  O
  O54      1.0000 0.45396  0.06938  0.84073  Biso   1.000  O
  O55      1.0000 0.43834  0.95404  0.73873  Biso   1.000  O
  O56      1.0000 0.38409  0.93537  0.84673  Biso   1.000  O
  N66      1.0000 0.32397  0.01903  0.05353  Biso   1.000  N
  N67      1.0000 0.31453  0.97340  0.07633  Biso   1.000  N
  N68      1.0000 0.35137  0.03390  0.98403  Biso   1.000  N
  N69      1.0000 0.34017  0.92013  0.01553  Biso   1.000  N
  H167     1.0000 0.32657  0.89903  0.05743  Biso   1.000  H
  H168     1.0000 0.35557  0.91483  0.97373  Biso   1.000  H
  N70      1.0000 0.36037  0.99807  0.95703  Biso   1.000  N
  Zn15     1.0000 0.06406  0.33641  0.17979  Biso   1.000  Zn
  C267     1.0000 0.07264  0.25721  0.12127  Biso   1.000  C
  C268     1.0000 0.05571  0.20291  0.11577  Biso   1.000  C
  C269     1.0000 0.01094  0.16793  0.15337  Biso   1.000  C
  H169     1.0000 0.99053  0.17787  0.17967  Biso   1.000  H
  C270     1.0000 0.99720  0.11902  0.15137  Biso   1.000  C
  H170     1.0000 0.96723  0.09617  0.17607  Biso   1.000  H
  C271     1.0000 0.02738  0.10255  0.11277  Biso   1.000  C
  C272     1.0000 0.07082  0.13806  0.07227  Biso   1.000  C
  H171     1.0000 0.09083  0.12827  0.04397  Biso   1.000  H
  C273     1.0000 0.08480  0.18744  0.07337  Biso   1.000  C
  H172     1.0000 0.11373  0.21027  0.04557  Biso   1.000  H
  C274     1.0000 0.01314  0.04992  0.11467  Biso   1.000  C
  C275     1.0000 0.04937  0.03625  0.11507  Biso   1.000  C
  H173     1.0000 0.08233  0.06047  0.11567  Biso   1.000  H
  C276     1.0000 0.15263  0.41127  0.23327  Biso   1.000  C
  C277     1.0000 0.18918  0.46457  0.24997  Biso   1.000  C
  C278     1.0000 0.22888  0.47799  0.30737  Biso   1.000  C
  H174     1.0000 0.23243  0.45377  0.33607  Biso   1.000  H
  C279     1.0000 0.26263  0.52647  0.32177  Biso   1.000  C
  H175     1.0000 0.28933  0.53457  0.35867  Biso   1.000  H
  C280     1.0000 0.25789  0.56416  0.28257  Biso   1.000  C
  C281     1.0000 0.21768  0.55100  0.22737  Biso   1.000  C
  H176     1.0000 0.21353  0.57547  0.20087  Biso   1.000  H
  C282     1.0000 0.18365  0.50192  0.21107  Biso   1.000  C
  H177     1.0000 0.15703  0.49387  0.17407  Biso   1.000  H
  C283     1.0000 0.29658  0.61685  0.29217  Biso   1.000  C
  C284     1.0000 0.28417  0.65403  0.29267  Biso   1.000  C
  H178     1.0000 0.25123  0.64547  0.29327  Biso   1.000  H
  C285     1.0000 0.00403  0.29485  0.34867  Biso   1.000  C
  O57      1.0000 0.15403  0.37855  0.27497  Biso   1.000  O
  O58      1.0000 0.12062  0.40272  0.17407  Biso   1.000  O
  O59      1.0000 0.10500  0.28738  0.07207  Biso   1.000  O
  O60      1.0000 0.05075  0.26871  0.18007  Biso   1.000  O
  N71      1.0000 0.99063  0.35237  0.38687  Biso   1.000  N
  N72      1.0000 0.98119  0.30674  0.40967  Biso   1.000  N
  N73      1.0000 0.01803  0.36724  0.31737  Biso   1.000  N
  N74      1.0000 0.00683  0.25347  0.34887  Biso   1.000  N
  H179     1.0000 0.99323  0.23237  0.39077  Biso   1.000  H
  H180     1.0000 0.02223  0.24817  0.30707  Biso   1.000  H
  N75      1.0000 0.02703  0.33141  0.29037  Biso   1.000  N
  Zn16     1.0000 0.33026  0.06099  0.51312  Biso   1.000  Zn
  C286     1.0000 0.40946  0.14877  0.45460  Biso   1.000  C
  C287     1.0000 0.46376  0.18614  0.44910  Biso   1.000  C
  C288     1.0000 0.49874  0.17635  0.48670  Biso   1.000  C
  H181     1.0000 0.48880  0.14600  0.51300  Biso   1.000  H
  C289     1.0000 0.54765  0.21152  0.48470  Biso   1.000  C
  H182     1.0000 0.57050  0.20440  0.50940  Biso   1.000  H
  C290     1.0000 0.56412  0.25817  0.44610  Biso   1.000  C
  C291     1.0000 0.52861  0.26610  0.40560  Biso   1.000  C
  H183     1.0000 0.53840  0.29590  0.37730  Biso   1.000  H
  C292     1.0000 0.47923  0.23070  0.40670  Biso   1.000  C
  H184     1.0000 0.45640  0.23680  0.37890  Biso   1.000  H
  C293     1.0000 0.61675  0.29656  0.44800  Biso   1.000  C
  C294     1.0000 0.63042  0.34646  0.44840  Biso   1.000  C
  H185     1.0000 0.60620  0.35520  0.44900  Biso   1.000  H
  C295     1.0000 0.25540  0.07470  0.56660  Biso   1.000  C
  C296     1.0000 0.20210  0.05795  0.58330  Biso   1.000  C
  C297     1.0000 0.18868  0.08423  0.64070  Biso   1.000  C
  H186     1.0000 0.21290  0.11200  0.66940  Biso   1.000  H
  C298     1.0000 0.14020  0.06950  0.65510  Biso   1.000  C
  H187     1.0000 0.13210  0.08810  0.69200  Biso   1.000  H
  C299     1.0000 0.10251  0.02707  0.61590  Biso   1.000  C
  C300     1.0000 0.11567  0.00002  0.56070  Biso   1.000  C
  H188     1.0000 0.09120  0.97140  0.53420  Biso   1.000  H
  C301     1.0000 0.16475  0.01507  0.54440  Biso   1.000  C
  H189     1.0000 0.17280  0.99650  0.50740  Biso   1.000  H
  C302     1.0000 0.04982  0.01307  0.62550  Biso   1.000  C
  C303     1.0000 0.01264  0.96348  0.62600  Biso   1.000  C
  H190     1.0000 0.02120  0.93910  0.62660  Biso   1.000  H
  C304     1.0000 0.37182  0.04252  0.68200  Biso   1.000  C
  O61      1.0000 0.28812  0.10882  0.60830  Biso   1.000  O
  O62      1.0000 0.26395  0.05124  0.50740  Biso   1.000  O
  O63      1.0000 0.37929  0.15096  0.40540  Biso   1.000  O
  O64      1.0000 0.39796  0.11538  0.51340  Biso   1.000  O
  N76      1.0000 0.31430  0.97160  0.72020  Biso   1.000  N
  N77      1.0000 0.35993  0.00779  0.74300  Biso   1.000  N
  N78      1.0000 0.29943  0.98413  0.65070  Biso   1.000  N
  N79      1.0000 0.41320  0.08670  0.68220  Biso   1.000  N
  H191     1.0000 0.43430  0.09420  0.72410  Biso   1.000  H
  H192     1.0000 0.41850  0.10740  0.64040  Biso   1.000  H
  N80      1.0000 0.33526  0.02896  0.62370  Biso   1.000  N
  Zn17     1.0000 0.99693  0.39432  0.84645  Biso   1.000  Zn
  C305     1.0000 0.07613  0.48210  0.78793  Biso   1.000  C
  C306     1.0000 0.13043  0.51947  0.78243  Biso   1.000  C
  C307     1.0000 0.16541  0.50968  0.82003  Biso   1.000  C
  H193     1.0000 0.15547  0.47933  0.84633  Biso   1.000  H
  C308     1.0000 0.21432  0.54485  0.81803  Biso   1.000  C
  H194     1.0000 0.23717  0.53773  0.84273  Biso   1.000  H
  C309     1.0000 0.23079  0.59150  0.77943  Biso   1.000  C
  C310     1.0000 0.19528  0.59943  0.73893  Biso   1.000  C
  H195     1.0000 0.20507  0.62923  0.71063  Biso   1.000  H
  C311     1.0000 0.14590  0.56403  0.74003  Biso   1.000  C
  H196     1.0000 0.12307  0.57013  0.71223  Biso   1.000  H
  C312     1.0000 0.28342  0.62989  0.78133  Biso   1.000  C
  C313     1.0000 0.29709  0.67979  0.78173  Biso   1.000  C
  H197     1.0000 0.27287  0.68853  0.78233  Biso   1.000  H
  C314     1.0000 0.92207  0.40803  0.89993  Biso   1.000  C
  C315     1.0000 0.86877  0.39128  0.91663  Biso   1.000  C
  C316     1.0000 0.85535  0.41756  0.97403  Biso   1.000  C
  H198     1.0000 0.87957  0.44533  0.00273  Biso   1.000  H
  C317     1.0000 0.80687  0.40283  0.98843  Biso   1.000  C
  H199     1.0000 0.79877  0.42143  0.02533  Biso   1.000  H
  C318     1.0000 0.76918  0.36040  0.94923  Biso   1.000  C
  C319     1.0000 0.78234  0.33335  0.89403  Biso   1.000  C
  H200     1.0000 0.75787  0.30473  0.86753  Biso   1.000  H
  C320     1.0000 0.83142  0.34840  0.87773  Biso   1.000  C
  H201     1.0000 0.83947  0.32983  0.84073  Biso   1.000  H
  C321     1.0000 0.71649  0.34640  0.95883  Biso   1.000  C
  C322     1.0000 0.67931  0.29681  0.95933  Biso   1.000  C
  H202     1.0000 0.68787  0.27243  0.95993  Biso   1.000  H
  C323     1.0000 0.03849  0.37585  0.01533  Biso   1.000  C
  O65      1.0000 0.95479  0.44215  0.94163  Biso   1.000  O
  O66      1.0000 0.93062  0.38457  0.84073  Biso   1.000  O
  O67      1.0000 0.04596  0.48429  0.73873  Biso   1.000  O
  O68      1.0000 0.06463  0.44871  0.84673  Biso   1.000  O
  N81      1.0000 0.98097  0.30493  0.05353  Biso   1.000  N
  N82      1.0000 0.02660  0.34112  0.07633  Biso   1.000  N
  N83      1.0000 0.96610  0.31746  0.98403  Biso   1.000  N
  N84      1.0000 0.07987  0.42003  0.01553  Biso   1.000  N
  H203     1.0000 0.10097  0.42753  0.05743  Biso   1.000  H
  H204     1.0000 0.08517  0.44073  0.97373  Biso   1.000  H
  N85      1.0000 0.00193  0.36229  0.95703  Biso   1.000  N
  Zn18     1.0000 0.66359  0.72766  0.17979  Biso   1.000  Zn
  C324     1.0000 0.74279  0.81544  0.12127  Biso   1.000  C
  C325     1.0000 0.79709  0.85281  0.11577  Biso   1.000  C
  C326     1.0000 0.83207  0.84302  0.15337  Biso   1.000  C
  H205     1.0000 0.82213  0.81267  0.17967  Biso   1.000  H
  C327     1.0000 0.88098  0.87819  0.15137  Biso   1.000  C
  H206     1.0000 0.90383  0.87107  0.17607  Biso   1.000  H
  C328     1.0000 0.89745  0.92484  0.11277  Biso   1.000  C
  C329     1.0000 0.86194  0.93277  0.07227  Biso   1.000  C
  H207     1.0000 0.87173  0.96257  0.04397  Biso   1.000  H
  C330     1.0000 0.81256  0.89737  0.07337  Biso   1.000  C
  H208     1.0000 0.78973  0.90347  0.04557  Biso   1.000  H
  C331     1.0000 0.95008  0.96323  0.11467  Biso   1.000  C
  C332     1.0000 0.96375  0.01313  0.11507  Biso   1.000  C
  H209     1.0000 0.93953  0.02187  0.11567  Biso   1.000  H
  C333     1.0000 0.58873  0.74137  0.23327  Biso   1.000  C
  C334     1.0000 0.53543  0.72462  0.24997  Biso   1.000  C
  C335     1.0000 0.52201  0.75090  0.30737  Biso   1.000  C
  H210     1.0000 0.54623  0.77867  0.33607  Biso   1.000  H
  C336     1.0000 0.47353  0.73617  0.32177  Biso   1.000  C
  H211     1.0000 0.46543  0.75477  0.35867  Biso   1.000  H
  C337     1.0000 0.43584  0.69374  0.28257  Biso   1.000  C
  C338     1.0000 0.44900  0.66669  0.22737  Biso   1.000  C
  H212     1.0000 0.42453  0.63807  0.20087  Biso   1.000  H
  C339     1.0000 0.49808  0.68174  0.21107  Biso   1.000  C
  H213     1.0000 0.50613  0.66317  0.17407  Biso   1.000  H
  C340     1.0000 0.38315  0.67974  0.29217  Biso   1.000  C
  C341     1.0000 0.34597  0.63015  0.29267  Biso   1.000  C
  H214     1.0000 0.35453  0.60577  0.29327  Biso   1.000  H
  C342     1.0000 0.70515  0.70919  0.34867  Biso   1.000  C
  O69      1.0000 0.62145  0.77549  0.27497  Biso   1.000  O
  O70      1.0000 0.59728  0.71791  0.17407  Biso   1.000  O
  O71      1.0000 0.71262  0.81763  0.07207  Biso   1.000  O
  O72      1.0000 0.73129  0.78205  0.18007  Biso   1.000  O
  N86      1.0000 0.64763  0.63827  0.38687  Biso   1.000  N
  N87      1.0000 0.69326  0.67446  0.40967  Biso   1.000  N
  N88      1.0000 0.63276  0.65080  0.31737  Biso   1.000  N
  N89      1.0000 0.74653  0.75337  0.34887  Biso   1.000  N
  H215     1.0000 0.76763  0.76087  0.39077  Biso   1.000  H
  H216     1.0000 0.75183  0.77407  0.30707  Biso   1.000  H
  N90      1.0000 0.66859  0.69563  0.29037  Biso   1.000  N
