data_LAJLIT_charged
_audit_creation_date              2014-07-02
_audit_creation_method            'Materials Studio'
_symmetry_space_group_name_H-M    'P1'
_symmetry_Int_Tables_number       1
_symmetry_cell_setting            triclinic
loop_
_symmetry_equiv_pos_as_xyz
  x,y,z
_cell_length_a                    26.3896
_cell_length_b                    26.3896
_cell_length_c                    26.3896
_cell_angle_alpha                 107.8250
_cell_angle_beta                  107.8250
_cell_angle_gamma                 107.8250
loop_
_atom_site_label
_atom_site_type_symbol
_atom_site_fract_x
_atom_site_fract_y
_atom_site_fract_z
_atom_site_U_iso_or_equiv
_atom_site_adp_type
_atom_site_occupancy
K1     K     0.68283   0.37150   0.68941   0.01267  Uiso   1.00
K2     K     0.68941   0.68283   0.37150   0.01267  Uiso   1.00
K3     K     0.37150   0.68941   0.68283   0.01267  Uiso   1.00
K4     K     0.62850   0.31717   0.31059   0.01267  Uiso   1.00
K5     K     0.31717   0.31059   0.62850   0.01267  Uiso   1.00
K6     K     0.31059   0.62850   0.31717   0.01267  Uiso   1.00
K7     K     0.68971   0.31029   0.00000   0.01267  Uiso   1.00
K8     K     0.00000   0.68971   0.31029   0.01267  Uiso   1.00
K9     K     0.31029  -0.00000   0.68971   0.01267  Uiso   1.00
K10    K     0.00000   0.29927   0.70073   0.01267  Uiso   1.00
K11    K     0.70073  -0.00000   0.29927   0.01267  Uiso   1.00
K12    K     0.29927   0.70073  -0.00000   0.01267  Uiso   1.00
H1     H     0.86790   0.20120   0.73140   0.01267  Uiso   1.00
H2     H     0.90990   0.19310   0.70170   0.01267  Uiso   1.00
H3     H     0.82580   0.16720   0.65960   0.01267  Uiso   1.00
H4     H     0.83320   0.26980   0.67230   0.01267  Uiso   1.00
H5     H     0.74640   0.16260   0.61730   0.01267  Uiso   1.00
H6     H     0.75270   0.25880   0.60660   0.01267  Uiso   1.00
H7     H     0.77800   0.21710   0.55340   0.01267  Uiso   1.00
H8     H     0.80930   0.15590   0.50920   0.01267  Uiso   1.00
H9     H     0.84830   0.24120   0.88620   0.01267  Uiso   1.00
H10    H     0.78690   0.22710   0.89000   0.01267  Uiso   1.00
H11    H     0.77310   0.20960   0.79470   0.01267  Uiso   1.00
H12    H     0.75480   0.31000   0.84940   0.01267  Uiso   1.00
H13    H     0.70110   0.23740   0.72370   0.01267  Uiso   1.00
H14    H     0.79580   0.35840   0.78910   0.01267  Uiso   1.00
H15    H     0.85830   0.31850   0.76260   0.01267  Uiso   1.00
H16    H     0.47640   0.98860   0.73280   0.01267  Uiso   1.00
H17    H     0.67730   0.15730   0.85730   0.01267  Uiso   1.00
H18    H     0.57190   0.15320   0.87110   0.01267  Uiso   1.00
H19    H     0.58760   0.13340   0.76570   0.01267  Uiso   1.00
H20    H     0.49540   0.10960   0.78180   0.01267  Uiso   1.00
H21    H     0.58140   0.23590   0.83650   0.01267  Uiso   1.00
H22    H     0.61730   0.25200   0.76200   0.01267  Uiso   1.00
H23    H     0.62000   0.94240   0.84600   0.01267  Uiso   1.00
H24    H     0.57320   0.89150   0.78140   0.01267  Uiso   1.00
H25    H     0.51530   0.86790   0.81880   0.01267  Uiso   1.00
H26    H     0.57640   0.98100   0.78380   0.01267  Uiso   1.00
H27    H     0.72400   0.18350   0.95780   0.01267  Uiso   1.00
H28    H     0.66490   0.12340   0.92910   0.01267  Uiso   1.00
H29    H     0.45880   0.99750   0.83750   0.01267  Uiso   1.00
H30    H     0.55850   0.07850   0.89290   0.01267  Uiso   1.00
H31    H     0.53120   0.75350   0.70730   0.01267  Uiso   1.00
H32    H     0.52950   0.73190   0.64270   0.01267  Uiso   1.00
H33    H     0.51700   0.81950   0.66720   0.01267  Uiso   1.00
H34    H     0.40570   0.71900   0.57240   0.01267  Uiso   1.00
H35    H     0.45550   0.84220   0.59380   0.01267  Uiso   1.00
H36    H     0.34590   0.77780   0.51790   0.01267  Uiso   1.00
H37    H     0.35470   0.77700   0.60500   0.01267  Uiso   1.00
H38    H     0.37530   0.87010   0.59270   0.01267  Uiso   1.00
H39    H     0.40400   0.83420   0.70580   0.01267  Uiso   1.00
H40    H     0.64050   0.74670   0.53160   0.01267  Uiso   1.00
H41    H     0.62160   0.71840   0.57250   0.01267  Uiso   1.00
H42    H     0.56820   0.76700   0.54370   0.01267  Uiso   1.00
H43    H     0.51850   0.67650   0.42560   0.01267  Uiso   1.00
H44    H     0.47650   0.76260   0.46280   0.01267  Uiso   1.00
H45    H     0.42020   0.63680   0.42770   0.01267  Uiso   1.00
H46    H     0.43500   0.66450   0.52830   0.01267  Uiso   1.00
H47    H     0.74590   0.79740   0.53030   0.01267  Uiso   1.00
H48    H     0.77750   0.86300   0.53660   0.01267  Uiso   1.00
H49    H     0.67860   0.83520   0.50580   0.01267  Uiso   1.00
H50    H     0.70260   0.82920   0.40410   0.01267  Uiso   1.00
H51    H     0.60840   0.85440   0.42150   0.01267  Uiso   1.00
H52    H     0.60440   0.85840   0.33720   0.01267  Uiso   1.00
H53    H     0.59590   0.75190   0.33310   0.01267  Uiso   1.00
H54    H     0.52990   0.79990   0.34660   0.01267  Uiso   1.00
H55    H     0.56530   0.69680   0.38130   0.01267  Uiso   1.00
H56    H     0.86070   0.07100   0.61440   0.01267  Uiso   1.00
H57    H     0.87200   0.01650   0.58710   0.01267  Uiso   1.00
H58    H     0.89550   0.04460   0.67020   0.01267  Uiso   1.00
H59    H     0.76170   0.99390   0.54570   0.01267  Uiso   1.00
H60    H     0.82640   0.06900   0.51000   0.01267  Uiso   1.00
H61    H     0.70110   0.99790   0.45740   0.01267  Uiso   1.00
H62    H     0.78770   0.98290   0.41250   0.01267  Uiso   1.00
H63    H     0.76960   0.89520   0.42560   0.01267  Uiso   1.00
H64    H     0.46850   0.90670   0.78510   0.01267  Uiso   1.00
H65    H     0.66890   0.12320   0.49060   0.01267  Uiso   1.00
H66    H     0.73140   0.86790   0.20120   0.01267  Uiso   1.00
H67    H     0.70170   0.90990   0.19310   0.01267  Uiso   1.00
H68    H     0.65960   0.82580   0.16720   0.01267  Uiso   1.00
H69    H     0.67230   0.83320   0.26980   0.01267  Uiso   1.00
H70    H     0.61730   0.74640   0.16260   0.01267  Uiso   1.00
H71    H     0.60660   0.75270   0.25880   0.01267  Uiso   1.00
H72    H     0.55340   0.77800   0.21710   0.01267  Uiso   1.00
H73    H     0.50920   0.80930   0.15590   0.01267  Uiso   1.00
H74    H     0.88620   0.84830   0.24120   0.01267  Uiso   1.00
H75    H     0.89000   0.78690   0.22710   0.01267  Uiso   1.00
H76    H     0.79470   0.77310   0.20960   0.01267  Uiso   1.00
H77    H     0.84940   0.75480   0.31000   0.01267  Uiso   1.00
H78    H     0.72370   0.70110   0.23740   0.01267  Uiso   1.00
H79    H     0.78910   0.79580   0.35840   0.01267  Uiso   1.00
H80    H     0.76260   0.85830   0.31850   0.01267  Uiso   1.00
H81    H     0.73280   0.47640   0.98860   0.01267  Uiso   1.00
H82    H     0.85730   0.67730   0.15730   0.01267  Uiso   1.00
H83    H     0.87110   0.57190   0.15320   0.01267  Uiso   1.00
H84    H     0.76570   0.58760   0.13340   0.01267  Uiso   1.00
H85    H     0.78180   0.49540   0.10960   0.01267  Uiso   1.00
H86    H     0.83650   0.58140   0.23590   0.01267  Uiso   1.00
H87    H     0.76200   0.61730   0.25200   0.01267  Uiso   1.00
H88    H     0.84600   0.62000   0.94240   0.01267  Uiso   1.00
H89    H     0.78140   0.57320   0.89150   0.01267  Uiso   1.00
H90    H     0.81880   0.51530   0.86790   0.01267  Uiso   1.00
H91    H     0.78380   0.57640   0.98100   0.01267  Uiso   1.00
H92    H     0.95780   0.72400   0.18350   0.01267  Uiso   1.00
H93    H     0.92910   0.66490   0.12340   0.01267  Uiso   1.00
H94    H     0.83750   0.45880   0.99750   0.01267  Uiso   1.00
H95    H     0.89290   0.55850   0.07850   0.01267  Uiso   1.00
H96    H     0.70730   0.53120   0.75350   0.01267  Uiso   1.00
H97    H     0.64270   0.52950   0.73190   0.01267  Uiso   1.00
H98    H     0.66720   0.51700   0.81950   0.01267  Uiso   1.00
H99    H     0.57240   0.40570   0.71900   0.01267  Uiso   1.00
H100   H     0.59380   0.45550   0.84220   0.01267  Uiso   1.00
H101   H     0.51790   0.34590   0.77780   0.01267  Uiso   1.00
H102   H     0.60500   0.35470   0.77700   0.01267  Uiso   1.00
H103   H     0.59270   0.37530   0.87010   0.01267  Uiso   1.00
H104   H     0.70580   0.40400   0.83420   0.01267  Uiso   1.00
H105   H     0.53160   0.64050   0.74670   0.01267  Uiso   1.00
H106   H     0.57250   0.62160   0.71840   0.01267  Uiso   1.00
H107   H     0.54370   0.56820   0.76700   0.01267  Uiso   1.00
H108   H     0.42560   0.51850   0.67650   0.01267  Uiso   1.00
H109   H     0.46280   0.47650   0.76260   0.01267  Uiso   1.00
H110   H     0.42770   0.42020   0.63680   0.01267  Uiso   1.00
H111   H     0.52830   0.43500   0.66450   0.01267  Uiso   1.00
H112   H     0.53030   0.74590   0.79740   0.01267  Uiso   1.00
H113   H     0.53660   0.77750   0.86300   0.01267  Uiso   1.00
H114   H     0.50580   0.67860   0.83520   0.01267  Uiso   1.00
H115   H     0.40410   0.70260   0.82920   0.01267  Uiso   1.00
H116   H     0.42150   0.60840   0.85440   0.01267  Uiso   1.00
H117   H     0.33720   0.60440   0.85840   0.01267  Uiso   1.00
H118   H     0.33310   0.59590   0.75190   0.01267  Uiso   1.00
H119   H     0.34660   0.52990   0.79990   0.01267  Uiso   1.00
H120   H     0.38130   0.56530   0.69680   0.01267  Uiso   1.00
H121   H     0.61440   0.86070   0.07100   0.01267  Uiso   1.00
H122   H     0.58710   0.87200   0.01650   0.01267  Uiso   1.00
H123   H     0.67020   0.89550   0.04460   0.01267  Uiso   1.00
H124   H     0.54570   0.76170   0.99390   0.01267  Uiso   1.00
H125   H     0.51000   0.82640   0.06900   0.01267  Uiso   1.00
H126   H     0.45740   0.70110   0.99790   0.01267  Uiso   1.00
H127   H     0.41250   0.78770   0.98290   0.01267  Uiso   1.00
H128   H     0.42560   0.76960   0.89520   0.01267  Uiso   1.00
H129   H     0.78510   0.46850   0.90670   0.01267  Uiso   1.00
H130   H     0.49060   0.66890   0.12320   0.01267  Uiso   1.00
H131   H     0.20120   0.73140   0.86790   0.01267  Uiso   1.00
H132   H     0.19310   0.70170   0.90990   0.01267  Uiso   1.00
H133   H     0.16720   0.65960   0.82580   0.01267  Uiso   1.00
H134   H     0.26980   0.67230   0.83320   0.01267  Uiso   1.00
H135   H     0.16260   0.61730   0.74640   0.01267  Uiso   1.00
H136   H     0.25880   0.60660   0.75270   0.01267  Uiso   1.00
H137   H     0.21710   0.55340   0.77800   0.01267  Uiso   1.00
H138   H     0.15590   0.50920   0.80930   0.01267  Uiso   1.00
H139   H     0.24120   0.88620   0.84830   0.01267  Uiso   1.00
H140   H     0.22710   0.89000   0.78690   0.01267  Uiso   1.00
H141   H     0.20960   0.79470   0.77310   0.01267  Uiso   1.00
H142   H     0.31000   0.84940   0.75480   0.01267  Uiso   1.00
H143   H     0.23740   0.72370   0.70110   0.01267  Uiso   1.00
H144   H     0.35840   0.78910   0.79580   0.01267  Uiso   1.00
H145   H     0.31850   0.76260   0.85830   0.01267  Uiso   1.00
H146   H     0.98860   0.73280   0.47640   0.01267  Uiso   1.00
H147   H     0.15730   0.85730   0.67730   0.01267  Uiso   1.00
H148   H     0.15320   0.87110   0.57190   0.01267  Uiso   1.00
H149   H     0.13340   0.76570   0.58760   0.01267  Uiso   1.00
H150   H     0.10960   0.78180   0.49540   0.01267  Uiso   1.00
H151   H     0.23590   0.83650   0.58140   0.01267  Uiso   1.00
H152   H     0.25200   0.76200   0.61730   0.01267  Uiso   1.00
H153   H     0.94240   0.84600   0.62000   0.01267  Uiso   1.00
H154   H     0.89150   0.78140   0.57320   0.01267  Uiso   1.00
H155   H     0.86790   0.81880   0.51530   0.01267  Uiso   1.00
H156   H     0.98100   0.78380   0.57640   0.01267  Uiso   1.00
H157   H     0.18350   0.95780   0.72400   0.01267  Uiso   1.00
H158   H     0.12340   0.92910   0.66490   0.01267  Uiso   1.00
H159   H     0.99750   0.83750   0.45880   0.01267  Uiso   1.00
H160   H     0.07850   0.89290   0.55850   0.01267  Uiso   1.00
H161   H     0.75350   0.70730   0.53120   0.01267  Uiso   1.00
H162   H     0.73190   0.64270   0.52950   0.01267  Uiso   1.00
H163   H     0.81950   0.66720   0.51700   0.01267  Uiso   1.00
H164   H     0.71900   0.57240   0.40570   0.01267  Uiso   1.00
H165   H     0.84220   0.59380   0.45550   0.01267  Uiso   1.00
H166   H     0.77780   0.51790   0.34590   0.01267  Uiso   1.00
H167   H     0.77700   0.60500   0.35470   0.01267  Uiso   1.00
H168   H     0.87010   0.59270   0.37530   0.01267  Uiso   1.00
H169   H     0.83420   0.70580   0.40400   0.01267  Uiso   1.00
H170   H     0.74670   0.53160   0.64050   0.01267  Uiso   1.00
H171   H     0.71840   0.57250   0.62160   0.01267  Uiso   1.00
H172   H     0.76700   0.54370   0.56820   0.01267  Uiso   1.00
H173   H     0.67650   0.42560   0.51850   0.01267  Uiso   1.00
H174   H     0.76260   0.46280   0.47650   0.01267  Uiso   1.00
H175   H     0.63680   0.42770   0.42020   0.01267  Uiso   1.00
H176   H     0.66450   0.52830   0.43500   0.01267  Uiso   1.00
H177   H     0.79740   0.53030   0.74590   0.01267  Uiso   1.00
H178   H     0.86300   0.53660   0.77750   0.01267  Uiso   1.00
H179   H     0.83520   0.50580   0.67860   0.01267  Uiso   1.00
H180   H     0.82920   0.40410   0.70260   0.01267  Uiso   1.00
H181   H     0.85440   0.42150   0.60840   0.01267  Uiso   1.00
H182   H     0.85840   0.33720   0.60440   0.01267  Uiso   1.00
H183   H     0.75190   0.33310   0.59590   0.01267  Uiso   1.00
H184   H     0.79990   0.34660   0.52990   0.01267  Uiso   1.00
H185   H     0.69680   0.38130   0.56530   0.01267  Uiso   1.00
H186   H     0.07100   0.61440   0.86070   0.01267  Uiso   1.00
H187   H     0.01650   0.58710   0.87200   0.01267  Uiso   1.00
H188   H     0.04460   0.67020   0.89550   0.01267  Uiso   1.00
H189   H     0.99390   0.54570   0.76170   0.01267  Uiso   1.00
H190   H     0.06900   0.51000   0.82640   0.01267  Uiso   1.00
H191   H     0.99790   0.45740   0.70110   0.01267  Uiso   1.00
H192   H     0.98290   0.41250   0.78770   0.01267  Uiso   1.00
H193   H     0.89520   0.42560   0.76960   0.01267  Uiso   1.00
H194   H     0.90670   0.78510   0.46850   0.01267  Uiso   1.00
H195   H     0.12320   0.49060   0.66890   0.01267  Uiso   1.00
H196   H     0.79880   0.13210   0.26860   0.01267  Uiso   1.00
H197   H     0.80690   0.09010   0.29830   0.01267  Uiso   1.00
H198   H     0.83280   0.17420   0.34040   0.01267  Uiso   1.00
H199   H     0.73020   0.16680   0.32770   0.01267  Uiso   1.00
H200   H     0.83740   0.25360   0.38270   0.01267  Uiso   1.00
H201   H     0.74120   0.24730   0.39340   0.01267  Uiso   1.00
H202   H     0.78290   0.22200   0.44660   0.01267  Uiso   1.00
H203   H     0.84410   0.19070   0.49080   0.01267  Uiso   1.00
H204   H     0.75880   0.15170   0.11380   0.01267  Uiso   1.00
H205   H     0.77290   0.21310   0.11000   0.01267  Uiso   1.00
H206   H     0.79040   0.22690   0.20530   0.01267  Uiso   1.00
H207   H     0.69000   0.24520   0.15060   0.01267  Uiso   1.00
H208   H     0.76260   0.29890   0.27630   0.01267  Uiso   1.00
H209   H     0.64160   0.20420   0.21090   0.01267  Uiso   1.00
H210   H     0.68150   0.14170   0.23740   0.01267  Uiso   1.00
H211   H     0.01140   0.52360   0.26720   0.01267  Uiso   1.00
H212   H     0.84270   0.32270   0.14270   0.01267  Uiso   1.00
H213   H     0.84680   0.42810   0.12890   0.01267  Uiso   1.00
H214   H     0.86660   0.41240   0.23430   0.01267  Uiso   1.00
H215   H     0.89040   0.50460   0.21820   0.01267  Uiso   1.00
H216   H     0.76410   0.41860   0.16350   0.01267  Uiso   1.00
H217   H     0.74800   0.38270   0.23800   0.01267  Uiso   1.00
H218   H     0.05760   0.38000   0.15400   0.01267  Uiso   1.00
H219   H     0.10850   0.42680   0.21860   0.01267  Uiso   1.00
H220   H     0.13210   0.48470   0.18120   0.01267  Uiso   1.00
H221   H     0.01900   0.42360   0.21620   0.01267  Uiso   1.00
H222   H     0.81650   0.27600   0.04220   0.01267  Uiso   1.00
H223   H     0.87660   0.33510   0.07090   0.01267  Uiso   1.00
H224   H     0.00250   0.54120   0.16250   0.01267  Uiso   1.00
H225   H     0.92150   0.44150   0.10710   0.01267  Uiso   1.00
H226   H     0.24650   0.46880   0.29270   0.01267  Uiso   1.00
H227   H     0.26810   0.47050   0.35730   0.01267  Uiso   1.00
H228   H     0.18050   0.48300   0.33280   0.01267  Uiso   1.00
H229   H     0.28100   0.59430   0.42760   0.01267  Uiso   1.00
H230   H     0.15780   0.54450   0.40620   0.01267  Uiso   1.00
H231   H     0.22220   0.65410   0.48210   0.01267  Uiso   1.00
H232   H     0.22300   0.64530   0.39500   0.01267  Uiso   1.00
H233   H     0.12990   0.62470   0.40730   0.01267  Uiso   1.00
H234   H     0.16580   0.59600   0.29420   0.01267  Uiso   1.00
H235   H     0.25330   0.35950   0.46840   0.01267  Uiso   1.00
H236   H     0.28160   0.37840   0.42750   0.01267  Uiso   1.00
H237   H     0.23300   0.43180   0.45630   0.01267  Uiso   1.00
H238   H     0.32350   0.48150   0.57440   0.01267  Uiso   1.00
H239   H     0.23740   0.52350   0.53720   0.01267  Uiso   1.00
H240   H     0.36320   0.57980   0.57230   0.01267  Uiso   1.00
H241   H     0.33550   0.56500   0.47170   0.01267  Uiso   1.00
H242   H     0.20260   0.25410   0.46970   0.01267  Uiso   1.00
H243   H     0.13700   0.22250   0.46340   0.01267  Uiso   1.00
H244   H     0.16480   0.32140   0.49420   0.01267  Uiso   1.00
H245   H     0.17080   0.29740   0.59590   0.01267  Uiso   1.00
H246   H     0.14560   0.39160   0.57850   0.01267  Uiso   1.00
H247   H     0.14160   0.39560   0.66280   0.01267  Uiso   1.00
H248   H     0.24810   0.40410   0.66690   0.01267  Uiso   1.00
H249   H     0.20010   0.47010   0.65340   0.01267  Uiso   1.00
H250   H     0.30320   0.43470   0.61870   0.01267  Uiso   1.00
H251   H     0.92900   0.13930   0.38560   0.01267  Uiso   1.00
H252   H     0.98350   0.12800   0.41290   0.01267  Uiso   1.00
H253   H     0.95540   0.10450   0.32980   0.01267  Uiso   1.00
H254   H     0.00610   0.23830   0.45430   0.01267  Uiso   1.00
H255   H     0.93100   0.17360   0.49000   0.01267  Uiso   1.00
H256   H     0.00210   0.29890   0.54260   0.01267  Uiso   1.00
H257   H     0.01710   0.21230   0.58750   0.01267  Uiso   1.00
H258   H     0.10480   0.23040   0.57440   0.01267  Uiso   1.00
H259   H     0.09330   0.53150   0.21490   0.01267  Uiso   1.00
H260   H     0.87680   0.33110   0.50940   0.01267  Uiso   1.00
H261   H     0.13210   0.26860   0.79880   0.01267  Uiso   1.00
H262   H     0.09010   0.29830   0.80690   0.01267  Uiso   1.00
H263   H     0.17420   0.34040   0.83280   0.01267  Uiso   1.00
H264   H     0.16680   0.32770   0.73020   0.01267  Uiso   1.00
H265   H     0.25360   0.38270   0.83740   0.01267  Uiso   1.00
H266   H     0.24730   0.39340   0.74120   0.01267  Uiso   1.00
H267   H     0.22200   0.44660   0.78290   0.01267  Uiso   1.00
H268   H     0.19070   0.49080   0.84410   0.01267  Uiso   1.00
H269   H     0.15170   0.11380   0.75880   0.01267  Uiso   1.00
H270   H     0.21310   0.11000   0.77290   0.01267  Uiso   1.00
H271   H     0.22690   0.20530   0.79040   0.01267  Uiso   1.00
H272   H     0.24520   0.15060   0.69000   0.01267  Uiso   1.00
H273   H     0.29890   0.27630   0.76260   0.01267  Uiso   1.00
H274   H     0.20420   0.21090   0.64160   0.01267  Uiso   1.00
H275   H     0.14170   0.23740   0.68150   0.01267  Uiso   1.00
H276   H     0.52360   0.26720   0.01140   0.01267  Uiso   1.00
H277   H     0.32270   0.14270   0.84270   0.01267  Uiso   1.00
H278   H     0.42810   0.12890   0.84680   0.01267  Uiso   1.00
H279   H     0.41240   0.23430   0.86660   0.01267  Uiso   1.00
H280   H     0.50460   0.21820   0.89040   0.01267  Uiso   1.00
H281   H     0.41860   0.16350   0.76410   0.01267  Uiso   1.00
H282   H     0.38270   0.23800   0.74800   0.01267  Uiso   1.00
H283   H     0.38000   0.15400   0.05760   0.01267  Uiso   1.00
H284   H     0.42680   0.21860   0.10850   0.01267  Uiso   1.00
H285   H     0.48470   0.18120   0.13210   0.01267  Uiso   1.00
H286   H     0.42360   0.21620   0.01900   0.01267  Uiso   1.00
H287   H     0.27600   0.04220   0.81650   0.01267  Uiso   1.00
H288   H     0.33510   0.07090   0.87660   0.01267  Uiso   1.00
H289   H     0.54120   0.16250   0.00250   0.01267  Uiso   1.00
H290   H     0.44150   0.10710   0.92150   0.01267  Uiso   1.00
H291   H     0.46880   0.29270   0.24650   0.01267  Uiso   1.00
H292   H     0.47050   0.35730   0.26810   0.01267  Uiso   1.00
H293   H     0.48300   0.33280   0.18050   0.01267  Uiso   1.00
H294   H     0.59430   0.42760   0.28100   0.01267  Uiso   1.00
H295   H     0.54450   0.40620   0.15780   0.01267  Uiso   1.00
H296   H     0.65410   0.48210   0.22220   0.01267  Uiso   1.00
H297   H     0.64530   0.39500   0.22300   0.01267  Uiso   1.00
H298   H     0.62470   0.40730   0.12990   0.01267  Uiso   1.00
H299   H     0.59600   0.29420   0.16580   0.01267  Uiso   1.00
H300   H     0.35950   0.46840   0.25330   0.01267  Uiso   1.00
H301   H     0.37840   0.42750   0.28160   0.01267  Uiso   1.00
H302   H     0.43180   0.45630   0.23300   0.01267  Uiso   1.00
H303   H     0.48150   0.57440   0.32350   0.01267  Uiso   1.00
H304   H     0.52350   0.53720   0.23740   0.01267  Uiso   1.00
H305   H     0.57980   0.57230   0.36320   0.01267  Uiso   1.00
H306   H     0.56500   0.47170   0.33550   0.01267  Uiso   1.00
H307   H     0.25410   0.46970   0.20260   0.01267  Uiso   1.00
H308   H     0.22250   0.46340   0.13700   0.01267  Uiso   1.00
H309   H     0.32140   0.49420   0.16480   0.01267  Uiso   1.00
H310   H     0.29740   0.59590   0.17080   0.01267  Uiso   1.00
H311   H     0.39160   0.57850   0.14560   0.01267  Uiso   1.00
H312   H     0.39560   0.66280   0.14160   0.01267  Uiso   1.00
H313   H     0.40410   0.66690   0.24810   0.01267  Uiso   1.00
H314   H     0.47010   0.65340   0.20010   0.01267  Uiso   1.00
H315   H     0.43470   0.61870   0.30320   0.01267  Uiso   1.00
H316   H     0.13930   0.38560   0.92900   0.01267  Uiso   1.00
H317   H     0.12800   0.41290   0.98350   0.01267  Uiso   1.00
H318   H     0.10450   0.32980   0.95540   0.01267  Uiso   1.00
H319   H     0.23830   0.45430   0.00610   0.01267  Uiso   1.00
H320   H     0.17360   0.49000   0.93100   0.01267  Uiso   1.00
H321   H     0.29890   0.54260   0.00210   0.01267  Uiso   1.00
H322   H     0.21230   0.58750   0.01710   0.01267  Uiso   1.00
H323   H     0.23040   0.57440   0.10480   0.01267  Uiso   1.00
H324   H     0.53150   0.21490   0.09330   0.01267  Uiso   1.00
H325   H     0.33110   0.50940   0.87680   0.01267  Uiso   1.00
H326   H     0.26860   0.79880   0.13210   0.01267  Uiso   1.00
H327   H     0.29830   0.80690   0.09010   0.01267  Uiso   1.00
H328   H     0.34040   0.83280   0.17420   0.01267  Uiso   1.00
H329   H     0.32770   0.73020   0.16680   0.01267  Uiso   1.00
H330   H     0.38270   0.83740   0.25360   0.01267  Uiso   1.00
H331   H     0.39340   0.74120   0.24730   0.01267  Uiso   1.00
H332   H     0.44660   0.78290   0.22200   0.01267  Uiso   1.00
H333   H     0.49080   0.84410   0.19070   0.01267  Uiso   1.00
H334   H     0.11380   0.75880   0.15170   0.01267  Uiso   1.00
H335   H     0.11000   0.77290   0.21310   0.01267  Uiso   1.00
H336   H     0.20530   0.79040   0.22690   0.01267  Uiso   1.00
H337   H     0.15060   0.69000   0.24520   0.01267  Uiso   1.00
H338   H     0.27630   0.76260   0.29890   0.01267  Uiso   1.00
H339   H     0.21090   0.64160   0.20420   0.01267  Uiso   1.00
H340   H     0.23740   0.68150   0.14170   0.01267  Uiso   1.00
H341   H     0.26720   0.01140   0.52360   0.01267  Uiso   1.00
H342   H     0.14270   0.84270   0.32270   0.01267  Uiso   1.00
H343   H     0.12890   0.84680   0.42810   0.01267  Uiso   1.00
H344   H     0.23430   0.86660   0.41240   0.01267  Uiso   1.00
H345   H     0.21820   0.89040   0.50460   0.01267  Uiso   1.00
H346   H     0.16350   0.76410   0.41860   0.01267  Uiso   1.00
H347   H     0.23800   0.74800   0.38270   0.01267  Uiso   1.00
H348   H     0.15400   0.05760   0.38000   0.01267  Uiso   1.00
H349   H     0.21860   0.10850   0.42680   0.01267  Uiso   1.00
H350   H     0.18120   0.13210   0.48470   0.01267  Uiso   1.00
H351   H     0.21620   0.01900   0.42360   0.01267  Uiso   1.00
H352   H     0.04220   0.81650   0.27600   0.01267  Uiso   1.00
H353   H     0.07090   0.87660   0.33510   0.01267  Uiso   1.00
H354   H     0.16250   0.00250   0.54120   0.01267  Uiso   1.00
H355   H     0.10710   0.92150   0.44150   0.01267  Uiso   1.00
H356   H     0.29270   0.24650   0.46880   0.01267  Uiso   1.00
H357   H     0.35730   0.26810   0.47050   0.01267  Uiso   1.00
H358   H     0.33280   0.18050   0.48300   0.01267  Uiso   1.00
H359   H     0.42760   0.28100   0.59430   0.01267  Uiso   1.00
H360   H     0.40620   0.15780   0.54450   0.01267  Uiso   1.00
H361   H     0.48210   0.22220   0.65410   0.01267  Uiso   1.00
H362   H     0.39500   0.22300   0.64530   0.01267  Uiso   1.00
H363   H     0.40730   0.12990   0.62470   0.01267  Uiso   1.00
H364   H     0.29420   0.16580   0.59600   0.01267  Uiso   1.00
H365   H     0.46840   0.25330   0.35950   0.01267  Uiso   1.00
H366   H     0.42750   0.28160   0.37840   0.01267  Uiso   1.00
H367   H     0.45630   0.23300   0.43180   0.01267  Uiso   1.00
H368   H     0.57440   0.32350   0.48150   0.01267  Uiso   1.00
H369   H     0.53720   0.23740   0.52350   0.01267  Uiso   1.00
H370   H     0.57230   0.36320   0.57980   0.01267  Uiso   1.00
H371   H     0.47170   0.33550   0.56500   0.01267  Uiso   1.00
H372   H     0.46970   0.20260   0.25410   0.01267  Uiso   1.00
H373   H     0.46340   0.13700   0.22250   0.01267  Uiso   1.00
H374   H     0.49420   0.16480   0.32140   0.01267  Uiso   1.00
H375   H     0.59590   0.17080   0.29740   0.01267  Uiso   1.00
H376   H     0.57850   0.14560   0.39160   0.01267  Uiso   1.00
H377   H     0.66280   0.14160   0.39560   0.01267  Uiso   1.00
H378   H     0.66690   0.24810   0.40410   0.01267  Uiso   1.00
H379   H     0.65340   0.20010   0.47010   0.01267  Uiso   1.00
H380   H     0.61870   0.30320   0.43470   0.01267  Uiso   1.00
H381   H     0.38560   0.92900   0.13930   0.01267  Uiso   1.00
H382   H     0.41290   0.98350   0.12800   0.01267  Uiso   1.00
H383   H     0.32980   0.95540   0.10450   0.01267  Uiso   1.00
H384   H     0.45430   0.00610   0.23830   0.01267  Uiso   1.00
H385   H     0.49000   0.93100   0.17360   0.01267  Uiso   1.00
H386   H     0.54260   0.00210   0.29890   0.01267  Uiso   1.00
H387   H     0.58750   0.01710   0.21230   0.01267  Uiso   1.00
H388   H     0.57440   0.10480   0.23040   0.01267  Uiso   1.00
H389   H     0.21490   0.09330   0.53150   0.01267  Uiso   1.00
H390   H     0.50940   0.87680   0.33110   0.01267  Uiso   1.00
C1     C     0.89120   0.21920   0.71320   0.01267  Uiso   1.00
C2     C     0.85190   0.20650   0.66440   0.01267  Uiso   1.00
C3     C     0.81420   0.22870   0.66820   0.01267  Uiso   1.00
C4     C     0.77130   0.19890   0.61610   0.01267  Uiso   1.00
C5     C     0.76280   0.17870   0.55570   0.01267  Uiso   1.00
C6     C     0.80100   0.15650   0.54390   0.01267  Uiso   1.00
C7     C     0.81750   0.25540   0.88510   0.01267  Uiso   1.00
C8     C     0.78940   0.25140   0.82480   0.01267  Uiso   1.00
C9     C     0.74069   0.27101   0.81520   0.01267  Uiso   1.00
C10    C     0.72175   0.27739   0.75846   0.01267  Uiso   1.00
C11    C     0.77740   0.31780   0.75570   0.01267  Uiso   1.00
C12    C     0.82230   0.29250   0.76340   0.01267  Uiso   1.00
C13    C     0.46070   0.96980   0.75590   0.01267  Uiso   1.00
C14    C     0.65870   0.17330   0.88210   0.01267  Uiso   1.00
C15    C     0.59140   0.14030   0.84590   0.01267  Uiso   1.00
C16    C     0.57290   0.15220   0.79340   0.01267  Uiso   1.00
C17    C     0.59994   0.21856   0.81250   0.01267  Uiso   1.00
C18    C     0.66464   0.24786   0.85020   0.01267  Uiso   1.00
C19    C     0.57710   0.92000   0.81860   0.01267  Uiso   1.00
C20    C     0.55610   0.96300   0.80470   0.01267  Uiso   1.00
C21    C     0.68010   0.16620   0.93950   0.01267  Uiso   1.00
C22    C     0.47660   0.01690   0.81620   0.01267  Uiso   1.00
C23    C     0.54770   0.04830   0.85260   0.01267  Uiso   1.00
C24    C     0.50540   0.73760   0.66440   0.01267  Uiso   1.00
C25    C     0.48270   0.78090   0.65370   0.01267  Uiso   1.00
C26    C     0.44040   0.75770   0.58720   0.01267  Uiso   1.00
C27    C     0.42070   0.80467   0.58213   0.01267  Uiso   1.00
C28    C     0.38970   0.81547   0.61973   0.01267  Uiso   1.00
C29    C     0.42810   0.83227   0.68303   0.01267  Uiso   1.00
C30    C     0.60820   0.71540   0.53190   0.01267  Uiso   1.00
C31    C     0.55620   0.72490   0.51650   0.01267  Uiso   1.00
C32    C     0.52660   0.71680   0.45340   0.01267  Uiso   1.00
C33    C     0.46870   0.72110   0.43860   0.01267  Uiso   1.00
C34    C     0.42820   0.67800   0.45290   0.01267  Uiso   1.00
C35    C     0.46060   0.69210   0.51770   0.01267  Uiso   1.00
C36    C     0.74940   0.82130   0.50800   0.01267  Uiso   1.00
C37    C     0.69270   0.81780   0.47670   0.01267  Uiso   1.00
C38    C     0.68580   0.84420   0.43140   0.01267  Uiso   1.00
C39    C     0.62310   0.83360   0.39520   0.01267  Uiso   1.00
C40    C     0.58520   0.77070   0.36490   0.01267  Uiso   1.00
C41    C     0.58960   0.74050   0.40630   0.01267  Uiso   1.00
C42    C     0.84330   0.02730   0.59930   0.01267  Uiso   1.00
C43    C     0.79960   0.01120   0.54300   0.01267  Uiso   1.00
C44    C     0.78970   0.04850   0.51350   0.01267  Uiso   1.00
C45    C     0.73890   0.01520   0.45420   0.01267  Uiso   1.00
C46    C     0.75080   0.96320   0.41600   0.01267  Uiso   1.00
C47    C     0.76280   0.92800   0.44910   0.01267  Uiso   1.00
C48    C     0.48750   0.92900   0.76630   0.01267  Uiso   1.00
C49    C     0.71320   0.89120   0.21920   0.01267  Uiso   1.00
C50    C     0.66440   0.85190   0.20650   0.01267  Uiso   1.00
C51    C     0.66820   0.81420   0.22870   0.01267  Uiso   1.00
C52    C     0.61610   0.77130   0.19890   0.01267  Uiso   1.00
C53    C     0.55570   0.76280   0.17870   0.01267  Uiso   1.00
C54    C     0.54390   0.80100   0.15650   0.01267  Uiso   1.00
C55    C     0.88510   0.81750   0.25540   0.01267  Uiso   1.00
C56    C     0.82480   0.78940   0.25140   0.01267  Uiso   1.00
C57    C     0.81520   0.74069   0.27101   0.01267  Uiso   1.00
C58    C     0.75846   0.72175   0.27739   0.01267  Uiso   1.00
C59    C     0.75570   0.77740   0.31780   0.01267  Uiso   1.00
C60    C     0.76340   0.82230   0.29250   0.01267  Uiso   1.00
C61    C     0.75590   0.46070   0.96980   0.01267  Uiso   1.00
C62    C     0.88210   0.65870   0.17330   0.01267  Uiso   1.00
C63    C     0.84590   0.59140   0.14030   0.01267  Uiso   1.00
C64    C     0.79340   0.57290   0.15220   0.01267  Uiso   1.00
C65    C     0.81250   0.59994   0.21856   0.01267  Uiso   1.00
C66    C     0.85020   0.66464   0.24786   0.01267  Uiso   1.00
C67    C     0.81860   0.57710   0.92000   0.01267  Uiso   1.00
C68    C     0.80470   0.55610   0.96300   0.01267  Uiso   1.00
C69    C     0.93950   0.68010   0.16620   0.01267  Uiso   1.00
C70    C     0.81620   0.47660   0.01690   0.01267  Uiso   1.00
C71    C     0.85260   0.54770   0.04830   0.01267  Uiso   1.00
C72    C     0.66440   0.50540   0.73760   0.01267  Uiso   1.00
C73    C     0.65370   0.48270   0.78090   0.01267  Uiso   1.00
C74    C     0.58720   0.44040   0.75770   0.01267  Uiso   1.00
C75    C     0.58213   0.42070   0.80467   0.01267  Uiso   1.00
C76    C     0.61973   0.38970   0.81547   0.01267  Uiso   1.00
C77    C     0.68303   0.42810   0.83227   0.01267  Uiso   1.00
C78    C     0.53190   0.60820   0.71540   0.01267  Uiso   1.00
C79    C     0.51650   0.55620   0.72490   0.01267  Uiso   1.00
C80    C     0.45340   0.52660   0.71680   0.01267  Uiso   1.00
C81    C     0.43860   0.46870   0.72110   0.01267  Uiso   1.00
C82    C     0.45290   0.42820   0.67800   0.01267  Uiso   1.00
C83    C     0.51770   0.46060   0.69210   0.01267  Uiso   1.00
C84    C     0.50800   0.74940   0.82130   0.01267  Uiso   1.00
C85    C     0.47670   0.69270   0.81780   0.01267  Uiso   1.00
C86    C     0.43140   0.68580   0.84420   0.01267  Uiso   1.00
C87    C     0.39520   0.62310   0.83360   0.01267  Uiso   1.00
C88    C     0.36490   0.58520   0.77070   0.01267  Uiso   1.00
C89    C     0.40630   0.58960   0.74050   0.01267  Uiso   1.00
C90    C     0.59930   0.84330   0.02730   0.01267  Uiso   1.00
C91    C     0.54300   0.79960   0.01120   0.01267  Uiso   1.00
C92    C     0.51350   0.78970   0.04850   0.01267  Uiso   1.00
C93    C     0.45420   0.73890   0.01520   0.01267  Uiso   1.00
C94    C     0.41600   0.75080   0.96320   0.01267  Uiso   1.00
C95    C     0.44910   0.76280   0.92800   0.01267  Uiso   1.00
C96    C     0.76630   0.48750   0.92900   0.01267  Uiso   1.00
C97    C     0.21920   0.71320   0.89120   0.01267  Uiso   1.00
C98    C     0.20650   0.66440   0.85190   0.01267  Uiso   1.00
C99    C     0.22870   0.66820   0.81420   0.01267  Uiso   1.00
C100   C     0.19890   0.61610   0.77130   0.01267  Uiso   1.00
C101   C     0.17870   0.55570   0.76280   0.01267  Uiso   1.00
C102   C     0.15650   0.54390   0.80100   0.01267  Uiso   1.00
C103   C     0.25540   0.88510   0.81750   0.01267  Uiso   1.00
C104   C     0.25140   0.82480   0.78940   0.01267  Uiso   1.00
C105   C     0.27101   0.81520   0.74069   0.01267  Uiso   1.00
C106   C     0.27739   0.75846   0.72175   0.01267  Uiso   1.00
C107   C     0.31780   0.75570   0.77740   0.01267  Uiso   1.00
C108   C     0.29250   0.76340   0.82230   0.01267  Uiso   1.00
C109   C     0.96980   0.75590   0.46070   0.01267  Uiso   1.00
C110   C     0.17330   0.88210   0.65870   0.01267  Uiso   1.00
C111   C     0.14030   0.84590   0.59140   0.01267  Uiso   1.00
C112   C     0.15220   0.79340   0.57290   0.01267  Uiso   1.00
C113   C     0.21856   0.81250   0.59994   0.01267  Uiso   1.00
C114   C     0.24786   0.85020   0.66464   0.01267  Uiso   1.00
C115   C     0.92000   0.81860   0.57710   0.01267  Uiso   1.00
C116   C     0.96300   0.80470   0.55610   0.01267  Uiso   1.00
C117   C     0.16620   0.93950   0.68010   0.01267  Uiso   1.00
C118   C     0.01690   0.81620   0.47660   0.01267  Uiso   1.00
C119   C     0.04830   0.85260   0.54770   0.01267  Uiso   1.00
C120   C     0.73760   0.66440   0.50540   0.01267  Uiso   1.00
C121   C     0.78090   0.65370   0.48270   0.01267  Uiso   1.00
C122   C     0.75770   0.58720   0.44040   0.01267  Uiso   1.00
C123   C     0.80467   0.58213   0.42070   0.01267  Uiso   1.00
C124   C     0.81547   0.61973   0.38970   0.01267  Uiso   1.00
C125   C     0.83227   0.68303   0.42810   0.01267  Uiso   1.00
C126   C     0.71540   0.53190   0.60820   0.01267  Uiso   1.00
C127   C     0.72490   0.51650   0.55620   0.01267  Uiso   1.00
C128   C     0.71680   0.45340   0.52660   0.01267  Uiso   1.00
C129   C     0.72110   0.43860   0.46870   0.01267  Uiso   1.00
C130   C     0.67800   0.45290   0.42820   0.01267  Uiso   1.00
C131   C     0.69210   0.51770   0.46060   0.01267  Uiso   1.00
C132   C     0.82130   0.50800   0.74940   0.01267  Uiso   1.00
C133   C     0.81780   0.47670   0.69270   0.01267  Uiso   1.00
C134   C     0.84420   0.43140   0.68580   0.01267  Uiso   1.00
C135   C     0.83360   0.39520   0.62310   0.01267  Uiso   1.00
C136   C     0.77070   0.36490   0.58520   0.01267  Uiso   1.00
C137   C     0.74050   0.40630   0.58960   0.01267  Uiso   1.00
C138   C     0.02730   0.59930   0.84330   0.01267  Uiso   1.00
C139   C     0.01120   0.54300   0.79960   0.01267  Uiso   1.00
C140   C     0.04850   0.51350   0.78970   0.01267  Uiso   1.00
C141   C     0.01520   0.45420   0.73890   0.01267  Uiso   1.00
C142   C     0.96320   0.41600   0.75080   0.01267  Uiso   1.00
C143   C     0.92800   0.44910   0.76280   0.01267  Uiso   1.00
C144   C     0.92900   0.76630   0.48750   0.01267  Uiso   1.00
C145   C     0.78080   0.10880   0.28680   0.01267  Uiso   1.00
C146   C     0.79350   0.14810   0.33560   0.01267  Uiso   1.00
C147   C     0.77130   0.18580   0.33180   0.01267  Uiso   1.00
C148   C     0.80110   0.22870   0.38390   0.01267  Uiso   1.00
C149   C     0.82130   0.23720   0.44430   0.01267  Uiso   1.00
C150   C     0.84350   0.19900   0.45610   0.01267  Uiso   1.00
C151   C     0.74460   0.18250   0.11490   0.01267  Uiso   1.00
C152   C     0.74860   0.21060   0.17520   0.01267  Uiso   1.00
C153   C     0.72899   0.25931   0.18480   0.01267  Uiso   1.00
C154   C     0.72261   0.27825   0.24154   0.01267  Uiso   1.00
C155   C     0.68220   0.22260   0.24430   0.01267  Uiso   1.00
C156   C     0.70750   0.17770   0.23660   0.01267  Uiso   1.00
C157   C     0.03020   0.53930   0.24410   0.01267  Uiso   1.00
C158   C     0.82670   0.34130   0.11790   0.01267  Uiso   1.00
C159   C     0.85970   0.40860   0.15410   0.01267  Uiso   1.00
C160   C     0.84780   0.42710   0.20660   0.01267  Uiso   1.00
C161   C     0.78144   0.40006   0.18750   0.01267  Uiso   1.00
C162   C     0.75214   0.33536   0.14980   0.01267  Uiso   1.00
C163   C     0.08000   0.42290   0.18140   0.01267  Uiso   1.00
C164   C     0.03700   0.44390   0.19530   0.01267  Uiso   1.00
C165   C     0.83380   0.31990   0.06050   0.01267  Uiso   1.00
C166   C     0.98310   0.52340   0.18380   0.01267  Uiso   1.00
C167   C     0.95170   0.45230   0.14740   0.01267  Uiso   1.00
C168   C     0.26240   0.49460   0.33560   0.01267  Uiso   1.00
C169   C     0.21910   0.51730   0.34630   0.01267  Uiso   1.00
C170   C     0.24230   0.55960   0.41280   0.01267  Uiso   1.00
C171   C     0.19533   0.57930   0.41787   0.01267  Uiso   1.00
C172   C     0.18453   0.61030   0.38027   0.01267  Uiso   1.00
C173   C     0.16773   0.57190   0.31697   0.01267  Uiso   1.00
C174   C     0.28460   0.39180   0.46810   0.01267  Uiso   1.00
C175   C     0.27510   0.44380   0.48350   0.01267  Uiso   1.00
C176   C     0.28320   0.47340   0.54660   0.01267  Uiso   1.00
C177   C     0.27890   0.53130   0.56140   0.01267  Uiso   1.00
C178   C     0.32200   0.57180   0.54710   0.01267  Uiso   1.00
C179   C     0.30790   0.53940   0.48230   0.01267  Uiso   1.00
C180   C     0.17870   0.25060   0.49200   0.01267  Uiso   1.00
C181   C     0.18220   0.30730   0.52330   0.01267  Uiso   1.00
C182   C     0.15580   0.31420   0.56860   0.01267  Uiso   1.00
C183   C     0.16640   0.37690   0.60480   0.01267  Uiso   1.00
C184   C     0.22930   0.41480   0.63510   0.01267  Uiso   1.00
C185   C     0.25950   0.41040   0.59370   0.01267  Uiso   1.00
C186   C     0.97270   0.15670   0.40070   0.01267  Uiso   1.00
C187   C     0.98880   0.20040   0.45700   0.01267  Uiso   1.00
C188   C     0.95150   0.21030   0.48650   0.01267  Uiso   1.00
C189   C     0.98480   0.26110   0.54580   0.01267  Uiso   1.00
C190   C     0.03680   0.24920   0.58400   0.01267  Uiso   1.00
C191   C     0.07200   0.23720   0.55090   0.01267  Uiso   1.00
C192   C     0.07100   0.51250   0.23370   0.01267  Uiso   1.00
C193   C     0.10880   0.28680   0.78080   0.01267  Uiso   1.00
C194   C     0.14810   0.33560   0.79350   0.01267  Uiso   1.00
C195   C     0.18580   0.33180   0.77130   0.01267  Uiso   1.00
C196   C     0.22870   0.38390   0.80110   0.01267  Uiso   1.00
C197   C     0.23720   0.44430   0.82130   0.01267  Uiso   1.00
C198   C     0.19900   0.45610   0.84350   0.01267  Uiso   1.00
C199   C     0.18250   0.11490   0.74460   0.01267  Uiso   1.00
C200   C     0.21060   0.17520   0.74860   0.01267  Uiso   1.00
C201   C     0.25931   0.18480   0.72899   0.01267  Uiso   1.00
C202   C     0.27825   0.24154   0.72261   0.01267  Uiso   1.00
C203   C     0.22260   0.24430   0.68220   0.01267  Uiso   1.00
C204   C     0.17770   0.23660   0.70750   0.01267  Uiso   1.00
C205   C     0.53930   0.24410   0.03020   0.01267  Uiso   1.00
C206   C     0.34130   0.11790   0.82670   0.01267  Uiso   1.00
C207   C     0.40860   0.15410   0.85970   0.01267  Uiso   1.00
C208   C     0.42710   0.20660   0.84780   0.01267  Uiso   1.00
C209   C     0.40006   0.18750   0.78144   0.01267  Uiso   1.00
C210   C     0.33536   0.14980   0.75214   0.01267  Uiso   1.00
C211   C     0.42290   0.18140   0.08000   0.01267  Uiso   1.00
C212   C     0.44390   0.19530   0.03700   0.01267  Uiso   1.00
C213   C     0.31990   0.06050   0.83380   0.01267  Uiso   1.00
C214   C     0.52340   0.18380   0.98310   0.01267  Uiso   1.00
C215   C     0.45230   0.14740   0.95170   0.01267  Uiso   1.00
C216   C     0.49460   0.33560   0.26240   0.01267  Uiso   1.00
C217   C     0.51730   0.34630   0.21910   0.01267  Uiso   1.00
C218   C     0.55960   0.41280   0.24230   0.01267  Uiso   1.00
C219   C     0.57930   0.41787   0.19533   0.01267  Uiso   1.00
C220   C     0.61030   0.38027   0.18453   0.01267  Uiso   1.00
C221   C     0.57190   0.31697   0.16773   0.01267  Uiso   1.00
C222   C     0.39180   0.46810   0.28460   0.01267  Uiso   1.00
C223   C     0.44380   0.48350   0.27510   0.01267  Uiso   1.00
C224   C     0.47340   0.54660   0.28320   0.01267  Uiso   1.00
C225   C     0.53130   0.56140   0.27890   0.01267  Uiso   1.00
C226   C     0.57180   0.54710   0.32200   0.01267  Uiso   1.00
C227   C     0.53940   0.48230   0.30790   0.01267  Uiso   1.00
C228   C     0.25060   0.49200   0.17870   0.01267  Uiso   1.00
C229   C     0.30730   0.52330   0.18220   0.01267  Uiso   1.00
C230   C     0.31420   0.56860   0.15580   0.01267  Uiso   1.00
C231   C     0.37690   0.60480   0.16640   0.01267  Uiso   1.00
C232   C     0.41480   0.63510   0.22930   0.01267  Uiso   1.00
C233   C     0.41040   0.59370   0.25950   0.01267  Uiso   1.00
C234   C     0.15670   0.40070   0.97270   0.01267  Uiso   1.00
C235   C     0.20040   0.45700   0.98880   0.01267  Uiso   1.00
C236   C     0.21030   0.48650   0.95150   0.01267  Uiso   1.00
C237   C     0.26110   0.54580   0.98480   0.01267  Uiso   1.00
C238   C     0.24920   0.58400   0.03680   0.01267  Uiso   1.00
C239   C     0.23720   0.55090   0.07200   0.01267  Uiso   1.00
C240   C     0.51250   0.23370   0.07100   0.01267  Uiso   1.00
C241   C     0.28680   0.78080   0.10880   0.01267  Uiso   1.00
C242   C     0.33560   0.79350   0.14810   0.01267  Uiso   1.00
C243   C     0.33180   0.77130   0.18580   0.01267  Uiso   1.00
C244   C     0.38390   0.80110   0.22870   0.01267  Uiso   1.00
C245   C     0.44430   0.82130   0.23720   0.01267  Uiso   1.00
C246   C     0.45610   0.84350   0.19900   0.01267  Uiso   1.00
C247   C     0.11490   0.74460   0.18250   0.01267  Uiso   1.00
C248   C     0.17520   0.74860   0.21060   0.01267  Uiso   1.00
C249   C     0.18480   0.72899   0.25931   0.01267  Uiso   1.00
C250   C     0.24154   0.72261   0.27825   0.01267  Uiso   1.00
C251   C     0.24430   0.68220   0.22260   0.01267  Uiso   1.00
C252   C     0.23660   0.70750   0.17770   0.01267  Uiso   1.00
C253   C     0.24410   0.03020   0.53930   0.01267  Uiso   1.00
C254   C     0.11790   0.82670   0.34130   0.01267  Uiso   1.00
C255   C     0.15410   0.85970   0.40860   0.01267  Uiso   1.00
C256   C     0.20660   0.84780   0.42710   0.01267  Uiso   1.00
C257   C     0.18750   0.78144   0.40006   0.01267  Uiso   1.00
C258   C     0.14980   0.75214   0.33536   0.01267  Uiso   1.00
C259   C     0.18140   0.08000   0.42290   0.01267  Uiso   1.00
C260   C     0.19530   0.03700   0.44390   0.01267  Uiso   1.00
C261   C     0.06050   0.83380   0.31990   0.01267  Uiso   1.00
C262   C     0.18380   0.98310   0.52340   0.01267  Uiso   1.00
C263   C     0.14740   0.95170   0.45230   0.01267  Uiso   1.00
C264   C     0.33560   0.26240   0.49460   0.01267  Uiso   1.00
C265   C     0.34630   0.21910   0.51730   0.01267  Uiso   1.00
C266   C     0.41280   0.24230   0.55960   0.01267  Uiso   1.00
C267   C     0.41787   0.19533   0.57930   0.01267  Uiso   1.00
C268   C     0.38027   0.18453   0.61030   0.01267  Uiso   1.00
C269   C     0.31697   0.16773   0.57190   0.01267  Uiso   1.00
C270   C     0.46810   0.28460   0.39180   0.01267  Uiso   1.00
C271   C     0.48350   0.27510   0.44380   0.01267  Uiso   1.00
C272   C     0.54660   0.28320   0.47340   0.01267  Uiso   1.00
C273   C     0.56140   0.27890   0.53130   0.01267  Uiso   1.00
C274   C     0.54710   0.32200   0.57180   0.01267  Uiso   1.00
C275   C     0.48230   0.30790   0.53940   0.01267  Uiso   1.00
C276   C     0.49200   0.17870   0.25060   0.01267  Uiso   1.00
C277   C     0.52330   0.18220   0.30730   0.01267  Uiso   1.00
C278   C     0.56860   0.15580   0.31420   0.01267  Uiso   1.00
C279   C     0.60480   0.16640   0.37690   0.01267  Uiso   1.00
C280   C     0.63510   0.22930   0.41480   0.01267  Uiso   1.00
C281   C     0.59370   0.25950   0.41040   0.01267  Uiso   1.00
C282   C     0.40070   0.97270   0.15670   0.01267  Uiso   1.00
C283   C     0.45700   0.98880   0.20040   0.01267  Uiso   1.00
C284   C     0.48650   0.95150   0.21030   0.01267  Uiso   1.00
C285   C     0.54580   0.98480   0.26110   0.01267  Uiso   1.00
C286   C     0.58400   0.03680   0.24920   0.01267  Uiso   1.00
C287   C     0.55090   0.07200   0.23720   0.01267  Uiso   1.00
C288   C     0.23370   0.07100   0.51250   0.01267  Uiso   1.00
O1     O     0.94970   0.28040   0.77320   0.01267  Uiso   1.00
O2     O     0.73350   0.22520   0.60360   0.01267  Uiso   1.00
O3     O     0.85780   0.18200   0.61160   0.01267  Uiso   1.00
O4     O     0.84180   0.30580   0.93100   0.01267  Uiso   1.00
O5     O     0.83816   0.28962   0.81768   0.01267  Uiso   1.00
O6     O     0.69132   0.22741   0.81382   0.01267  Uiso   1.00
O7     O     0.68273   0.30565   0.75602   0.01267  Uiso   1.00
O8     O     0.75917   0.32196   0.70077   0.01267  Uiso   1.00
O9     O     0.79623   0.23507   0.71604   0.01267  Uiso   1.00
O10    O     0.39630   0.93901   0.72569   0.01267  Uiso   1.00
O11    O     0.67905   0.23399   0.89853   0.01267  Uiso   1.00
O12    O     0.57394   0.07728   0.82582   0.01267  Uiso   1.00
O13    O     0.50979   0.12644   0.76374   0.01267  Uiso   1.00
O14    O     0.58596   0.23041   0.76123   0.01267  Uiso   1.00
O15    O     0.55150   0.88880   0.84210   0.01267  Uiso   1.00
O16    O     0.66350   0.19160   0.97960   0.01267  Uiso   1.00
O17    O     0.45720   0.06150   0.81260   0.01267  Uiso   1.00
O18    O     0.56620   0.00830   0.85970   0.01267  Uiso   1.00
O19    O     0.45709   0.68236   0.64495   0.01267  Uiso   1.00
O20    O     0.37917   0.78077   0.52021   0.01267  Uiso   1.00
O21    O     0.36714   0.85746   0.61620   0.01267  Uiso   1.00
O22    O     0.45014   0.78904   0.68715   0.01267  Uiso   1.00
O23    O     0.59800   0.65810   0.49140   0.01267  Uiso   1.00
O24    O     0.51483   0.68813   0.52894   0.01267  Uiso   1.00
O25    O     0.56480   0.75935   0.44375   0.01267  Uiso   1.00
O26    O     0.44016   0.70627   0.37727   0.01267  Uiso   1.00
O27    O     0.37261   0.68133   0.43976   0.01267  Uiso   1.00
O28    O     0.47515   0.75186   0.55358   0.01267  Uiso   1.00
O29    O     0.77096   0.79954   0.46680   0.01267  Uiso   1.00
O30    O     0.63600   0.86240   0.36190   0.01267  Uiso   1.00
O31    O     0.52820   0.76590   0.33850   0.01267  Uiso   1.00
O32    O     0.64870   0.75106   0.43624   0.01267  Uiso   1.00
O33    O     0.85870   0.02430   0.64960   0.01267  Uiso   1.00
O34    O     0.80410   0.95640   0.50660   0.01267  Uiso   1.00
O35    O     0.77970   0.09340   0.55360   0.01267  Uiso   1.00
O36    O     0.73610   0.05340   0.42600   0.01267  Uiso   1.00
O37    O     0.70420   0.93430   0.35980   0.01267  Uiso   1.00
O38    O     0.71750   0.90620   0.46310   0.01267  Uiso   1.00
O39    O     0.47753   0.88883   0.70916   0.01267  Uiso   1.00
O40    O     0.02700   0.36430   0.82200   0.01267  Uiso   1.00
O41    O     0.69970   0.13400   0.48560   0.01267  Uiso   1.00
O42    O     0.77320   0.94970   0.28040   0.01267  Uiso   1.00
O43    O     0.60360   0.73350   0.22520   0.01267  Uiso   1.00
O44    O     0.61160   0.85780   0.18200   0.01267  Uiso   1.00
O45    O     0.93100   0.84180   0.30580   0.01267  Uiso   1.00
O46    O     0.81768   0.83816   0.28962   0.01267  Uiso   1.00
O47    O     0.81382   0.69132   0.22741   0.01267  Uiso   1.00
O48    O     0.75602   0.68273   0.30565   0.01267  Uiso   1.00
O49    O     0.70077   0.75917   0.32196   0.01267  Uiso   1.00
O50    O     0.71604   0.79623   0.23507   0.01267  Uiso   1.00
O51    O     0.72569   0.39630   0.93901   0.01267  Uiso   1.00
O52    O     0.89853   0.67905   0.23399   0.01267  Uiso   1.00
O53    O     0.82582   0.57394   0.07728   0.01267  Uiso   1.00
O54    O     0.76374   0.50979   0.12644   0.01267  Uiso   1.00
O55    O     0.76123   0.58596   0.23041   0.01267  Uiso   1.00
O56    O     0.84210   0.55150   0.88880   0.01267  Uiso   1.00
O57    O     0.97960   0.66350   0.19160   0.01267  Uiso   1.00
O58    O     0.81260   0.45720   0.06150   0.01267  Uiso   1.00
O59    O     0.85970   0.56620   0.00830   0.01267  Uiso   1.00
O60    O     0.64495   0.45709   0.68236   0.01267  Uiso   1.00
O61    O     0.52021   0.37917   0.78077   0.01267  Uiso   1.00
O62    O     0.61620   0.36714   0.85746   0.01267  Uiso   1.00
O63    O     0.68715   0.45014   0.78904   0.01267  Uiso   1.00
O64    O     0.49140   0.59800   0.65810   0.01267  Uiso   1.00
O65    O     0.52894   0.51483   0.68813   0.01267  Uiso   1.00
O66    O     0.44375   0.56480   0.75935   0.01267  Uiso   1.00
O67    O     0.37727   0.44016   0.70627   0.01267  Uiso   1.00
O68    O     0.43976   0.37261   0.68133   0.01267  Uiso   1.00
O69    O     0.55358   0.47515   0.75186   0.01267  Uiso   1.00
O70    O     0.46680   0.77096   0.79954   0.01267  Uiso   1.00
O71    O     0.36190   0.63600   0.86240   0.01267  Uiso   1.00
O72    O     0.33850   0.52820   0.76590   0.01267  Uiso   1.00
O73    O     0.43624   0.64870   0.75106   0.01267  Uiso   1.00
O74    O     0.64960   0.85870   0.02430   0.01267  Uiso   1.00
O75    O     0.50660   0.80410   0.95640   0.01267  Uiso   1.00
O76    O     0.55360   0.77970   0.09340   0.01267  Uiso   1.00
O77    O     0.42600   0.73610   0.05340   0.01267  Uiso   1.00
O78    O     0.35980   0.70420   0.93430   0.01267  Uiso   1.00
O79    O     0.46310   0.71750   0.90620   0.01267  Uiso   1.00
O80    O     0.70916   0.47753   0.88883   0.01267  Uiso   1.00
O81    O     0.82200   0.02700   0.36430   0.01267  Uiso   1.00
O82    O     0.48560   0.69970   0.13400   0.01267  Uiso   1.00
O83    O     0.28040   0.77320   0.94970   0.01267  Uiso   1.00
O84    O     0.22520   0.60360   0.73350   0.01267  Uiso   1.00
O85    O     0.18200   0.61160   0.85780   0.01267  Uiso   1.00
O86    O     0.30580   0.93100   0.84180   0.01267  Uiso   1.00
O87    O     0.28962   0.81768   0.83816   0.01267  Uiso   1.00
O88    O     0.22741   0.81382   0.69132   0.01267  Uiso   1.00
O89    O     0.30565   0.75602   0.68273   0.01267  Uiso   1.00
O90    O     0.32196   0.70077   0.75917   0.01267  Uiso   1.00
O91    O     0.23507   0.71604   0.79623   0.01267  Uiso   1.00
O92    O     0.93901   0.72569   0.39630   0.01267  Uiso   1.00
O93    O     0.23399   0.89853   0.67905   0.01267  Uiso   1.00
O94    O     0.07728   0.82582   0.57394   0.01267  Uiso   1.00
O95    O     0.12644   0.76374   0.50979   0.01267  Uiso   1.00
O96    O     0.23041   0.76123   0.58596   0.01267  Uiso   1.00
O97    O     0.88880   0.84210   0.55150   0.01267  Uiso   1.00
O98    O     0.19160   0.97960   0.66350   0.01267  Uiso   1.00
O99    O     0.06150   0.81260   0.45720   0.01267  Uiso   1.00
O100   O     0.00830   0.85970   0.56620   0.01267  Uiso   1.00
O101   O     0.68236   0.64495   0.45709   0.01267  Uiso   1.00
O102   O     0.78077   0.52021   0.37917   0.01267  Uiso   1.00
O103   O     0.85746   0.61620   0.36714   0.01267  Uiso   1.00
O104   O     0.78904   0.68715   0.45014   0.01267  Uiso   1.00
O105   O     0.65810   0.49140   0.59800   0.01267  Uiso   1.00
O106   O     0.68813   0.52894   0.51483   0.01267  Uiso   1.00
O107   O     0.75935   0.44375   0.56480   0.01267  Uiso   1.00
O108   O     0.70627   0.37727   0.44016   0.01267  Uiso   1.00
O109   O     0.68133   0.43976   0.37261   0.01267  Uiso   1.00
O110   O     0.75186   0.55358   0.47515   0.01267  Uiso   1.00
O111   O     0.79954   0.46680   0.77096   0.01267  Uiso   1.00
O112   O     0.86240   0.36190   0.63600   0.01267  Uiso   1.00
O113   O     0.76590   0.33850   0.52820   0.01267  Uiso   1.00
O114   O     0.75106   0.43624   0.64870   0.01267  Uiso   1.00
O115   O     0.02430   0.64960   0.85870   0.01267  Uiso   1.00
O116   O     0.95640   0.50660   0.80410   0.01267  Uiso   1.00
O117   O     0.09340   0.55360   0.77970   0.01267  Uiso   1.00
O118   O     0.05340   0.42600   0.73610   0.01267  Uiso   1.00
O119   O     0.93430   0.35980   0.70420   0.01267  Uiso   1.00
O120   O     0.90620   0.46310   0.71750   0.01267  Uiso   1.00
O121   O     0.88883   0.70916   0.47753   0.01267  Uiso   1.00
O122   O     0.36430   0.82200   0.02700   0.01267  Uiso   1.00
O123   O     0.13400   0.48560   0.69970   0.01267  Uiso   1.00
O124   O     0.71960   0.05030   0.22680   0.01267  Uiso   1.00
O125   O     0.77480   0.26650   0.39640   0.01267  Uiso   1.00
O126   O     0.81800   0.14220   0.38840   0.01267  Uiso   1.00
O127   O     0.69420   0.15820   0.06900   0.01267  Uiso   1.00
O128   O     0.71038   0.16184   0.18232   0.01267  Uiso   1.00
O129   O     0.77259   0.30868   0.18618   0.01267  Uiso   1.00
O130   O     0.69435   0.31727   0.24398   0.01267  Uiso   1.00
O131   O     0.67804   0.24083   0.29923   0.01267  Uiso   1.00
O132   O     0.76493   0.20377   0.28396   0.01267  Uiso   1.00
O133   O     0.06099   0.60370   0.27431   0.01267  Uiso   1.00
O134   O     0.76601   0.32095   0.10147   0.01267  Uiso   1.00
O135   O     0.92272   0.42606   0.17418   0.01267  Uiso   1.00
O136   O     0.87356   0.49021   0.23626   0.01267  Uiso   1.00
O137   O     0.76959   0.41404   0.23877   0.01267  Uiso   1.00
O138   O     0.11120   0.44850   0.15790   0.01267  Uiso   1.00
O139   O     0.80840   0.33650   0.02040   0.01267  Uiso   1.00
O140   O     0.93850   0.54280   0.18740   0.01267  Uiso   1.00
O141   O     0.99170   0.43380   0.14030   0.01267  Uiso   1.00
O142   O     0.31764   0.54291   0.35505   0.01267  Uiso   1.00
O143   O     0.21923   0.62083   0.47979   0.01267  Uiso   1.00
O144   O     0.14254   0.63286   0.38380   0.01267  Uiso   1.00
O145   O     0.21096   0.54986   0.31285   0.01267  Uiso   1.00
O146   O     0.34190   0.40200   0.50860   0.01267  Uiso   1.00
O147   O     0.31187   0.48517   0.47106   0.01267  Uiso   1.00
O148   O     0.24065   0.43520   0.55625   0.01267  Uiso   1.00
O149   O     0.29373   0.55984   0.62273   0.01267  Uiso   1.00
O150   O     0.31867   0.62739   0.56024   0.01267  Uiso   1.00
O151   O     0.24814   0.52485   0.44642   0.01267  Uiso   1.00
O152   O     0.20046   0.22904   0.53320   0.01267  Uiso   1.00
O153   O     0.13760   0.36400   0.63810   0.01267  Uiso   1.00
O154   O     0.23410   0.47180   0.66150   0.01267  Uiso   1.00
O155   O     0.24894   0.35130   0.56376   0.01267  Uiso   1.00
O156   O     0.97570   0.14130   0.35040   0.01267  Uiso   1.00
O157   O     0.04360   0.19590   0.49340   0.01267  Uiso   1.00
O158   O     0.90660   0.22030   0.44640   0.01267  Uiso   1.00
O159   O     0.94660   0.26390   0.57400   0.01267  Uiso   1.00
O160   O     0.06570   0.29580   0.64020   0.01267  Uiso   1.00
O161   O     0.09380   0.28250   0.53690   0.01267  Uiso   1.00
O162   O     0.11117   0.52247   0.29084   0.01267  Uiso   1.00
O163   O     0.63570   0.97300   0.17800   0.01267  Uiso   1.00
O164   O     0.86600   0.30030   0.51440   0.01267  Uiso   1.00
O165   O     0.05030   0.22680   0.71960   0.01267  Uiso   1.00
O166   O     0.26650   0.39640   0.77480   0.01267  Uiso   1.00
O167   O     0.14220   0.38840   0.81800   0.01267  Uiso   1.00
O168   O     0.15820   0.06900   0.69420   0.01267  Uiso   1.00
O169   O     0.16184   0.18232   0.71038   0.01267  Uiso   1.00
O170   O     0.30868   0.18618   0.77259   0.01267  Uiso   1.00
O171   O     0.31727   0.24398   0.69435   0.01267  Uiso   1.00
O172   O     0.24083   0.29923   0.67804   0.01267  Uiso   1.00
O173   O     0.20377   0.28396   0.76493   0.01267  Uiso   1.00
O174   O     0.60370   0.27431   0.06099   0.01267  Uiso   1.00
O175   O     0.32095   0.10147   0.76601   0.01267  Uiso   1.00
O176   O     0.42606   0.17418   0.92272   0.01267  Uiso   1.00
O177   O     0.49021   0.23626   0.87356   0.01267  Uiso   1.00
O178   O     0.41404   0.23877   0.76959   0.01267  Uiso   1.00
O179   O     0.44850   0.15790   0.11120   0.01267  Uiso   1.00
O180   O     0.33650   0.02040   0.80840   0.01267  Uiso   1.00
O181   O     0.54280   0.18740   0.93850   0.01267  Uiso   1.00
O182   O     0.43380   0.14030   0.99170   0.01267  Uiso   1.00
O183   O     0.54291   0.35505   0.31764   0.01267  Uiso   1.00
O184   O     0.62083   0.47979   0.21923   0.01267  Uiso   1.00
O185   O     0.63286   0.38380   0.14254   0.01267  Uiso   1.00
O186   O     0.54986   0.31285   0.21096   0.01267  Uiso   1.00
O187   O     0.40200   0.50860   0.34190   0.01267  Uiso   1.00
O188   O     0.48517   0.47106   0.31187   0.01267  Uiso   1.00
O189   O     0.43520   0.55625   0.24065   0.01267  Uiso   1.00
O190   O     0.55984   0.62273   0.29373   0.01267  Uiso   1.00
O191   O     0.62739   0.56024   0.31867   0.01267  Uiso   1.00
O192   O     0.52485   0.44642   0.24814   0.01267  Uiso   1.00
O193   O     0.22904   0.53320   0.20046   0.01267  Uiso   1.00
O194   O     0.36400   0.63810   0.13760   0.01267  Uiso   1.00
O195   O     0.47180   0.66150   0.23410   0.01267  Uiso   1.00
O196   O     0.35130   0.56376   0.24894   0.01267  Uiso   1.00
O197   O     0.14130   0.35040   0.97570   0.01267  Uiso   1.00
O198   O     0.19590   0.49340   0.04360   0.01267  Uiso   1.00
O199   O     0.22030   0.44640   0.90660   0.01267  Uiso   1.00
O200   O     0.26390   0.57400   0.94660   0.01267  Uiso   1.00
O201   O     0.29580   0.64020   0.06570   0.01267  Uiso   1.00
O202   O     0.28250   0.53690   0.09380   0.01267  Uiso   1.00
O203   O     0.52247   0.29084   0.11117   0.01267  Uiso   1.00
O204   O     0.97300   0.17800   0.63570   0.01267  Uiso   1.00
O205   O     0.30030   0.51440   0.86600   0.01267  Uiso   1.00
O206   O     0.22680   0.71960   0.05030   0.01267  Uiso   1.00
O207   O     0.39640   0.77480   0.26650   0.01267  Uiso   1.00
O208   O     0.38840   0.81800   0.14220   0.01267  Uiso   1.00
O209   O     0.06900   0.69420   0.15820   0.01267  Uiso   1.00
O210   O     0.18232   0.71038   0.16184   0.01267  Uiso   1.00
O211   O     0.18618   0.77259   0.30868   0.01267  Uiso   1.00
O212   O     0.24398   0.69435   0.31727   0.01267  Uiso   1.00
O213   O     0.29923   0.67804   0.24083   0.01267  Uiso   1.00
O214   O     0.28396   0.76493   0.20377   0.01267  Uiso   1.00
O215   O     0.27431   0.06099   0.60370   0.01267  Uiso   1.00
O216   O     0.10147   0.76601   0.32095   0.01267  Uiso   1.00
O217   O     0.17418   0.92272   0.42606   0.01267  Uiso   1.00
O218   O     0.23626   0.87356   0.49021   0.01267  Uiso   1.00
O219   O     0.23877   0.76959   0.41404   0.01267  Uiso   1.00
O220   O     0.15790   0.11120   0.44850   0.01267  Uiso   1.00
O221   O     0.02040   0.80840   0.33650   0.01267  Uiso   1.00
O222   O     0.18740   0.93850   0.54280   0.01267  Uiso   1.00
O223   O     0.14030   0.99170   0.43380   0.01267  Uiso   1.00
O224   O     0.35505   0.31764   0.54291   0.01267  Uiso   1.00
O225   O     0.47979   0.21923   0.62083   0.01267  Uiso   1.00
O226   O     0.38380   0.14254   0.63286   0.01267  Uiso   1.00
O227   O     0.31285   0.21096   0.54986   0.01267  Uiso   1.00
O228   O     0.50860   0.34190   0.40200   0.01267  Uiso   1.00
O229   O     0.47106   0.31187   0.48517   0.01267  Uiso   1.00
O230   O     0.55625   0.24065   0.43520   0.01267  Uiso   1.00
O231   O     0.62273   0.29373   0.55984   0.01267  Uiso   1.00
O232   O     0.56024   0.31867   0.62739   0.01267  Uiso   1.00
O233   O     0.44642   0.24814   0.52485   0.01267  Uiso   1.00
O234   O     0.53320   0.20046   0.22904   0.01267  Uiso   1.00
O235   O     0.63810   0.13760   0.36400   0.01267  Uiso   1.00
O236   O     0.66150   0.23410   0.47180   0.01267  Uiso   1.00
O237   O     0.56376   0.24894   0.35130   0.01267  Uiso   1.00
O238   O     0.35040   0.97570   0.14130   0.01267  Uiso   1.00
O239   O     0.49340   0.04360   0.19590   0.01267  Uiso   1.00
O240   O     0.44640   0.90660   0.22030   0.01267  Uiso   1.00
O241   O     0.57400   0.94660   0.26390   0.01267  Uiso   1.00
O242   O     0.64020   0.06570   0.29580   0.01267  Uiso   1.00
O243   O     0.53690   0.09380   0.28250   0.01267  Uiso   1.00
O244   O     0.29084   0.11117   0.52247   0.01267  Uiso   1.00
O245   O     0.17800   0.63570   0.97300   0.01267  Uiso   1.00
O246   O     0.51440   0.86600   0.30030   0.01267  Uiso   1.00
O247   O     0.62815   0.37185  -0.00000   0.01267  Uiso   1.00
O248   O     0.00000   0.62815   0.37185   0.01267  Uiso   1.00
O249   O     0.37185  -0.00000   0.62815   0.01267  Uiso   1.00
H391   H     0.34280   0.85590   0.37940   0.01267  Uiso   1.00
H392   H     0.31090   0.90160   0.31430   0.01267  Uiso   1.00
H393   H     0.30910   0.99340   0.36050   0.01267  Uiso   1.00
H394   H     0.32830   0.03370   0.45430   0.01267  Uiso   1.00
H395   H     0.36430   0.99620   0.52150   0.01267  Uiso   1.00
C289   C     0.37300   0.89150   0.49210   0.01267  Uiso   1.00
C290   C     0.35750   0.92310   0.45440   0.01267  Uiso   1.00
C291   C     0.34130   0.89280   0.39470   0.01267  Uiso   1.00
C292   C     0.32170   0.91950   0.35550   0.01267  Uiso   1.00
C293   C     0.32020   0.97390   0.38390   0.01267  Uiso   1.00
C294   C     0.33310   0.99870   0.43980   0.01267  Uiso   1.00
C295   C     0.35380   0.97670   0.48040   0.01267  Uiso   1.00
O250   O     0.39696   0.85889   0.47975   0.01267  Uiso   1.00
O251   O     0.35664   0.89886   0.53419   0.01267  Uiso   1.00
H396   H     0.37940   0.34280   0.85590   0.01267  Uiso   1.00
H397   H     0.31430   0.31090   0.90160   0.01267  Uiso   1.00
H398   H     0.36050   0.30910   0.99340   0.01267  Uiso   1.00
H399   H     0.45430   0.32830   0.03370   0.01267  Uiso   1.00
H400   H     0.52150   0.36430   0.99620   0.01267  Uiso   1.00
C296   C     0.49210   0.37300   0.89150   0.01267  Uiso   1.00
C297   C     0.45440   0.35750   0.92310   0.01267  Uiso   1.00
C298   C     0.39470   0.34130   0.89280   0.01267  Uiso   1.00
C299   C     0.35550   0.32170   0.91950   0.01267  Uiso   1.00
C300   C     0.38390   0.32020   0.97390   0.01267  Uiso   1.00
C301   C     0.43980   0.33310   0.99870   0.01267  Uiso   1.00
C302   C     0.48040   0.35380   0.97670   0.01267  Uiso   1.00
O252   O     0.47975   0.39696   0.85889   0.01267  Uiso   1.00
O253   O     0.53419   0.35664   0.89886   0.01267  Uiso   1.00
H401   H     0.85590   0.37940   0.34280   0.01267  Uiso   1.00
H402   H     0.90160   0.31430   0.31090   0.01267  Uiso   1.00
H403   H     0.99340   0.36050   0.30910   0.01267  Uiso   1.00
H404   H     0.03370   0.45430   0.32830   0.01267  Uiso   1.00
H405   H     0.99620   0.52150   0.36430   0.01267  Uiso   1.00
C303   C     0.89150   0.49210   0.37300   0.01267  Uiso   1.00
C304   C     0.92310   0.45440   0.35750   0.01267  Uiso   1.00
C305   C     0.89280   0.39470   0.34130   0.01267  Uiso   1.00
C306   C     0.91950   0.35550   0.32170   0.01267  Uiso   1.00
C307   C     0.97390   0.38390   0.32020   0.01267  Uiso   1.00
C308   C     0.99870   0.43980   0.33310   0.01267  Uiso   1.00
C309   C     0.97670   0.48040   0.35380   0.01267  Uiso   1.00
O254   O     0.85889   0.47975   0.39696   0.01267  Uiso   1.00
O255   O     0.89886   0.53419   0.35664   0.01267  Uiso   1.00
H406   H     0.14410   0.65720   0.62060   0.01267  Uiso   1.00
H407   H     0.09840   0.68910   0.68570   0.01267  Uiso   1.00
H408   H     0.00660   0.69090   0.63950   0.01267  Uiso   1.00
H409   H     0.96630   0.67170   0.54570   0.01267  Uiso   1.00
H410   H     0.00380   0.63570   0.47850   0.01267  Uiso   1.00
C310   C     0.10850   0.62700   0.50790   0.01267  Uiso   1.00
C311   C     0.07690   0.64250   0.54560   0.01267  Uiso   1.00
C312   C     0.10720   0.65870   0.60530   0.01267  Uiso   1.00
C313   C     0.08050   0.67830   0.64450   0.01267  Uiso   1.00
C314   C     0.02610   0.67980   0.61610   0.01267  Uiso   1.00
C315   C     0.00130   0.66690   0.56020   0.01267  Uiso   1.00
C316   C     0.02330   0.64620   0.51960   0.01267  Uiso   1.00
O256   O     0.14111   0.60304   0.52025   0.01267  Uiso   1.00
O257   O     0.10114   0.64336   0.46581   0.01267  Uiso   1.00
H411   H     0.65720   0.62060   0.14410   0.01267  Uiso   1.00
H412   H     0.68910   0.68570   0.09840   0.01267  Uiso   1.00
H413   H     0.69090   0.63950   0.00660   0.01267  Uiso   1.00
H414   H     0.67170   0.54570   0.96630   0.01267  Uiso   1.00
H415   H     0.63570   0.47850   0.00380   0.01267  Uiso   1.00
C317   C     0.62700   0.50790   0.10850   0.01267  Uiso   1.00
C318   C     0.64250   0.54560   0.07690   0.01267  Uiso   1.00
C319   C     0.65870   0.60530   0.10720   0.01267  Uiso   1.00
C320   C     0.67830   0.64450   0.08050   0.01267  Uiso   1.00
C321   C     0.67980   0.61610   0.02610   0.01267  Uiso   1.00
C322   C     0.66690   0.56020   0.00130   0.01267  Uiso   1.00
C323   C     0.64620   0.51960   0.02330   0.01267  Uiso   1.00
O258   O     0.60304   0.52025   0.14111   0.01267  Uiso   1.00
O259   O     0.64336   0.46581   0.10114   0.01267  Uiso   1.00
H416   H     0.62060   0.14410   0.65720   0.01267  Uiso   1.00
H417   H     0.68570   0.09840   0.68910   0.01267  Uiso   1.00
H418   H     0.63950   0.00660   0.69090   0.01267  Uiso   1.00
H419   H     0.54570   0.96630   0.67170   0.01267  Uiso   1.00
H420   H     0.47850   0.00380   0.63570   0.01267  Uiso   1.00
C324   C     0.50790   0.10850   0.62700   0.01267  Uiso   1.00
C325   C     0.54560   0.07690   0.64250   0.01267  Uiso   1.00
C326   C     0.60530   0.10720   0.65870   0.01267  Uiso   1.00
C327   C     0.64450   0.08050   0.67830   0.01267  Uiso   1.00
C328   C     0.61610   0.02610   0.67980   0.01267  Uiso   1.00
C329   C     0.56020   0.00130   0.66690   0.01267  Uiso   1.00
C330   C     0.51960   0.02330   0.64620   0.01267  Uiso   1.00
O260   O     0.52025   0.14111   0.60304   0.01267  Uiso   1.00
O261   O     0.46581   0.10114   0.64336   0.01267  Uiso   1.00
