data_image0
_cell_length_a       15.155
_cell_length_b       26.139
_cell_length_c       31.908
_cell_angle_alpha    90
_cell_angle_beta     90
_cell_angle_gamma    90

_symmetry_space_group_name_H-M    "P 1"
_symmetry_int_tables_number       1

loop_
  _symmetry_equiv_pos_as_xyz
  'x, y, z'

loop_
  _atom_site_label
  _atom_site_occupancy
  _atom_site_fract_x
  _atom_site_fract_y
  _atom_site_fract_z
  _atom_site_thermal_displace_type
  _atom_site_B_iso_or_equiv
  _atom_site_type_symbol
  O1       1.0000 0.48870  0.41190  0.60175  Biso   1.000  O
  O2       1.0000 0.35420  0.43400  0.61570  Biso   1.000  O
  O3       1.0000 0.48910  0.33910  0.52980  Biso   1.000  O
  O4       1.0000 0.35520  0.31260  0.51830  Biso   1.000  O
  C1       1.0000 0.43670  0.31060  0.50950  Biso   1.000  C
  C2       1.0000 0.46880  0.27860  0.47460  Biso   1.000  C
  C3       1.0000 0.41380  0.24380  0.45440  Biso   1.000  C
  C4       1.0000 0.55590  0.28400  0.46180  Biso   1.000  C
  C5       1.0000 0.44600  0.21450  0.42150  Biso   1.000  C
  N1       1.0000 0.32730  0.23570  0.46660  Biso   1.000  N
  C6       1.0000 0.58810  0.25470  0.42880  Biso   1.000  C
  H1       1.0000 0.59350  0.30780  0.47560  Biso   1.000  H
  H2       1.0000 0.40850  0.19080  0.40770  Biso   1.000  H
  C7       1.0000 0.53320  0.22000  0.40865  Biso   1.000  C
  H3       1.0000 0.29500  0.21270  0.45360  Biso   1.000  H
  H4       1.0000 0.30460  0.25350  0.48740  Biso   1.000  H
  H5       1.0000 0.64770  0.25840  0.42000  Biso   1.000  H
  C8       1.0000 0.56490  0.18700  0.37330  Biso   1.000  C
  H6       1.0000 0.64570  0.49010  0.71320  Biso   1.000  H
  N2       1.0000 0.32600  0.51400  0.66610  Biso   1.000  N
  H7       1.0000 0.29480  0.53810  0.67890  Biso   1.000  H
  H8       1.0000 0.30290  0.49670  0.64540  Biso   1.000  H
  O5       1.0000 0.48870  0.91190  0.10175  Biso   1.000  O
  O6       1.0000 0.35420  0.93400  0.11570  Biso   1.000  O
  O7       1.0000 0.48910  0.83910  0.02980  Biso   1.000  O
  O8       1.0000 0.35520  0.81260  0.01830  Biso   1.000  O
  C9       1.0000 0.43670  0.81060  0.00950  Biso   1.000  C
  C10      1.0000 0.46880  0.77860  0.97460  Biso   1.000  C
  C11      1.0000 0.41380  0.74380  0.95440  Biso   1.000  C
  C12      1.0000 0.55590  0.78400  0.96180  Biso   1.000  C
  C13      1.0000 0.44600  0.71450  0.92150  Biso   1.000  C
  N3       1.0000 0.32730  0.73570  0.96660  Biso   1.000  N
  C14      1.0000 0.58810  0.75470  0.92880  Biso   1.000  C
  H9       1.0000 0.59350  0.80780  0.97560  Biso   1.000  H
  H10      1.0000 0.40850  0.69080  0.90770  Biso   1.000  H
  C15      1.0000 0.53320  0.72000  0.90865  Biso   1.000  C
  H11      1.0000 0.29500  0.71270  0.95360  Biso   1.000  H
  H12      1.0000 0.30460  0.75350  0.98740  Biso   1.000  H
  H13      1.0000 0.64770  0.75840  0.92000  Biso   1.000  H
  C16      1.0000 0.56490  0.68700  0.87330  Biso   1.000  C
  H14      1.0000 0.64570  0.99010  0.21320  Biso   1.000  H
  N4       1.0000 0.32600  0.01400  0.16610  Biso   1.000  N
  H15      1.0000 0.29480  0.03810  0.17890  Biso   1.000  H
  H16      1.0000 0.30290  0.99670  0.14540  Biso   1.000  H
  O9       1.0000 0.98870  0.41190  0.10175  Biso   1.000  O
  O10      1.0000 0.85420  0.43400  0.11570  Biso   1.000  O
  O11      1.0000 0.98910  0.33910  0.02980  Biso   1.000  O
  O12      1.0000 0.85520  0.31260  0.01830  Biso   1.000  O
  C17      1.0000 0.93670  0.31060  0.00950  Biso   1.000  C
  C18      1.0000 0.96880  0.27860  0.97460  Biso   1.000  C
  C19      1.0000 0.91380  0.24380  0.95440  Biso   1.000  C
  C20      1.0000 0.05590  0.28400  0.96180  Biso   1.000  C
  C21      1.0000 0.94600  0.21450  0.92150  Biso   1.000  C
  N5       1.0000 0.82730  0.23570  0.96660  Biso   1.000  N
  C22      1.0000 0.08810  0.25470  0.92880  Biso   1.000  C
  H17      1.0000 0.09350  0.30780  0.97560  Biso   1.000  H
  H18      1.0000 0.90850  0.19080  0.90770  Biso   1.000  H
  C23      1.0000 0.03320  0.22000  0.90865  Biso   1.000  C
  H19      1.0000 0.79500  0.21270  0.95360  Biso   1.000  H
  H20      1.0000 0.80460  0.25350  0.98740  Biso   1.000  H
  H21      1.0000 0.14770  0.25840  0.92000  Biso   1.000  H
  C24      1.0000 0.06490  0.18700  0.87330  Biso   1.000  C
  H22      1.0000 0.14570  0.49010  0.21320  Biso   1.000  H
  N6       1.0000 0.82600  0.51400  0.16610  Biso   1.000  N
  H23      1.0000 0.79480  0.53810  0.17890  Biso   1.000  H
  H24      1.0000 0.80290  0.49670  0.14540  Biso   1.000  H
  O13      1.0000 0.98870  0.91190  0.60175  Biso   1.000  O
  O14      1.0000 0.85420  0.93400  0.61570  Biso   1.000  O
  O15      1.0000 0.98910  0.83910  0.52980  Biso   1.000  O
  O16      1.0000 0.85520  0.81260  0.51830  Biso   1.000  O
  C25      1.0000 0.93670  0.81060  0.50950  Biso   1.000  C
  C26      1.0000 0.96880  0.77860  0.47460  Biso   1.000  C
  C27      1.0000 0.91380  0.74380  0.45440  Biso   1.000  C
  C28      1.0000 0.05590  0.78400  0.46180  Biso   1.000  C
  C29      1.0000 0.94600  0.71450  0.42150  Biso   1.000  C
  N7       1.0000 0.82730  0.73570  0.46660  Biso   1.000  N
  C30      1.0000 0.08810  0.75470  0.42880  Biso   1.000  C
  H25      1.0000 0.09350  0.80780  0.47560  Biso   1.000  H
  H26      1.0000 0.90850  0.69080  0.40770  Biso   1.000  H
  C31      1.0000 0.03320  0.72000  0.40865  Biso   1.000  C
  H27      1.0000 0.79500  0.71270  0.45360  Biso   1.000  H
  H28      1.0000 0.80460  0.75350  0.48740  Biso   1.000  H
  H29      1.0000 0.14770  0.75840  0.42000  Biso   1.000  H
  C32      1.0000 0.06490  0.68700  0.37330  Biso   1.000  C
  H30      1.0000 0.14570  0.99010  0.71320  Biso   1.000  H
  N8       1.0000 0.82600  0.01400  0.66610  Biso   1.000  N
  H31      1.0000 0.79480  0.03810  0.67890  Biso   1.000  H
  H32      1.0000 0.80290  0.99670  0.64540  Biso   1.000  H
  O17      1.0000 0.26130  0.33810  0.60175  Biso   1.000  O
  O18      1.0000 0.39580  0.31600  0.61570  Biso   1.000  O
  O19      1.0000 0.26090  0.41090  0.52980  Biso   1.000  O
  O20      1.0000 0.39480  0.43740  0.51830  Biso   1.000  O
  C33      1.0000 0.31330  0.43940  0.50950  Biso   1.000  C
  C34      1.0000 0.28120  0.47140  0.47460  Biso   1.000  C
  C35      1.0000 0.33620  0.50620  0.45440  Biso   1.000  C
  C36      1.0000 0.19410  0.46600  0.46180  Biso   1.000  C
  C37      1.0000 0.30400  0.53550  0.42150  Biso   1.000  C
  N9       1.0000 0.42270  0.51430  0.46660  Biso   1.000  N
  C38      1.0000 0.16190  0.49530  0.42880  Biso   1.000  C
  H33      1.0000 0.15650  0.44220  0.47560  Biso   1.000  H
  H34      1.0000 0.34150  0.55920  0.40770  Biso   1.000  H
  C39      1.0000 0.21680  0.53000  0.40865  Biso   1.000  C
  H35      1.0000 0.45500  0.53730  0.45360  Biso   1.000  H
  H36      1.0000 0.44540  0.49650  0.48740  Biso   1.000  H
  H37      1.0000 0.10230  0.49160  0.42000  Biso   1.000  H
  C40      1.0000 0.18510  0.56300  0.37330  Biso   1.000  C
  H38      1.0000 0.10430  0.25990  0.71320  Biso   1.000  H
  N10      1.0000 0.42400  0.23600  0.66610  Biso   1.000  N
  H39      1.0000 0.45520  0.21190  0.67890  Biso   1.000  H
  H40      1.0000 0.44710  0.25330  0.64540  Biso   1.000  H
  O21      1.0000 0.26130  0.83810  0.10175  Biso   1.000  O
  O22      1.0000 0.39580  0.81600  0.11570  Biso   1.000  O
  O23      1.0000 0.26090  0.91090  0.02980  Biso   1.000  O
  O24      1.0000 0.39480  0.93740  0.01830  Biso   1.000  O
  C41      1.0000 0.31330  0.93940  0.00950  Biso   1.000  C
  C42      1.0000 0.28120  0.97140  0.97460  Biso   1.000  C
  C43      1.0000 0.33620  0.00620  0.95440  Biso   1.000  C
  C44      1.0000 0.19410  0.96600  0.96180  Biso   1.000  C
  C45      1.0000 0.30400  0.03550  0.92150  Biso   1.000  C
  N11      1.0000 0.42270  0.01430  0.96660  Biso   1.000  N
  C46      1.0000 0.16190  0.99530  0.92880  Biso   1.000  C
  H41      1.0000 0.15650  0.94220  0.97560  Biso   1.000  H
  H42      1.0000 0.34150  0.05920  0.90770  Biso   1.000  H
  C47      1.0000 0.21680  0.03000  0.90865  Biso   1.000  C
  H43      1.0000 0.45500  0.03730  0.95360  Biso   1.000  H
  H44      1.0000 0.44540  0.99650  0.98740  Biso   1.000  H
  H45      1.0000 0.10230  0.99160  0.92000  Biso   1.000  H
  C48      1.0000 0.18510  0.06300  0.87330  Biso   1.000  C
  H46      1.0000 0.10430  0.75990  0.21320  Biso   1.000  H
  N12      1.0000 0.42400  0.73600  0.16610  Biso   1.000  N
  H47      1.0000 0.45520  0.71190  0.17890  Biso   1.000  H
  H48      1.0000 0.44710  0.75330  0.14540  Biso   1.000  H
  O25      1.0000 0.76130  0.33810  0.10175  Biso   1.000  O
  O26      1.0000 0.89580  0.31600  0.11570  Biso   1.000  O
  O27      1.0000 0.76090  0.41090  0.02980  Biso   1.000  O
  O28      1.0000 0.89480  0.43740  0.01830  Biso   1.000  O
  C49      1.0000 0.81330  0.43940  0.00950  Biso   1.000  C
  C50      1.0000 0.78120  0.47140  0.97460  Biso   1.000  C
  C51      1.0000 0.83620  0.50620  0.95440  Biso   1.000  C
  C52      1.0000 0.69410  0.46600  0.96180  Biso   1.000  C
  C53      1.0000 0.80400  0.53550  0.92150  Biso   1.000  C
  N13      1.0000 0.92270  0.51430  0.96660  Biso   1.000  N
  C54      1.0000 0.66190  0.49530  0.92880  Biso   1.000  C
  H49      1.0000 0.65650  0.44220  0.97560  Biso   1.000  H
  H50      1.0000 0.84150  0.55920  0.90770  Biso   1.000  H
  C55      1.0000 0.71680  0.53000  0.90865  Biso   1.000  C
  H51      1.0000 0.95500  0.53730  0.95360  Biso   1.000  H
  H52      1.0000 0.94540  0.49650  0.98740  Biso   1.000  H
  H53      1.0000 0.60230  0.49160  0.92000  Biso   1.000  H
  C56      1.0000 0.68510  0.56300  0.87330  Biso   1.000  C
  H54      1.0000 0.60430  0.25990  0.21320  Biso   1.000  H
  N14      1.0000 0.92400  0.23600  0.16610  Biso   1.000  N
  H55      1.0000 0.95520  0.21190  0.17890  Biso   1.000  H
  H56      1.0000 0.94710  0.25330  0.14540  Biso   1.000  H
  O29      1.0000 0.76130  0.83810  0.60175  Biso   1.000  O
  O30      1.0000 0.89580  0.81600  0.61570  Biso   1.000  O
  O31      1.0000 0.76090  0.91090  0.52980  Biso   1.000  O
  O32      1.0000 0.89480  0.93740  0.51830  Biso   1.000  O
  C57      1.0000 0.81330  0.93940  0.50950  Biso   1.000  C
  C58      1.0000 0.78120  0.97140  0.47460  Biso   1.000  C
  C59      1.0000 0.83620  0.00620  0.45440  Biso   1.000  C
  C60      1.0000 0.69410  0.96600  0.46180  Biso   1.000  C
  C61      1.0000 0.80400  0.03550  0.42150  Biso   1.000  C
  N15      1.0000 0.92270  0.01430  0.46660  Biso   1.000  N
  C62      1.0000 0.66190  0.99530  0.42880  Biso   1.000  C
  H57      1.0000 0.65650  0.94220  0.47560  Biso   1.000  H
  H58      1.0000 0.84150  0.05920  0.40770  Biso   1.000  H
  C63      1.0000 0.71680  0.03000  0.40865  Biso   1.000  C
  H59      1.0000 0.95500  0.03730  0.45360  Biso   1.000  H
  H60      1.0000 0.94540  0.99650  0.48740  Biso   1.000  H
  H61      1.0000 0.60230  0.99160  0.42000  Biso   1.000  H
  C64      1.0000 0.68510  0.06300  0.37330  Biso   1.000  C
  H62      1.0000 0.60430  0.75990  0.71320  Biso   1.000  H
  N16      1.0000 0.92400  0.73600  0.66610  Biso   1.000  N
  H63      1.0000 0.95520  0.71190  0.67890  Biso   1.000  H
  H64      1.0000 0.94710  0.75330  0.64540  Biso   1.000  H
  O33      1.0000 0.73870  0.58810  0.85175  Biso   1.000  O
  O34      1.0000 0.60420  0.56600  0.86570  Biso   1.000  O
  O35      1.0000 0.73910  0.66090  0.77980  Biso   1.000  O
  O36      1.0000 0.60520  0.68740  0.76830  Biso   1.000  O
  C65      1.0000 0.68670  0.68940  0.75950  Biso   1.000  C
  C66      1.0000 0.71880  0.72140  0.72460  Biso   1.000  C
  C67      1.0000 0.66380  0.75620  0.70440  Biso   1.000  C
  C68      1.0000 0.80590  0.71600  0.71180  Biso   1.000  C
  C69      1.0000 0.69600  0.78550  0.67150  Biso   1.000  C
  N17      1.0000 0.57730  0.76430  0.71660  Biso   1.000  N
  C70      1.0000 0.83810  0.74530  0.67880  Biso   1.000  C
  H65      1.0000 0.84350  0.69220  0.72560  Biso   1.000  H
  H66      1.0000 0.65850  0.80920  0.65770  Biso   1.000  H
  C71      1.0000 0.78320  0.78000  0.65865  Biso   1.000  C
  H67      1.0000 0.54500  0.78730  0.70360  Biso   1.000  H
  H68      1.0000 0.55460  0.74650  0.73740  Biso   1.000  H
  H69      1.0000 0.89770  0.74160  0.67000  Biso   1.000  H
  C72      1.0000 0.81490  0.81300  0.62330  Biso   1.000  C
  H70      1.0000 0.89570  0.50990  0.96320  Biso   1.000  H
  N18      1.0000 0.57600  0.48600  0.91610  Biso   1.000  N
  H71      1.0000 0.54480  0.46190  0.92890  Biso   1.000  H
  H72      1.0000 0.55290  0.50330  0.89540  Biso   1.000  H
  O37      1.0000 0.73870  0.08810  0.35175  Biso   1.000  O
  O38      1.0000 0.60420  0.06600  0.36570  Biso   1.000  O
  O39      1.0000 0.73910  0.16090  0.27980  Biso   1.000  O
  O40      1.0000 0.60520  0.18740  0.26830  Biso   1.000  O
  C73      1.0000 0.68670  0.18940  0.25950  Biso   1.000  C
  C74      1.0000 0.71880  0.22140  0.22460  Biso   1.000  C
  C75      1.0000 0.66380  0.25620  0.20440  Biso   1.000  C
  C76      1.0000 0.80590  0.21600  0.21180  Biso   1.000  C
  C77      1.0000 0.69600  0.28550  0.17150  Biso   1.000  C
  N19      1.0000 0.57730  0.26430  0.21660  Biso   1.000  N
  C78      1.0000 0.83810  0.24530  0.17880  Biso   1.000  C
  H73      1.0000 0.84350  0.19220  0.22560  Biso   1.000  H
  H74      1.0000 0.65850  0.30920  0.15770  Biso   1.000  H
  C79      1.0000 0.78320  0.28000  0.15865  Biso   1.000  C
  H75      1.0000 0.54500  0.28730  0.20360  Biso   1.000  H
  H76      1.0000 0.55460  0.24650  0.23740  Biso   1.000  H
  H77      1.0000 0.89770  0.24160  0.17000  Biso   1.000  H
  C80      1.0000 0.81490  0.31300  0.12330  Biso   1.000  C
  H78      1.0000 0.89570  0.00990  0.46320  Biso   1.000  H
  N20      1.0000 0.57600  0.98600  0.41610  Biso   1.000  N
  H79      1.0000 0.54480  0.96190  0.42890  Biso   1.000  H
  H80      1.0000 0.55290  0.00330  0.39540  Biso   1.000  H
  O41      1.0000 0.23870  0.58810  0.35175  Biso   1.000  O
  O42      1.0000 0.10420  0.56600  0.36570  Biso   1.000  O
  O43      1.0000 0.23910  0.66090  0.27980  Biso   1.000  O
  O44      1.0000 0.10520  0.68740  0.26830  Biso   1.000  O
  C81      1.0000 0.18670  0.68940  0.25950  Biso   1.000  C
  C82      1.0000 0.21880  0.72140  0.22460  Biso   1.000  C
  C83      1.0000 0.16380  0.75620  0.20440  Biso   1.000  C
  C84      1.0000 0.30590  0.71600  0.21180  Biso   1.000  C
  C85      1.0000 0.19600  0.78550  0.17150  Biso   1.000  C
  N21      1.0000 0.07730  0.76430  0.21660  Biso   1.000  N
  C86      1.0000 0.33810  0.74530  0.17880  Biso   1.000  C
  H81      1.0000 0.34350  0.69220  0.22560  Biso   1.000  H
  H82      1.0000 0.15850  0.80920  0.15770  Biso   1.000  H
  C87      1.0000 0.28320  0.78000  0.15865  Biso   1.000  C
  H83      1.0000 0.04500  0.78730  0.20360  Biso   1.000  H
  H84      1.0000 0.05460  0.74650  0.23740  Biso   1.000  H
  H85      1.0000 0.39770  0.74160  0.17000  Biso   1.000  H
  C88      1.0000 0.31490  0.81300  0.12330  Biso   1.000  C
  H86      1.0000 0.39570  0.50990  0.46320  Biso   1.000  H
  N22      1.0000 0.07600  0.48600  0.41610  Biso   1.000  N
  H87      1.0000 0.04480  0.46190  0.42890  Biso   1.000  H
  H88      1.0000 0.05290  0.50330  0.39540  Biso   1.000  H
  O45      1.0000 0.23870  0.08810  0.85175  Biso   1.000  O
  O46      1.0000 0.10420  0.06600  0.86570  Biso   1.000  O
  O47      1.0000 0.23910  0.16090  0.77980  Biso   1.000  O
  O48      1.0000 0.10520  0.18740  0.76830  Biso   1.000  O
  C89      1.0000 0.18670  0.18940  0.75950  Biso   1.000  C
  C90      1.0000 0.21880  0.22140  0.72460  Biso   1.000  C
  C91      1.0000 0.16380  0.25620  0.70440  Biso   1.000  C
  C92      1.0000 0.30590  0.21600  0.71180  Biso   1.000  C
  C93      1.0000 0.19600  0.28550  0.67150  Biso   1.000  C
  N23      1.0000 0.07730  0.26430  0.71660  Biso   1.000  N
  C94      1.0000 0.33810  0.24530  0.67880  Biso   1.000  C
  H89      1.0000 0.34350  0.19220  0.72560  Biso   1.000  H
  H90      1.0000 0.15850  0.30920  0.65770  Biso   1.000  H
  C95      1.0000 0.28320  0.28000  0.65865  Biso   1.000  C
  H91      1.0000 0.04500  0.28730  0.70360  Biso   1.000  H
  H92      1.0000 0.05460  0.24650  0.73740  Biso   1.000  H
  H93      1.0000 0.39770  0.24160  0.67000  Biso   1.000  H
  C96      1.0000 0.31490  0.31300  0.62330  Biso   1.000  C
  H94      1.0000 0.39570  0.00990  0.96320  Biso   1.000  H
  N24      1.0000 0.07600  0.98600  0.91610  Biso   1.000  N
  H95      1.0000 0.04480  0.96190  0.92890  Biso   1.000  H
  H96      1.0000 0.05290  0.00330  0.89540  Biso   1.000  H
  O49      1.0000 0.51130  0.66190  0.85175  Biso   1.000  O
  O50      1.0000 0.64580  0.68400  0.86570  Biso   1.000  O
  O51      1.0000 0.51090  0.58910  0.77980  Biso   1.000  O
  O52      1.0000 0.64480  0.56260  0.76830  Biso   1.000  O
  C97      1.0000 0.56330  0.56060  0.75950  Biso   1.000  C
  C98      1.0000 0.53120  0.52860  0.72460  Biso   1.000  C
  C99      1.0000 0.58620  0.49380  0.70440  Biso   1.000  C
  C100     1.0000 0.44410  0.53400  0.71180  Biso   1.000  C
  C101     1.0000 0.55400  0.46450  0.67150  Biso   1.000  C
  N25      1.0000 0.67270  0.48570  0.71660  Biso   1.000  N
  C102     1.0000 0.41190  0.50470  0.67880  Biso   1.000  C
  H97      1.0000 0.40650  0.55780  0.72560  Biso   1.000  H
  H98      1.0000 0.59150  0.44080  0.65770  Biso   1.000  H
  C103     1.0000 0.46680  0.47000  0.65865  Biso   1.000  C
  H99      1.0000 0.70500  0.46270  0.70360  Biso   1.000  H
  H100     1.0000 0.69540  0.50350  0.73740  Biso   1.000  H
  H101     1.0000 0.35230  0.50840  0.67000  Biso   1.000  H
  C104     1.0000 0.43510  0.43700  0.62330  Biso   1.000  C
  H102     1.0000 0.35430  0.74010  0.96320  Biso   1.000  H
  N26      1.0000 0.67400  0.76400  0.91610  Biso   1.000  N
  H103     1.0000 0.70520  0.78810  0.92890  Biso   1.000  H
  H104     1.0000 0.69710  0.74670  0.89540  Biso   1.000  H
  O53      1.0000 0.51130  0.16190  0.35175  Biso   1.000  O
  O54      1.0000 0.64580  0.18400  0.36570  Biso   1.000  O
  O55      1.0000 0.51090  0.08910  0.27980  Biso   1.000  O
  O56      1.0000 0.64480  0.06260  0.26830  Biso   1.000  O
  C105     1.0000 0.56330  0.06060  0.25950  Biso   1.000  C
  C106     1.0000 0.53120  0.02860  0.22460  Biso   1.000  C
  C107     1.0000 0.58620  0.99380  0.20440  Biso   1.000  C
  C108     1.0000 0.44410  0.03400  0.21180  Biso   1.000  C
  C109     1.0000 0.55400  0.96450  0.17150  Biso   1.000  C
  N27      1.0000 0.67270  0.98570  0.21660  Biso   1.000  N
  C110     1.0000 0.41190  0.00470  0.17880  Biso   1.000  C
  H105     1.0000 0.40650  0.05780  0.22560  Biso   1.000  H
  H106     1.0000 0.59150  0.94080  0.15770  Biso   1.000  H
  C111     1.0000 0.46680  0.97000  0.15865  Biso   1.000  C
  H107     1.0000 0.70500  0.96270  0.20360  Biso   1.000  H
  H108     1.0000 0.69540  0.00350  0.23740  Biso   1.000  H
  H109     1.0000 0.35230  0.00840  0.17000  Biso   1.000  H
  C112     1.0000 0.43510  0.93700  0.12330  Biso   1.000  C
  H110     1.0000 0.35430  0.24010  0.46320  Biso   1.000  H
  N28      1.0000 0.67400  0.26400  0.41610  Biso   1.000  N
  H111     1.0000 0.70520  0.28810  0.42890  Biso   1.000  H
  H112     1.0000 0.69710  0.24670  0.39540  Biso   1.000  H
  O57      1.0000 0.01130  0.66190  0.35175  Biso   1.000  O
  O58      1.0000 0.14580  0.68400  0.36570  Biso   1.000  O
  O59      1.0000 0.01090  0.58910  0.27980  Biso   1.000  O
  O60      1.0000 0.14480  0.56260  0.26830  Biso   1.000  O
  C113     1.0000 0.06330  0.56060  0.25950  Biso   1.000  C
  C114     1.0000 0.03120  0.52860  0.22460  Biso   1.000  C
  C115     1.0000 0.08620  0.49380  0.20440  Biso   1.000  C
  C116     1.0000 0.94410  0.53400  0.21180  Biso   1.000  C
  C117     1.0000 0.05400  0.46450  0.17150  Biso   1.000  C
  N29      1.0000 0.17270  0.48570  0.21660  Biso   1.000  N
  C118     1.0000 0.91190  0.50470  0.17880  Biso   1.000  C
  H113     1.0000 0.90650  0.55780  0.22560  Biso   1.000  H
  H114     1.0000 0.09150  0.44080  0.15770  Biso   1.000  H
  C119     1.0000 0.96680  0.47000  0.15865  Biso   1.000  C
  H115     1.0000 0.20500  0.46270  0.20360  Biso   1.000  H
  H116     1.0000 0.19540  0.50350  0.23740  Biso   1.000  H
  H117     1.0000 0.85230  0.50840  0.17000  Biso   1.000  H
  C120     1.0000 0.93510  0.43700  0.12330  Biso   1.000  C
  H118     1.0000 0.85430  0.74010  0.46320  Biso   1.000  H
  N30      1.0000 0.17400  0.76400  0.41610  Biso   1.000  N
  H119     1.0000 0.20520  0.78810  0.42890  Biso   1.000  H
  H120     1.0000 0.19710  0.74670  0.39540  Biso   1.000  H
  O61      1.0000 0.01130  0.16190  0.85175  Biso   1.000  O
  O62      1.0000 0.14580  0.18400  0.86570  Biso   1.000  O
  O63      1.0000 0.01090  0.08910  0.77980  Biso   1.000  O
  O64      1.0000 0.14480  0.06260  0.76830  Biso   1.000  O
  C121     1.0000 0.06330  0.06060  0.75950  Biso   1.000  C
  C122     1.0000 0.03120  0.02860  0.72460  Biso   1.000  C
  C123     1.0000 0.08620  0.99380  0.70440  Biso   1.000  C
  C124     1.0000 0.94410  0.03400  0.71180  Biso   1.000  C
  C125     1.0000 0.05400  0.96450  0.67150  Biso   1.000  C
  N31      1.0000 0.17270  0.98570  0.71660  Biso   1.000  N
  C126     1.0000 0.91190  0.00470  0.67880  Biso   1.000  C
  H121     1.0000 0.90650  0.05780  0.72560  Biso   1.000  H
  H122     1.0000 0.09150  0.94080  0.65770  Biso   1.000  H
  C127     1.0000 0.96680  0.97000  0.65865  Biso   1.000  C
  H123     1.0000 0.20500  0.96270  0.70360  Biso   1.000  H
  H124     1.0000 0.19540  0.00350  0.73740  Biso   1.000  H
  H125     1.0000 0.85230  0.00840  0.67000  Biso   1.000  H
  C128     1.0000 0.93510  0.93700  0.62330  Biso   1.000  C
  H126     1.0000 0.85430  0.24010  0.96320  Biso   1.000  H
  N32      1.0000 0.17400  0.26400  0.91610  Biso   1.000  N
  H127     1.0000 0.20520  0.28810  0.92890  Biso   1.000  H
  H128     1.0000 0.19710  0.24670  0.89540  Biso   1.000  H
  In1      1.0000 0.37500  0.37500  0.56560  Biso   1.000  In
  In2      1.0000 0.37500  0.87500  0.06560  Biso   1.000  In
  In3      1.0000 0.87500  0.37500  0.06560  Biso   1.000  In
  In4      1.0000 0.87500  0.87500  0.56560  Biso   1.000  In
  In5      1.0000 0.62500  0.62500  0.81560  Biso   1.000  In
  In6      1.0000 0.62500  0.12500  0.31560  Biso   1.000  In
  In7      1.0000 0.12500  0.62500  0.31560  Biso   1.000  In
  In8      1.0000 0.12500  0.12500  0.81560  Biso   1.000  In
  O65      1.0000 0.26130  0.41190  0.14825  Biso   1.000  O
  O66      1.0000 0.39580  0.43400  0.13430  Biso   1.000  O
  O67      1.0000 0.26090  0.33910  0.22020  Biso   1.000  O
  O68      1.0000 0.39480  0.31260  0.23170  Biso   1.000  O
  C129     1.0000 0.31330  0.31060  0.24050  Biso   1.000  C
  C130     1.0000 0.28120  0.27860  0.27540  Biso   1.000  C
  C131     1.0000 0.33620  0.24380  0.29560  Biso   1.000  C
  C132     1.0000 0.19410  0.28400  0.28820  Biso   1.000  C
  C133     1.0000 0.30400  0.21450  0.32850  Biso   1.000  C
  N33      1.0000 0.42270  0.23570  0.28340  Biso   1.000  N
  C134     1.0000 0.16190  0.25470  0.32120  Biso   1.000  C
  H129     1.0000 0.15650  0.30780  0.27440  Biso   1.000  H
  H130     1.0000 0.34150  0.19080  0.34230  Biso   1.000  H
  C135     1.0000 0.21680  0.22000  0.34135  Biso   1.000  C
  H131     1.0000 0.45500  0.21270  0.29640  Biso   1.000  H
  H132     1.0000 0.44540  0.25350  0.26260  Biso   1.000  H
  H133     1.0000 0.10230  0.25840  0.33000  Biso   1.000  H
  C136     1.0000 0.18510  0.18700  0.37670  Biso   1.000  C
  H134     1.0000 0.10430  0.49010  0.03680  Biso   1.000  H
  N34      1.0000 0.42400  0.51400  0.08390  Biso   1.000  N
  H135     1.0000 0.45520  0.53810  0.07110  Biso   1.000  H
  H136     1.0000 0.44710  0.49670  0.10460  Biso   1.000  H
  O69      1.0000 0.26130  0.91190  0.64825  Biso   1.000  O
  O70      1.0000 0.39580  0.93400  0.63430  Biso   1.000  O
  O71      1.0000 0.26090  0.83910  0.72020  Biso   1.000  O
  O72      1.0000 0.39480  0.81260  0.73170  Biso   1.000  O
  C137     1.0000 0.31330  0.81060  0.74050  Biso   1.000  C
  C138     1.0000 0.28120  0.77860  0.77540  Biso   1.000  C
  C139     1.0000 0.33620  0.74380  0.79560  Biso   1.000  C
  C140     1.0000 0.19410  0.78400  0.78820  Biso   1.000  C
  C141     1.0000 0.30400  0.71450  0.82850  Biso   1.000  C
  N35      1.0000 0.42270  0.73570  0.78340  Biso   1.000  N
  C142     1.0000 0.16190  0.75470  0.82120  Biso   1.000  C
  H137     1.0000 0.15650  0.80780  0.77440  Biso   1.000  H
  H138     1.0000 0.34150  0.69080  0.84230  Biso   1.000  H
  C143     1.0000 0.21680  0.72000  0.84135  Biso   1.000  C
  H139     1.0000 0.45500  0.71270  0.79640  Biso   1.000  H
  H140     1.0000 0.44540  0.75350  0.76260  Biso   1.000  H
  H141     1.0000 0.10230  0.75840  0.83000  Biso   1.000  H
  C144     1.0000 0.18510  0.68700  0.87670  Biso   1.000  C
  H142     1.0000 0.10430  0.99010  0.53680  Biso   1.000  H
  N36      1.0000 0.42400  0.01400  0.58390  Biso   1.000  N
  H143     1.0000 0.45520  0.03810  0.57110  Biso   1.000  H
  H144     1.0000 0.44710  0.99670  0.60460  Biso   1.000  H
  O73      1.0000 0.76130  0.41190  0.64825  Biso   1.000  O
  O74      1.0000 0.89580  0.43400  0.63430  Biso   1.000  O
  O75      1.0000 0.76090  0.33910  0.72020  Biso   1.000  O
  O76      1.0000 0.89480  0.31260  0.73170  Biso   1.000  O
  C145     1.0000 0.81330  0.31060  0.74050  Biso   1.000  C
  C146     1.0000 0.78120  0.27860  0.77540  Biso   1.000  C
  C147     1.0000 0.83620  0.24380  0.79560  Biso   1.000  C
  C148     1.0000 0.69410  0.28400  0.78820  Biso   1.000  C
  C149     1.0000 0.80400  0.21450  0.82850  Biso   1.000  C
  N37      1.0000 0.92270  0.23570  0.78340  Biso   1.000  N
  C150     1.0000 0.66190  0.25470  0.82120  Biso   1.000  C
  H145     1.0000 0.65650  0.30780  0.77440  Biso   1.000  H
  H146     1.0000 0.84150  0.19080  0.84230  Biso   1.000  H
  C151     1.0000 0.71680  0.22000  0.84135  Biso   1.000  C
  H147     1.0000 0.95500  0.21270  0.79640  Biso   1.000  H
  H148     1.0000 0.94540  0.25350  0.76260  Biso   1.000  H
  H149     1.0000 0.60230  0.25840  0.83000  Biso   1.000  H
  C152     1.0000 0.68510  0.18700  0.87670  Biso   1.000  C
  H150     1.0000 0.60430  0.49010  0.53680  Biso   1.000  H
  N38      1.0000 0.92400  0.51400  0.58390  Biso   1.000  N
  H151     1.0000 0.95520  0.53810  0.57110  Biso   1.000  H
  H152     1.0000 0.94710  0.49670  0.60460  Biso   1.000  H
  O77      1.0000 0.76130  0.91190  0.14825  Biso   1.000  O
  O78      1.0000 0.89580  0.93400  0.13430  Biso   1.000  O
  O79      1.0000 0.76090  0.83910  0.22020  Biso   1.000  O
  O80      1.0000 0.89480  0.81260  0.23170  Biso   1.000  O
  C153     1.0000 0.81330  0.81060  0.24050  Biso   1.000  C
  C154     1.0000 0.78120  0.77860  0.27540  Biso   1.000  C
  C155     1.0000 0.83620  0.74380  0.29560  Biso   1.000  C
  C156     1.0000 0.69410  0.78400  0.28820  Biso   1.000  C
  C157     1.0000 0.80400  0.71450  0.32850  Biso   1.000  C
  N39      1.0000 0.92270  0.73570  0.28340  Biso   1.000  N
  C158     1.0000 0.66190  0.75470  0.32120  Biso   1.000  C
  H153     1.0000 0.65650  0.80780  0.27440  Biso   1.000  H
  H154     1.0000 0.84150  0.69080  0.34230  Biso   1.000  H
  C159     1.0000 0.71680  0.72000  0.34135  Biso   1.000  C
  H155     1.0000 0.95500  0.71270  0.29640  Biso   1.000  H
  H156     1.0000 0.94540  0.75350  0.26260  Biso   1.000  H
  H157     1.0000 0.60230  0.75840  0.33000  Biso   1.000  H
  C160     1.0000 0.68510  0.68700  0.37670  Biso   1.000  C
  H158     1.0000 0.60430  0.99010  0.03680  Biso   1.000  H
  N40      1.0000 0.92400  0.01400  0.08390  Biso   1.000  N
  H159     1.0000 0.95520  0.03810  0.07110  Biso   1.000  H
  H160     1.0000 0.94710  0.99670  0.10460  Biso   1.000  H
  O81      1.0000 0.48870  0.33810  0.14825  Biso   1.000  O
  O82      1.0000 0.35420  0.31600  0.13430  Biso   1.000  O
  O83      1.0000 0.48910  0.41090  0.22020  Biso   1.000  O
  O84      1.0000 0.35520  0.43740  0.23170  Biso   1.000  O
  C161     1.0000 0.43670  0.43940  0.24050  Biso   1.000  C
  C162     1.0000 0.46880  0.47140  0.27540  Biso   1.000  C
  C163     1.0000 0.41380  0.50620  0.29560  Biso   1.000  C
  C164     1.0000 0.55590  0.46600  0.28820  Biso   1.000  C
  C165     1.0000 0.44600  0.53550  0.32850  Biso   1.000  C
  N41      1.0000 0.32730  0.51430  0.28340  Biso   1.000  N
  C166     1.0000 0.58810  0.49530  0.32120  Biso   1.000  C
  H161     1.0000 0.59350  0.44220  0.27440  Biso   1.000  H
  H162     1.0000 0.40850  0.55920  0.34230  Biso   1.000  H
  C167     1.0000 0.53320  0.53000  0.34135  Biso   1.000  C
  H163     1.0000 0.29500  0.53730  0.29640  Biso   1.000  H
  H164     1.0000 0.30460  0.49650  0.26260  Biso   1.000  H
  H165     1.0000 0.64770  0.49160  0.33000  Biso   1.000  H
  C168     1.0000 0.56490  0.56300  0.37670  Biso   1.000  C
  H166     1.0000 0.64570  0.25990  0.03680  Biso   1.000  H
  N42      1.0000 0.32600  0.23600  0.08390  Biso   1.000  N
  H167     1.0000 0.29480  0.21190  0.07110  Biso   1.000  H
  H168     1.0000 0.30290  0.25330  0.10460  Biso   1.000  H
  O85      1.0000 0.48870  0.83810  0.64825  Biso   1.000  O
  O86      1.0000 0.35420  0.81600  0.63430  Biso   1.000  O
  O87      1.0000 0.48910  0.91090  0.72020  Biso   1.000  O
  O88      1.0000 0.35520  0.93740  0.73170  Biso   1.000  O
  C169     1.0000 0.43670  0.93940  0.74050  Biso   1.000  C
  C170     1.0000 0.46880  0.97140  0.77540  Biso   1.000  C
  C171     1.0000 0.41380  0.00620  0.79560  Biso   1.000  C
  C172     1.0000 0.55590  0.96600  0.78820  Biso   1.000  C
  C173     1.0000 0.44600  0.03550  0.82850  Biso   1.000  C
  N43      1.0000 0.32730  0.01430  0.78340  Biso   1.000  N
  C174     1.0000 0.58810  0.99530  0.82120  Biso   1.000  C
  H169     1.0000 0.59350  0.94220  0.77440  Biso   1.000  H
  H170     1.0000 0.40850  0.05920  0.84230  Biso   1.000  H
  C175     1.0000 0.53320  0.03000  0.84135  Biso   1.000  C
  H171     1.0000 0.29500  0.03730  0.79640  Biso   1.000  H
  H172     1.0000 0.30460  0.99650  0.76260  Biso   1.000  H
  H173     1.0000 0.64770  0.99160  0.83000  Biso   1.000  H
  C176     1.0000 0.56490  0.06300  0.87670  Biso   1.000  C
  H174     1.0000 0.64570  0.75990  0.53680  Biso   1.000  H
  N44      1.0000 0.32600  0.73600  0.58390  Biso   1.000  N
  H175     1.0000 0.29480  0.71190  0.57110  Biso   1.000  H
  H176     1.0000 0.30290  0.75330  0.60460  Biso   1.000  H
  O89      1.0000 0.98870  0.33810  0.64825  Biso   1.000  O
  O90      1.0000 0.85420  0.31600  0.63430  Biso   1.000  O
  O91      1.0000 0.98910  0.41090  0.72020  Biso   1.000  O
  O92      1.0000 0.85520  0.43740  0.73170  Biso   1.000  O
  C177     1.0000 0.93670  0.43940  0.74050  Biso   1.000  C
  C178     1.0000 0.96880  0.47140  0.77540  Biso   1.000  C
  C179     1.0000 0.91380  0.50620  0.79560  Biso   1.000  C
  C180     1.0000 0.05590  0.46600  0.78820  Biso   1.000  C
  C181     1.0000 0.94600  0.53550  0.82850  Biso   1.000  C
  N45      1.0000 0.82730  0.51430  0.78340  Biso   1.000  N
  C182     1.0000 0.08810  0.49530  0.82120  Biso   1.000  C
  H177     1.0000 0.09350  0.44220  0.77440  Biso   1.000  H
  H178     1.0000 0.90850  0.55920  0.84230  Biso   1.000  H
  C183     1.0000 0.03320  0.53000  0.84135  Biso   1.000  C
  H179     1.0000 0.79500  0.53730  0.79640  Biso   1.000  H
  H180     1.0000 0.80460  0.49650  0.76260  Biso   1.000  H
  H181     1.0000 0.14770  0.49160  0.83000  Biso   1.000  H
  C184     1.0000 0.06490  0.56300  0.87670  Biso   1.000  C
  H182     1.0000 0.14570  0.25990  0.53680  Biso   1.000  H
  N46      1.0000 0.82600  0.23600  0.58390  Biso   1.000  N
  H183     1.0000 0.79480  0.21190  0.57110  Biso   1.000  H
  H184     1.0000 0.80290  0.25330  0.60460  Biso   1.000  H
  O93      1.0000 0.98870  0.83810  0.14825  Biso   1.000  O
  O94      1.0000 0.85420  0.81600  0.13430  Biso   1.000  O
  O95      1.0000 0.98910  0.91090  0.22020  Biso   1.000  O
  O96      1.0000 0.85520  0.93740  0.23170  Biso   1.000  O
  C185     1.0000 0.93670  0.93940  0.24050  Biso   1.000  C
  C186     1.0000 0.96880  0.97140  0.27540  Biso   1.000  C
  C187     1.0000 0.91380  0.00620  0.29560  Biso   1.000  C
  C188     1.0000 0.05590  0.96600  0.28820  Biso   1.000  C
  C189     1.0000 0.94600  0.03550  0.32850  Biso   1.000  C
  N47      1.0000 0.82730  0.01430  0.28340  Biso   1.000  N
  C190     1.0000 0.08810  0.99530  0.32120  Biso   1.000  C
  H185     1.0000 0.09350  0.94220  0.27440  Biso   1.000  H
  H186     1.0000 0.90850  0.05920  0.34230  Biso   1.000  H
  C191     1.0000 0.03320  0.03000  0.34135  Biso   1.000  C
  H187     1.0000 0.79500  0.03730  0.29640  Biso   1.000  H
  H188     1.0000 0.80460  0.99650  0.26260  Biso   1.000  H
  H189     1.0000 0.14770  0.99160  0.33000  Biso   1.000  H
  C192     1.0000 0.06490  0.06300  0.37670  Biso   1.000  C
  H190     1.0000 0.14570  0.75990  0.03680  Biso   1.000  H
  N48      1.0000 0.82600  0.73600  0.08390  Biso   1.000  N
  H191     1.0000 0.79480  0.71190  0.07110  Biso   1.000  H
  H192     1.0000 0.80290  0.75330  0.10460  Biso   1.000  H
  O97      1.0000 0.51130  0.58810  0.39825  Biso   1.000  O
  O98      1.0000 0.64580  0.56600  0.38430  Biso   1.000  O
  O99      1.0000 0.51090  0.66090  0.47020  Biso   1.000  O
  O100     1.0000 0.64480  0.68740  0.48170  Biso   1.000  O
  C193     1.0000 0.56330  0.68940  0.49050  Biso   1.000  C
  C194     1.0000 0.53120  0.72140  0.52540  Biso   1.000  C
  C195     1.0000 0.58620  0.75620  0.54560  Biso   1.000  C
  C196     1.0000 0.44410  0.71600  0.53820  Biso   1.000  C
  C197     1.0000 0.55400  0.78550  0.57850  Biso   1.000  C
  N49      1.0000 0.67270  0.76430  0.53340  Biso   1.000  N
  C198     1.0000 0.41190  0.74530  0.57120  Biso   1.000  C
  H193     1.0000 0.40650  0.69220  0.52440  Biso   1.000  H
  H194     1.0000 0.59150  0.80920  0.59230  Biso   1.000  H
  C199     1.0000 0.46680  0.78000  0.59135  Biso   1.000  C
  H195     1.0000 0.70500  0.78730  0.54640  Biso   1.000  H
  H196     1.0000 0.69540  0.74650  0.51260  Biso   1.000  H
  H197     1.0000 0.35230  0.74160  0.58000  Biso   1.000  H
  C200     1.0000 0.43510  0.81300  0.62670  Biso   1.000  C
  H198     1.0000 0.35430  0.50990  0.28680  Biso   1.000  H
  N50      1.0000 0.67400  0.48600  0.33390  Biso   1.000  N
  H199     1.0000 0.70520  0.46190  0.32110  Biso   1.000  H
  H200     1.0000 0.69710  0.50330  0.35460  Biso   1.000  H
  O101     1.0000 0.51130  0.08810  0.89825  Biso   1.000  O
  O102     1.0000 0.64580  0.06600  0.88430  Biso   1.000  O
  O103     1.0000 0.51090  0.16090  0.97020  Biso   1.000  O
  O104     1.0000 0.64480  0.18740  0.98170  Biso   1.000  O
  C201     1.0000 0.56330  0.18940  0.99050  Biso   1.000  C
  C202     1.0000 0.53120  0.22140  0.02540  Biso   1.000  C
  C203     1.0000 0.58620  0.25620  0.04560  Biso   1.000  C
  C204     1.0000 0.44410  0.21600  0.03820  Biso   1.000  C
  C205     1.0000 0.55400  0.28550  0.07850  Biso   1.000  C
  N51      1.0000 0.67270  0.26430  0.03340  Biso   1.000  N
  C206     1.0000 0.41190  0.24530  0.07120  Biso   1.000  C
  H201     1.0000 0.40650  0.19220  0.02440  Biso   1.000  H
  H202     1.0000 0.59150  0.30920  0.09230  Biso   1.000  H
  C207     1.0000 0.46680  0.28000  0.09135  Biso   1.000  C
  H203     1.0000 0.70500  0.28730  0.04640  Biso   1.000  H
  H204     1.0000 0.69540  0.24650  0.01260  Biso   1.000  H
  H205     1.0000 0.35230  0.24160  0.08000  Biso   1.000  H
  C208     1.0000 0.43510  0.31300  0.12670  Biso   1.000  C
  H206     1.0000 0.35430  0.00990  0.78680  Biso   1.000  H
  N52      1.0000 0.67400  0.98600  0.83390  Biso   1.000  N
  H207     1.0000 0.70520  0.96190  0.82110  Biso   1.000  H
  H208     1.0000 0.69710  0.00330  0.85460  Biso   1.000  H
  O105     1.0000 0.01130  0.58810  0.89825  Biso   1.000  O
  O106     1.0000 0.14580  0.56600  0.88430  Biso   1.000  O
  O107     1.0000 0.01090  0.66090  0.97020  Biso   1.000  O
  O108     1.0000 0.14480  0.68740  0.98170  Biso   1.000  O
  C209     1.0000 0.06330  0.68940  0.99050  Biso   1.000  C
  C210     1.0000 0.03120  0.72140  0.02540  Biso   1.000  C
  C211     1.0000 0.08620  0.75620  0.04560  Biso   1.000  C
  C212     1.0000 0.94410  0.71600  0.03820  Biso   1.000  C
  C213     1.0000 0.05400  0.78550  0.07850  Biso   1.000  C
  N53      1.0000 0.17270  0.76430  0.03340  Biso   1.000  N
  C214     1.0000 0.91190  0.74530  0.07120  Biso   1.000  C
  H209     1.0000 0.90650  0.69220  0.02440  Biso   1.000  H
  H210     1.0000 0.09150  0.80920  0.09230  Biso   1.000  H
  C215     1.0000 0.96680  0.78000  0.09135  Biso   1.000  C
  H211     1.0000 0.20500  0.78730  0.04640  Biso   1.000  H
  H212     1.0000 0.19540  0.74650  0.01260  Biso   1.000  H
  H213     1.0000 0.85230  0.74160  0.08000  Biso   1.000  H
  C216     1.0000 0.93510  0.81300  0.12670  Biso   1.000  C
  H214     1.0000 0.85430  0.50990  0.78680  Biso   1.000  H
  N54      1.0000 0.17400  0.48600  0.83390  Biso   1.000  N
  H215     1.0000 0.20520  0.46190  0.82110  Biso   1.000  H
  H216     1.0000 0.19710  0.50330  0.85460  Biso   1.000  H
  O109     1.0000 0.01130  0.08810  0.39825  Biso   1.000  O
  O110     1.0000 0.14580  0.06600  0.38430  Biso   1.000  O
  O111     1.0000 0.01090  0.16090  0.47020  Biso   1.000  O
  O112     1.0000 0.14480  0.18740  0.48170  Biso   1.000  O
  C217     1.0000 0.06330  0.18940  0.49050  Biso   1.000  C
  C218     1.0000 0.03120  0.22140  0.52540  Biso   1.000  C
  C219     1.0000 0.08620  0.25620  0.54560  Biso   1.000  C
  C220     1.0000 0.94410  0.21600  0.53820  Biso   1.000  C
  C221     1.0000 0.05400  0.28550  0.57850  Biso   1.000  C
  N55      1.0000 0.17270  0.26430  0.53340  Biso   1.000  N
  C222     1.0000 0.91190  0.24530  0.57120  Biso   1.000  C
  H217     1.0000 0.90650  0.19220  0.52440  Biso   1.000  H
  H218     1.0000 0.09150  0.30920  0.59230  Biso   1.000  H
  C223     1.0000 0.96680  0.28000  0.59135  Biso   1.000  C
  H219     1.0000 0.20500  0.28730  0.54640  Biso   1.000  H
  H220     1.0000 0.19540  0.24650  0.51260  Biso   1.000  H
  H221     1.0000 0.85230  0.24160  0.58000  Biso   1.000  H
  C224     1.0000 0.93510  0.31300  0.62670  Biso   1.000  C
  H222     1.0000 0.85430  0.00990  0.28680  Biso   1.000  H
  N56      1.0000 0.17400  0.98600  0.33390  Biso   1.000  N
  H223     1.0000 0.20520  0.96190  0.32110  Biso   1.000  H
  H224     1.0000 0.19710  0.00330  0.35460  Biso   1.000  H
  O113     1.0000 0.73870  0.66190  0.39825  Biso   1.000  O
  O114     1.0000 0.60420  0.68400  0.38430  Biso   1.000  O
  O115     1.0000 0.73910  0.58910  0.47020  Biso   1.000  O
  O116     1.0000 0.60520  0.56260  0.48170  Biso   1.000  O
  C225     1.0000 0.68670  0.56060  0.49050  Biso   1.000  C
  C226     1.0000 0.71880  0.52860  0.52540  Biso   1.000  C
  C227     1.0000 0.66380  0.49380  0.54560  Biso   1.000  C
  C228     1.0000 0.80590  0.53400  0.53820  Biso   1.000  C
  C229     1.0000 0.69600  0.46450  0.57850  Biso   1.000  C
  N57      1.0000 0.57730  0.48570  0.53340  Biso   1.000  N
  C230     1.0000 0.83810  0.50470  0.57120  Biso   1.000  C
  H225     1.0000 0.84350  0.55780  0.52440  Biso   1.000  H
  H226     1.0000 0.65850  0.44080  0.59230  Biso   1.000  H
  C231     1.0000 0.78320  0.47000  0.59135  Biso   1.000  C
  H227     1.0000 0.54500  0.46270  0.54640  Biso   1.000  H
  H228     1.0000 0.55460  0.50350  0.51260  Biso   1.000  H
  H229     1.0000 0.89770  0.50840  0.58000  Biso   1.000  H
  C232     1.0000 0.81490  0.43700  0.62670  Biso   1.000  C
  H230     1.0000 0.89570  0.74010  0.28680  Biso   1.000  H
  N58      1.0000 0.57600  0.76400  0.33390  Biso   1.000  N
  H231     1.0000 0.54480  0.78810  0.32110  Biso   1.000  H
  H232     1.0000 0.55290  0.74670  0.35460  Biso   1.000  H
  O117     1.0000 0.73870  0.16190  0.89825  Biso   1.000  O
  O118     1.0000 0.60420  0.18400  0.88430  Biso   1.000  O
  O119     1.0000 0.73910  0.08910  0.97020  Biso   1.000  O
  O120     1.0000 0.60520  0.06260  0.98170  Biso   1.000  O
  C233     1.0000 0.68670  0.06060  0.99050  Biso   1.000  C
  C234     1.0000 0.71880  0.02860  0.02540  Biso   1.000  C
  C235     1.0000 0.66380  0.99380  0.04560  Biso   1.000  C
  C236     1.0000 0.80590  0.03400  0.03820  Biso   1.000  C
  C237     1.0000 0.69600  0.96450  0.07850  Biso   1.000  C
  N59      1.0000 0.57730  0.98570  0.03340  Biso   1.000  N
  C238     1.0000 0.83810  0.00470  0.07120  Biso   1.000  C
  H233     1.0000 0.84350  0.05780  0.02440  Biso   1.000  H
  H234     1.0000 0.65850  0.94080  0.09230  Biso   1.000  H
  C239     1.0000 0.78320  0.97000  0.09135  Biso   1.000  C
  H235     1.0000 0.54500  0.96270  0.04640  Biso   1.000  H
  H236     1.0000 0.55460  0.00350  0.01260  Biso   1.000  H
  H237     1.0000 0.89770  0.00840  0.08000  Biso   1.000  H
  C240     1.0000 0.81490  0.93700  0.12670  Biso   1.000  C
  H238     1.0000 0.89570  0.24010  0.78680  Biso   1.000  H
  N60      1.0000 0.57600  0.26400  0.83390  Biso   1.000  N
  H239     1.0000 0.54480  0.28810  0.82110  Biso   1.000  H
  H240     1.0000 0.55290  0.24670  0.85460  Biso   1.000  H
  O121     1.0000 0.23870  0.66190  0.89825  Biso   1.000  O
  O122     1.0000 0.10420  0.68400  0.88430  Biso   1.000  O
  O123     1.0000 0.23910  0.58910  0.97020  Biso   1.000  O
  O124     1.0000 0.10520  0.56260  0.98170  Biso   1.000  O
  C241     1.0000 0.18670  0.56060  0.99050  Biso   1.000  C
  C242     1.0000 0.21880  0.52860  0.02540  Biso   1.000  C
  C243     1.0000 0.16380  0.49380  0.04560  Biso   1.000  C
  C244     1.0000 0.30590  0.53400  0.03820  Biso   1.000  C
  C245     1.0000 0.19600  0.46450  0.07850  Biso   1.000  C
  N61      1.0000 0.07730  0.48570  0.03340  Biso   1.000  N
  C246     1.0000 0.33810  0.50470  0.07120  Biso   1.000  C
  H241     1.0000 0.34350  0.55780  0.02440  Biso   1.000  H
  H242     1.0000 0.15850  0.44080  0.09230  Biso   1.000  H
  C247     1.0000 0.28320  0.47000  0.09135  Biso   1.000  C
  H243     1.0000 0.04500  0.46270  0.04640  Biso   1.000  H
  H244     1.0000 0.05460  0.50350  0.01260  Biso   1.000  H
  H245     1.0000 0.39770  0.50840  0.08000  Biso   1.000  H
  C248     1.0000 0.31490  0.43700  0.12670  Biso   1.000  C
  H246     1.0000 0.39570  0.74010  0.78680  Biso   1.000  H
  N62      1.0000 0.07600  0.76400  0.83390  Biso   1.000  N
  H247     1.0000 0.04480  0.78810  0.82110  Biso   1.000  H
  H248     1.0000 0.05290  0.74670  0.85460  Biso   1.000  H
  O125     1.0000 0.23870  0.16190  0.39825  Biso   1.000  O
  O126     1.0000 0.10420  0.18400  0.38430  Biso   1.000  O
  O127     1.0000 0.23910  0.08910  0.47020  Biso   1.000  O
  O128     1.0000 0.10520  0.06260  0.48170  Biso   1.000  O
  C249     1.0000 0.18670  0.06060  0.49050  Biso   1.000  C
  C250     1.0000 0.21880  0.02860  0.52540  Biso   1.000  C
  C251     1.0000 0.16380  0.99380  0.54560  Biso   1.000  C
  C252     1.0000 0.30590  0.03400  0.53820  Biso   1.000  C
  C253     1.0000 0.19600  0.96450  0.57850  Biso   1.000  C
  N63      1.0000 0.07730  0.98570  0.53340  Biso   1.000  N
  C254     1.0000 0.33810  0.00470  0.57120  Biso   1.000  C
  H249     1.0000 0.34350  0.05780  0.52440  Biso   1.000  H
  H250     1.0000 0.15850  0.94080  0.59230  Biso   1.000  H
  C255     1.0000 0.28320  0.97000  0.59135  Biso   1.000  C
  H251     1.0000 0.04500  0.96270  0.54640  Biso   1.000  H
  H252     1.0000 0.05460  0.00350  0.51260  Biso   1.000  H
  H253     1.0000 0.39770  0.00840  0.58000  Biso   1.000  H
  C256     1.0000 0.31490  0.93700  0.62670  Biso   1.000  C
  H254     1.0000 0.39570  0.24010  0.28680  Biso   1.000  H
  N64      1.0000 0.07600  0.26400  0.33390  Biso   1.000  N
  H255     1.0000 0.04480  0.28810  0.32110  Biso   1.000  H
  H256     1.0000 0.05290  0.24670  0.35460  Biso   1.000  H
  In9      1.0000 0.37500  0.37500  0.18440  Biso   1.000  In
  In10     1.0000 0.37500  0.87500  0.68440  Biso   1.000  In
  In11     1.0000 0.87500  0.37500  0.68440  Biso   1.000  In
  In12     1.0000 0.87500  0.87500  0.18440  Biso   1.000  In
  In13     1.0000 0.62500  0.62500  0.43440  Biso   1.000  In
  In14     1.0000 0.62500  0.12500  0.93440  Biso   1.000  In
  In15     1.0000 0.12500  0.62500  0.93440  Biso   1.000  In
  In16     1.0000 0.12500  0.12500  0.43440  Biso   1.000  In
