data_image0
_cell_length_a       18.476
_cell_length_b       18.476
_cell_length_c       59.999
_cell_angle_alpha    90
_cell_angle_beta     90
_cell_angle_gamma    90

_symmetry_space_group_name_H-M    "P 1"
_symmetry_int_tables_number       1

loop_
  _symmetry_equiv_pos_as_xyz
  'x, y, z'

loop_
  _atom_site_label
  _atom_site_occupancy
  _atom_site_fract_x
  _atom_site_fract_y
  _atom_site_fract_z
  _atom_site_thermal_displace_type
  _atom_site_B_iso_or_equiv
  _atom_site_type_symbol
  O1       1.0000 0.29540  0.19420  0.21978  Biso   1.000  O
  O2       1.0000 0.23680  0.13060  0.24736  Biso   1.000  O
  C1       1.0000 0.36840  0.94970  0.12330  Biso   1.000  C
  H1       1.0000 0.35350  0.91630  0.11270  Biso   1.000  H
  C2       1.0000 0.33890  0.95070  0.14530  Biso   1.000  C
  H2       1.0000 0.30630  0.91460  0.14930  Biso   1.000  H
  C3       1.0000 0.30860  0.06540  0.19455  Biso   1.000  C
  H3       1.0000 0.31590  0.10860  0.18700  Biso   1.000  H
  C4       1.0000 0.28380  0.06660  0.21656  Biso   1.000  C
  C5       1.0000 0.27140  0.13510  0.22915  Biso   1.000  C
  C6       1.0000 0.43100  0.94070  0.13290  Biso   1.000  C
  H4       1.0000 0.45970  0.90300  0.12770  Biso   1.000  H
  C7       1.0000 0.40320  0.93530  0.15370  Biso   1.000  C
  H5       1.0000 0.41200  0.89640  0.16310  Biso   1.000  H
  O3       1.0000 0.79540  0.69420  0.71978  Biso   1.000  O
  O4       1.0000 0.73680  0.63060  0.74736  Biso   1.000  O
  C8       1.0000 0.86840  0.44970  0.62330  Biso   1.000  C
  H6       1.0000 0.85350  0.41630  0.61270  Biso   1.000  H
  C9       1.0000 0.83890  0.45070  0.64530  Biso   1.000  C
  H7       1.0000 0.80630  0.41460  0.64930  Biso   1.000  H
  C10      1.0000 0.80860  0.56540  0.69455  Biso   1.000  C
  H8       1.0000 0.81590  0.60860  0.68700  Biso   1.000  H
  C11      1.0000 0.78380  0.56660  0.71656  Biso   1.000  C
  C12      1.0000 0.77140  0.63510  0.72915  Biso   1.000  C
  C13      1.0000 0.93100  0.44070  0.63290  Biso   1.000  C
  H9       1.0000 0.95970  0.40300  0.62770  Biso   1.000  H
  C14      1.0000 0.90320  0.43530  0.65370  Biso   1.000  C
  H10      1.0000 0.91200  0.39640  0.66310  Biso   1.000  H
  O5       1.0000 0.70460  0.80580  0.21978  Biso   1.000  O
  O6       1.0000 0.76320  0.86940  0.24736  Biso   1.000  O
  C15      1.0000 0.63160  0.05030  0.12330  Biso   1.000  C
  H11      1.0000 0.64650  0.08370  0.11270  Biso   1.000  H
  C16      1.0000 0.66110  0.04930  0.14530  Biso   1.000  C
  H12      1.0000 0.69370  0.08540  0.14930  Biso   1.000  H
  C17      1.0000 0.69140  0.93460  0.19455  Biso   1.000  C
  H13      1.0000 0.68410  0.89140  0.18700  Biso   1.000  H
  C18      1.0000 0.71620  0.93340  0.21656  Biso   1.000  C
  C19      1.0000 0.72860  0.86490  0.22915  Biso   1.000  C
  C20      1.0000 0.56900  0.05930  0.13290  Biso   1.000  C
  H14      1.0000 0.54030  0.09700  0.12770  Biso   1.000  H
  C21      1.0000 0.59680  0.06470  0.15370  Biso   1.000  C
  H15      1.0000 0.58800  0.10360  0.16310  Biso   1.000  H
  O7       1.0000 0.20460  0.30580  0.71978  Biso   1.000  O
  O8       1.0000 0.26320  0.36940  0.74736  Biso   1.000  O
  C22      1.0000 0.13160  0.55030  0.62330  Biso   1.000  C
  H16      1.0000 0.14650  0.58370  0.61270  Biso   1.000  H
  C23      1.0000 0.16110  0.54930  0.64530  Biso   1.000  C
  H17      1.0000 0.19370  0.58540  0.64930  Biso   1.000  H
  C24      1.0000 0.19140  0.43460  0.69455  Biso   1.000  C
  H18      1.0000 0.18410  0.39140  0.68700  Biso   1.000  H
  C25      1.0000 0.21620  0.43340  0.71656  Biso   1.000  C
  C26      1.0000 0.22860  0.36490  0.72915  Biso   1.000  C
  C27      1.0000 0.06900  0.55930  0.63290  Biso   1.000  C
  H19      1.0000 0.04030  0.59700  0.62770  Biso   1.000  H
  C28      1.0000 0.09680  0.56470  0.65370  Biso   1.000  C
  H20      1.0000 0.08800  0.60360  0.66310  Biso   1.000  H
  O9       1.0000 0.80580  0.29540  0.21978  Biso   1.000  O
  O10      1.0000 0.86940  0.23680  0.24736  Biso   1.000  O
  C29      1.0000 0.05030  0.36840  0.12330  Biso   1.000  C
  H21      1.0000 0.08370  0.35350  0.11270  Biso   1.000  H
  C30      1.0000 0.04930  0.33890  0.14530  Biso   1.000  C
  H22      1.0000 0.08540  0.30630  0.14930  Biso   1.000  H
  C31      1.0000 0.93460  0.30860  0.19455  Biso   1.000  C
  H23      1.0000 0.89140  0.31590  0.18700  Biso   1.000  H
  C32      1.0000 0.93340  0.28380  0.21656  Biso   1.000  C
  C33      1.0000 0.86490  0.27140  0.22915  Biso   1.000  C
  C34      1.0000 0.05930  0.43100  0.13290  Biso   1.000  C
  H24      1.0000 0.09700  0.45970  0.12770  Biso   1.000  H
  C35      1.0000 0.06470  0.40320  0.15370  Biso   1.000  C
  H25      1.0000 0.10360  0.41200  0.16310  Biso   1.000  H
  O11      1.0000 0.30580  0.79540  0.71978  Biso   1.000  O
  O12      1.0000 0.36940  0.73680  0.74736  Biso   1.000  O
  C36      1.0000 0.55030  0.86840  0.62330  Biso   1.000  C
  H26      1.0000 0.58370  0.85350  0.61270  Biso   1.000  H
  C37      1.0000 0.54930  0.83890  0.64530  Biso   1.000  C
  H27      1.0000 0.58540  0.80630  0.64930  Biso   1.000  H
  C38      1.0000 0.43460  0.80860  0.69455  Biso   1.000  C
  H28      1.0000 0.39140  0.81590  0.68700  Biso   1.000  H
  C39      1.0000 0.43340  0.78380  0.71656  Biso   1.000  C
  C40      1.0000 0.36490  0.77140  0.72915  Biso   1.000  C
  C41      1.0000 0.55930  0.93100  0.63290  Biso   1.000  C
  H29      1.0000 0.59700  0.95970  0.62770  Biso   1.000  H
  C42      1.0000 0.56470  0.90320  0.65370  Biso   1.000  C
  H30      1.0000 0.60360  0.91200  0.66310  Biso   1.000  H
  O13      1.0000 0.19420  0.70460  0.21978  Biso   1.000  O
  O14      1.0000 0.13060  0.76320  0.24736  Biso   1.000  O
  C43      1.0000 0.94970  0.63160  0.12330  Biso   1.000  C
  H31      1.0000 0.91630  0.64650  0.11270  Biso   1.000  H
  C44      1.0000 0.95070  0.66110  0.14530  Biso   1.000  C
  H32      1.0000 0.91460  0.69370  0.14930  Biso   1.000  H
  C45      1.0000 0.06540  0.69140  0.19455  Biso   1.000  C
  H33      1.0000 0.10860  0.68410  0.18700  Biso   1.000  H
  C46      1.0000 0.06660  0.71620  0.21656  Biso   1.000  C
  C47      1.0000 0.13510  0.72860  0.22915  Biso   1.000  C
  C48      1.0000 0.94070  0.56900  0.13290  Biso   1.000  C
  H34      1.0000 0.90300  0.54030  0.12770  Biso   1.000  H
  C49      1.0000 0.93530  0.59680  0.15370  Biso   1.000  C
  H35      1.0000 0.89640  0.58800  0.16310  Biso   1.000  H
  O15      1.0000 0.69420  0.20460  0.71978  Biso   1.000  O
  O16      1.0000 0.63060  0.26320  0.74736  Biso   1.000  O
  C50      1.0000 0.44970  0.13160  0.62330  Biso   1.000  C
  H36      1.0000 0.41630  0.14650  0.61270  Biso   1.000  H
  C51      1.0000 0.45070  0.16110  0.64530  Biso   1.000  C
  H37      1.0000 0.41460  0.19370  0.64930  Biso   1.000  H
  C52      1.0000 0.56540  0.19140  0.69455  Biso   1.000  C
  H38      1.0000 0.60860  0.18410  0.68700  Biso   1.000  H
  C53      1.0000 0.56660  0.21620  0.71656  Biso   1.000  C
  C54      1.0000 0.63510  0.22860  0.72915  Biso   1.000  C
  C55      1.0000 0.44070  0.06900  0.63290  Biso   1.000  C
  H39      1.0000 0.40300  0.04030  0.62770  Biso   1.000  H
  C56      1.0000 0.43530  0.09680  0.65370  Biso   1.000  C
  H40      1.0000 0.39640  0.08800  0.66310  Biso   1.000  H
  O17      1.0000 0.70460  0.19420  0.78022  Biso   1.000  O
  O18      1.0000 0.76320  0.13060  0.75264  Biso   1.000  O
  C57      1.0000 0.63160  0.94970  0.87670  Biso   1.000  C
  H41      1.0000 0.64650  0.91630  0.88730  Biso   1.000  H
  C58      1.0000 0.66110  0.95070  0.85470  Biso   1.000  C
  H42      1.0000 0.69370  0.91460  0.85070  Biso   1.000  H
  C59      1.0000 0.69140  0.06540  0.80545  Biso   1.000  C
  H43      1.0000 0.68410  0.10860  0.81300  Biso   1.000  H
  C60      1.0000 0.71620  0.06660  0.78344  Biso   1.000  C
  C61      1.0000 0.72860  0.13510  0.77085  Biso   1.000  C
  C62      1.0000 0.56900  0.94070  0.86710  Biso   1.000  C
  H44      1.0000 0.54030  0.90300  0.87230  Biso   1.000  H
  C63      1.0000 0.59680  0.93530  0.84630  Biso   1.000  C
  H45      1.0000 0.58800  0.89640  0.83690  Biso   1.000  H
  O19      1.0000 0.20460  0.69420  0.28022  Biso   1.000  O
  O20      1.0000 0.26320  0.63060  0.25264  Biso   1.000  O
  C64      1.0000 0.13160  0.44970  0.37670  Biso   1.000  C
  H46      1.0000 0.14650  0.41630  0.38730  Biso   1.000  H
  C65      1.0000 0.16110  0.45070  0.35470  Biso   1.000  C
  H47      1.0000 0.19370  0.41460  0.35070  Biso   1.000  H
  C66      1.0000 0.19140  0.56540  0.30545  Biso   1.000  C
  H48      1.0000 0.18410  0.60860  0.31300  Biso   1.000  H
  C67      1.0000 0.21620  0.56660  0.28344  Biso   1.000  C
  C68      1.0000 0.22860  0.63510  0.27085  Biso   1.000  C
  C69      1.0000 0.06900  0.44070  0.36710  Biso   1.000  C
  H49      1.0000 0.04030  0.40300  0.37230  Biso   1.000  H
  C70      1.0000 0.09680  0.43530  0.34630  Biso   1.000  C
  H50      1.0000 0.08800  0.39640  0.33690  Biso   1.000  H
  O21      1.0000 0.29540  0.80580  0.78022  Biso   1.000  O
  O22      1.0000 0.23680  0.86940  0.75264  Biso   1.000  O
  C71      1.0000 0.36840  0.05030  0.87670  Biso   1.000  C
  H51      1.0000 0.35350  0.08370  0.88730  Biso   1.000  H
  C72      1.0000 0.33890  0.04930  0.85470  Biso   1.000  C
  H52      1.0000 0.30630  0.08540  0.85070  Biso   1.000  H
  C73      1.0000 0.30860  0.93460  0.80545  Biso   1.000  C
  H53      1.0000 0.31590  0.89140  0.81300  Biso   1.000  H
  C74      1.0000 0.28380  0.93340  0.78344  Biso   1.000  C
  C75      1.0000 0.27140  0.86490  0.77085  Biso   1.000  C
  C76      1.0000 0.43100  0.05930  0.86710  Biso   1.000  C
  H54      1.0000 0.45970  0.09700  0.87230  Biso   1.000  H
  C77      1.0000 0.40320  0.06470  0.84630  Biso   1.000  C
  H55      1.0000 0.41200  0.10360  0.83690  Biso   1.000  H
  O23      1.0000 0.79540  0.30580  0.28022  Biso   1.000  O
  O24      1.0000 0.73680  0.36940  0.25264  Biso   1.000  O
  C78      1.0000 0.86840  0.55030  0.37670  Biso   1.000  C
  H56      1.0000 0.85350  0.58370  0.38730  Biso   1.000  H
  C79      1.0000 0.83890  0.54930  0.35470  Biso   1.000  C
  H57      1.0000 0.80630  0.58540  0.35070  Biso   1.000  H
  C80      1.0000 0.80860  0.43460  0.30545  Biso   1.000  C
  H58      1.0000 0.81590  0.39140  0.31300  Biso   1.000  H
  C81      1.0000 0.78380  0.43340  0.28344  Biso   1.000  C
  C82      1.0000 0.77140  0.36490  0.27085  Biso   1.000  C
  C83      1.0000 0.93100  0.55930  0.36710  Biso   1.000  C
  H59      1.0000 0.95970  0.59700  0.37230  Biso   1.000  H
  C84      1.0000 0.90320  0.56470  0.34630  Biso   1.000  C
  H60      1.0000 0.91200  0.60360  0.33690  Biso   1.000  H
  O25      1.0000 0.19420  0.29540  0.78022  Biso   1.000  O
  O26      1.0000 0.13060  0.23680  0.75264  Biso   1.000  O
  C85      1.0000 0.94970  0.36840  0.87670  Biso   1.000  C
  H61      1.0000 0.91630  0.35350  0.88730  Biso   1.000  H
  C86      1.0000 0.95070  0.33890  0.85470  Biso   1.000  C
  H62      1.0000 0.91460  0.30630  0.85070  Biso   1.000  H
  C87      1.0000 0.06540  0.30860  0.80545  Biso   1.000  C
  H63      1.0000 0.10860  0.31590  0.81300  Biso   1.000  H
  C88      1.0000 0.06660  0.28380  0.78344  Biso   1.000  C
  C89      1.0000 0.13510  0.27140  0.77085  Biso   1.000  C
  C90      1.0000 0.94070  0.43100  0.86710  Biso   1.000  C
  H64      1.0000 0.90300  0.45970  0.87230  Biso   1.000  H
  C91      1.0000 0.93530  0.40320  0.84630  Biso   1.000  C
  H65      1.0000 0.89640  0.41200  0.83690  Biso   1.000  H
  O27      1.0000 0.69420  0.79540  0.28022  Biso   1.000  O
  O28      1.0000 0.63060  0.73680  0.25264  Biso   1.000  O
  C92      1.0000 0.44970  0.86840  0.37670  Biso   1.000  C
  H66      1.0000 0.41630  0.85350  0.38730  Biso   1.000  H
  C93      1.0000 0.45070  0.83890  0.35470  Biso   1.000  C
  H67      1.0000 0.41460  0.80630  0.35070  Biso   1.000  H
  C94      1.0000 0.56540  0.80860  0.30545  Biso   1.000  C
  H68      1.0000 0.60860  0.81590  0.31300  Biso   1.000  H
  C95      1.0000 0.56660  0.78380  0.28344  Biso   1.000  C
  C96      1.0000 0.63510  0.77140  0.27085  Biso   1.000  C
  C97      1.0000 0.44070  0.93100  0.36710  Biso   1.000  C
  H69      1.0000 0.40300  0.95970  0.37230  Biso   1.000  H
  C98      1.0000 0.43530  0.90320  0.34630  Biso   1.000  C
  H70      1.0000 0.39640  0.91200  0.33690  Biso   1.000  H
  O29      1.0000 0.80580  0.70460  0.78022  Biso   1.000  O
  O30      1.0000 0.86940  0.76320  0.75264  Biso   1.000  O
  C99      1.0000 0.05030  0.63160  0.87670  Biso   1.000  C
  H71      1.0000 0.08370  0.64650  0.88730  Biso   1.000  H
  C100     1.0000 0.04930  0.66110  0.85470  Biso   1.000  C
  H72      1.0000 0.08540  0.69370  0.85070  Biso   1.000  H
  C101     1.0000 0.93460  0.69140  0.80545  Biso   1.000  C
  H73      1.0000 0.89140  0.68410  0.81300  Biso   1.000  H
  C102     1.0000 0.93340  0.71620  0.78344  Biso   1.000  C
  C103     1.0000 0.86490  0.72860  0.77085  Biso   1.000  C
  C104     1.0000 0.05930  0.56900  0.86710  Biso   1.000  C
  H74      1.0000 0.09700  0.54030  0.87230  Biso   1.000  H
  C105     1.0000 0.06470  0.59680  0.84630  Biso   1.000  C
  H75      1.0000 0.10360  0.58800  0.83690  Biso   1.000  H
  O31      1.0000 0.30580  0.20460  0.28022  Biso   1.000  O
  O32      1.0000 0.36940  0.26320  0.25264  Biso   1.000  O
  C106     1.0000 0.55030  0.13160  0.37670  Biso   1.000  C
  H76      1.0000 0.58370  0.14650  0.38730  Biso   1.000  H
  C107     1.0000 0.54930  0.16110  0.35470  Biso   1.000  C
  H77      1.0000 0.58540  0.19370  0.35070  Biso   1.000  H
  C108     1.0000 0.43460  0.19140  0.30545  Biso   1.000  C
  H78      1.0000 0.39140  0.18410  0.31300  Biso   1.000  H
  C109     1.0000 0.43340  0.21620  0.28344  Biso   1.000  C
  C110     1.0000 0.36490  0.22860  0.27085  Biso   1.000  C
  C111     1.0000 0.55930  0.06900  0.36710  Biso   1.000  C
  H79      1.0000 0.59700  0.04030  0.37230  Biso   1.000  H
  C112     1.0000 0.56470  0.09680  0.34630  Biso   1.000  C
  H80      1.0000 0.60360  0.08800  0.33690  Biso   1.000  H
  O33      1.0000 0.70460  0.80580  0.78022  Biso   1.000  O
  O34      1.0000 0.76320  0.86940  0.75264  Biso   1.000  O
  C113     1.0000 0.63160  0.05030  0.87670  Biso   1.000  C
  H81      1.0000 0.64650  0.08370  0.88730  Biso   1.000  H
  C114     1.0000 0.66110  0.04930  0.85470  Biso   1.000  C
  H82      1.0000 0.69370  0.08540  0.85070  Biso   1.000  H
  C115     1.0000 0.69140  0.93460  0.80545  Biso   1.000  C
  H83      1.0000 0.68410  0.89140  0.81300  Biso   1.000  H
  C116     1.0000 0.71620  0.93340  0.78344  Biso   1.000  C
  C117     1.0000 0.72860  0.86490  0.77085  Biso   1.000  C
  C118     1.0000 0.56900  0.05930  0.86710  Biso   1.000  C
  H84      1.0000 0.54030  0.09700  0.87230  Biso   1.000  H
  C119     1.0000 0.59680  0.06470  0.84630  Biso   1.000  C
  H85      1.0000 0.58800  0.10360  0.83690  Biso   1.000  H
  O35      1.0000 0.20460  0.30580  0.28022  Biso   1.000  O
  O36      1.0000 0.26320  0.36940  0.25264  Biso   1.000  O
  C120     1.0000 0.13160  0.55030  0.37670  Biso   1.000  C
  H86      1.0000 0.14650  0.58370  0.38730  Biso   1.000  H
  C121     1.0000 0.16110  0.54930  0.35470  Biso   1.000  C
  H87      1.0000 0.19370  0.58540  0.35070  Biso   1.000  H
  C122     1.0000 0.19140  0.43460  0.30545  Biso   1.000  C
  H88      1.0000 0.18410  0.39140  0.31300  Biso   1.000  H
  C123     1.0000 0.21620  0.43340  0.28344  Biso   1.000  C
  C124     1.0000 0.22860  0.36490  0.27085  Biso   1.000  C
  C125     1.0000 0.06900  0.55930  0.36710  Biso   1.000  C
  H89      1.0000 0.04030  0.59700  0.37230  Biso   1.000  H
  C126     1.0000 0.09680  0.56470  0.34630  Biso   1.000  C
  H90      1.0000 0.08800  0.60360  0.33690  Biso   1.000  H
  O37      1.0000 0.29540  0.19420  0.78022  Biso   1.000  O
  O38      1.0000 0.23680  0.13060  0.75264  Biso   1.000  O
  C127     1.0000 0.36840  0.94970  0.87670  Biso   1.000  C
  H91      1.0000 0.35350  0.91630  0.88730  Biso   1.000  H
  C128     1.0000 0.33890  0.95070  0.85470  Biso   1.000  C
  H92      1.0000 0.30630  0.91460  0.85070  Biso   1.000  H
  C129     1.0000 0.30860  0.06540  0.80545  Biso   1.000  C
  H93      1.0000 0.31590  0.10860  0.81300  Biso   1.000  H
  C130     1.0000 0.28380  0.06660  0.78344  Biso   1.000  C
  C131     1.0000 0.27140  0.13510  0.77085  Biso   1.000  C
  C132     1.0000 0.43100  0.94070  0.86710  Biso   1.000  C
  H94      1.0000 0.45970  0.90300  0.87230  Biso   1.000  H
  C133     1.0000 0.40320  0.93530  0.84630  Biso   1.000  C
  H95      1.0000 0.41200  0.89640  0.83690  Biso   1.000  H
  O39      1.0000 0.79540  0.69420  0.28022  Biso   1.000  O
  O40      1.0000 0.73680  0.63060  0.25264  Biso   1.000  O
  C134     1.0000 0.86840  0.44970  0.37670  Biso   1.000  C
  H96      1.0000 0.85350  0.41630  0.38730  Biso   1.000  H
  C135     1.0000 0.83890  0.45070  0.35470  Biso   1.000  C
  H97      1.0000 0.80630  0.41460  0.35070  Biso   1.000  H
  C136     1.0000 0.80860  0.56540  0.30545  Biso   1.000  C
  H98      1.0000 0.81590  0.60860  0.31300  Biso   1.000  H
  C137     1.0000 0.78380  0.56660  0.28344  Biso   1.000  C
  C138     1.0000 0.77140  0.63510  0.27085  Biso   1.000  C
  C139     1.0000 0.93100  0.44070  0.36710  Biso   1.000  C
  H99      1.0000 0.95970  0.40300  0.37230  Biso   1.000  H
  C140     1.0000 0.90320  0.43530  0.34630  Biso   1.000  C
  H100     1.0000 0.91200  0.39640  0.33690  Biso   1.000  H
  O41      1.0000 0.19420  0.70460  0.78022  Biso   1.000  O
  O42      1.0000 0.13060  0.76320  0.75264  Biso   1.000  O
  C141     1.0000 0.94970  0.63160  0.87670  Biso   1.000  C
  H101     1.0000 0.91630  0.64650  0.88730  Biso   1.000  H
  C142     1.0000 0.95070  0.66110  0.85470  Biso   1.000  C
  H102     1.0000 0.91460  0.69370  0.85070  Biso   1.000  H
  C143     1.0000 0.06540  0.69140  0.80545  Biso   1.000  C
  H103     1.0000 0.10860  0.68410  0.81300  Biso   1.000  H
  C144     1.0000 0.06660  0.71620  0.78344  Biso   1.000  C
  C145     1.0000 0.13510  0.72860  0.77085  Biso   1.000  C
  C146     1.0000 0.94070  0.56900  0.86710  Biso   1.000  C
  H104     1.0000 0.90300  0.54030  0.87230  Biso   1.000  H
  C147     1.0000 0.93530  0.59680  0.84630  Biso   1.000  C
  H105     1.0000 0.89640  0.58800  0.83690  Biso   1.000  H
  O43      1.0000 0.69420  0.20460  0.28022  Biso   1.000  O
  O44      1.0000 0.63060  0.26320  0.25264  Biso   1.000  O
  C148     1.0000 0.44970  0.13160  0.37670  Biso   1.000  C
  H106     1.0000 0.41630  0.14650  0.38730  Biso   1.000  H
  C149     1.0000 0.45070  0.16110  0.35470  Biso   1.000  C
  H107     1.0000 0.41460  0.19370  0.35070  Biso   1.000  H
  C150     1.0000 0.56540  0.19140  0.30545  Biso   1.000  C
  H108     1.0000 0.60860  0.18410  0.31300  Biso   1.000  H
  C151     1.0000 0.56660  0.21620  0.28344  Biso   1.000  C
  C152     1.0000 0.63510  0.22860  0.27085  Biso   1.000  C
  C153     1.0000 0.44070  0.06900  0.36710  Biso   1.000  C
  H109     1.0000 0.40300  0.04030  0.37230  Biso   1.000  H
  C154     1.0000 0.43530  0.09680  0.34630  Biso   1.000  C
  H110     1.0000 0.39640  0.08800  0.33690  Biso   1.000  H
  O45      1.0000 0.80580  0.29540  0.78022  Biso   1.000  O
  O46      1.0000 0.86940  0.23680  0.75264  Biso   1.000  O
  C155     1.0000 0.05030  0.36840  0.87670  Biso   1.000  C
  H111     1.0000 0.08370  0.35350  0.88730  Biso   1.000  H
  C156     1.0000 0.04930  0.33890  0.85470  Biso   1.000  C
  H112     1.0000 0.08540  0.30630  0.85070  Biso   1.000  H
  C157     1.0000 0.93460  0.30860  0.80545  Biso   1.000  C
  H113     1.0000 0.89140  0.31590  0.81300  Biso   1.000  H
  C158     1.0000 0.93340  0.28380  0.78344  Biso   1.000  C
  C159     1.0000 0.86490  0.27140  0.77085  Biso   1.000  C
  C160     1.0000 0.05930  0.43100  0.86710  Biso   1.000  C
  H114     1.0000 0.09700  0.45970  0.87230  Biso   1.000  H
  C161     1.0000 0.06470  0.40320  0.84630  Biso   1.000  C
  H115     1.0000 0.10360  0.41200  0.83690  Biso   1.000  H
  O47      1.0000 0.30580  0.79540  0.28022  Biso   1.000  O
  O48      1.0000 0.36940  0.73680  0.25264  Biso   1.000  O
  C162     1.0000 0.55030  0.86840  0.37670  Biso   1.000  C
  H116     1.0000 0.58370  0.85350  0.38730  Biso   1.000  H
  C163     1.0000 0.54930  0.83890  0.35470  Biso   1.000  C
  H117     1.0000 0.58540  0.80630  0.35070  Biso   1.000  H
  C164     1.0000 0.43460  0.80860  0.30545  Biso   1.000  C
  H118     1.0000 0.39140  0.81590  0.31300  Biso   1.000  H
  C165     1.0000 0.43340  0.78380  0.28344  Biso   1.000  C
  C166     1.0000 0.36490  0.77140  0.27085  Biso   1.000  C
  C167     1.0000 0.55930  0.93100  0.36710  Biso   1.000  C
  H119     1.0000 0.59700  0.95970  0.37230  Biso   1.000  H
  C168     1.0000 0.56470  0.90320  0.34630  Biso   1.000  C
  H120     1.0000 0.60360  0.91200  0.33690  Biso   1.000  H
  O49      1.0000 0.29540  0.80580  0.21978  Biso   1.000  O
  O50      1.0000 0.23680  0.86940  0.24736  Biso   1.000  O
  C169     1.0000 0.36840  0.05030  0.12330  Biso   1.000  C
  H121     1.0000 0.35350  0.08370  0.11270  Biso   1.000  H
  C170     1.0000 0.33890  0.04930  0.14530  Biso   1.000  C
  H122     1.0000 0.30630  0.08540  0.14930  Biso   1.000  H
  C171     1.0000 0.30860  0.93460  0.19455  Biso   1.000  C
  H123     1.0000 0.31590  0.89140  0.18700  Biso   1.000  H
  C172     1.0000 0.28380  0.93340  0.21656  Biso   1.000  C
  C173     1.0000 0.27140  0.86490  0.22915  Biso   1.000  C
  C174     1.0000 0.43100  0.05930  0.13290  Biso   1.000  C
  H124     1.0000 0.45970  0.09700  0.12770  Biso   1.000  H
  C175     1.0000 0.40320  0.06470  0.15370  Biso   1.000  C
  H125     1.0000 0.41200  0.10360  0.16310  Biso   1.000  H
  O51      1.0000 0.79540  0.30580  0.71978  Biso   1.000  O
  O52      1.0000 0.73680  0.36940  0.74736  Biso   1.000  O
  C176     1.0000 0.86840  0.55030  0.62330  Biso   1.000  C
  H126     1.0000 0.85350  0.58370  0.61270  Biso   1.000  H
  C177     1.0000 0.83890  0.54930  0.64530  Biso   1.000  C
  H127     1.0000 0.80630  0.58540  0.64930  Biso   1.000  H
  C178     1.0000 0.80860  0.43460  0.69455  Biso   1.000  C
  H128     1.0000 0.81590  0.39140  0.68700  Biso   1.000  H
  C179     1.0000 0.78380  0.43340  0.71656  Biso   1.000  C
  C180     1.0000 0.77140  0.36490  0.72915  Biso   1.000  C
  C181     1.0000 0.93100  0.55930  0.63290  Biso   1.000  C
  H129     1.0000 0.95970  0.59700  0.62770  Biso   1.000  H
  C182     1.0000 0.90320  0.56470  0.65370  Biso   1.000  C
  H130     1.0000 0.91200  0.60360  0.66310  Biso   1.000  H
  O53      1.0000 0.70460  0.19420  0.21978  Biso   1.000  O
  O54      1.0000 0.76320  0.13060  0.24736  Biso   1.000  O
  C183     1.0000 0.63160  0.94970  0.12330  Biso   1.000  C
  H131     1.0000 0.64650  0.91630  0.11270  Biso   1.000  H
  C184     1.0000 0.66110  0.95070  0.14530  Biso   1.000  C
  H132     1.0000 0.69370  0.91460  0.14930  Biso   1.000  H
  C185     1.0000 0.69140  0.06540  0.19455  Biso   1.000  C
  H133     1.0000 0.68410  0.10860  0.18700  Biso   1.000  H
  C186     1.0000 0.71620  0.06660  0.21656  Biso   1.000  C
  C187     1.0000 0.72860  0.13510  0.22915  Biso   1.000  C
  C188     1.0000 0.56900  0.94070  0.13290  Biso   1.000  C
  H134     1.0000 0.54030  0.90300  0.12770  Biso   1.000  H
  C189     1.0000 0.59680  0.93530  0.15370  Biso   1.000  C
  H135     1.0000 0.58800  0.89640  0.16310  Biso   1.000  H
  O55      1.0000 0.20460  0.69420  0.71978  Biso   1.000  O
  O56      1.0000 0.26320  0.63060  0.74736  Biso   1.000  O
  C190     1.0000 0.13160  0.44970  0.62330  Biso   1.000  C
  H136     1.0000 0.14650  0.41630  0.61270  Biso   1.000  H
  C191     1.0000 0.16110  0.45070  0.64530  Biso   1.000  C
  H137     1.0000 0.19370  0.41460  0.64930  Biso   1.000  H
  C192     1.0000 0.19140  0.56540  0.69455  Biso   1.000  C
  H138     1.0000 0.18410  0.60860  0.68700  Biso   1.000  H
  C193     1.0000 0.21620  0.56660  0.71656  Biso   1.000  C
  C194     1.0000 0.22860  0.63510  0.72915  Biso   1.000  C
  C195     1.0000 0.06900  0.44070  0.63290  Biso   1.000  C
  H139     1.0000 0.04030  0.40300  0.62770  Biso   1.000  H
  C196     1.0000 0.09680  0.43530  0.65370  Biso   1.000  C
  H140     1.0000 0.08800  0.39640  0.66310  Biso   1.000  H
  O57      1.0000 0.80580  0.70460  0.21978  Biso   1.000  O
  O58      1.0000 0.86940  0.76320  0.24736  Biso   1.000  O
  C197     1.0000 0.05030  0.63160  0.12330  Biso   1.000  C
  H141     1.0000 0.08370  0.64650  0.11270  Biso   1.000  H
  C198     1.0000 0.04930  0.66110  0.14530  Biso   1.000  C
  H142     1.0000 0.08540  0.69370  0.14930  Biso   1.000  H
  C199     1.0000 0.93460  0.69140  0.19455  Biso   1.000  C
  H143     1.0000 0.89140  0.68410  0.18700  Biso   1.000  H
  C200     1.0000 0.93340  0.71620  0.21656  Biso   1.000  C
  C201     1.0000 0.86490  0.72860  0.22915  Biso   1.000  C
  C202     1.0000 0.05930  0.56900  0.13290  Biso   1.000  C
  H144     1.0000 0.09700  0.54030  0.12770  Biso   1.000  H
  C203     1.0000 0.06470  0.59680  0.15370  Biso   1.000  C
  H145     1.0000 0.10360  0.58800  0.16310  Biso   1.000  H
  O59      1.0000 0.30580  0.20460  0.71978  Biso   1.000  O
  O60      1.0000 0.36940  0.26320  0.74736  Biso   1.000  O
  C204     1.0000 0.55030  0.13160  0.62330  Biso   1.000  C
  H146     1.0000 0.58370  0.14650  0.61270  Biso   1.000  H
  C205     1.0000 0.54930  0.16110  0.64530  Biso   1.000  C
  H147     1.0000 0.58540  0.19370  0.64930  Biso   1.000  H
  C206     1.0000 0.43460  0.19140  0.69455  Biso   1.000  C
  H148     1.0000 0.39140  0.18410  0.68700  Biso   1.000  H
  C207     1.0000 0.43340  0.21620  0.71656  Biso   1.000  C
  C208     1.0000 0.36490  0.22860  0.72915  Biso   1.000  C
  C209     1.0000 0.55930  0.06900  0.63290  Biso   1.000  C
  H149     1.0000 0.59700  0.04030  0.62770  Biso   1.000  H
  C210     1.0000 0.56470  0.09680  0.65370  Biso   1.000  C
  H150     1.0000 0.60360  0.08800  0.66310  Biso   1.000  H
  O61      1.0000 0.19420  0.29540  0.21978  Biso   1.000  O
  O62      1.0000 0.13060  0.23680  0.24736  Biso   1.000  O
  C211     1.0000 0.94970  0.36840  0.12330  Biso   1.000  C
  H151     1.0000 0.91630  0.35350  0.11270  Biso   1.000  H
  C212     1.0000 0.95070  0.33890  0.14530  Biso   1.000  C
  H152     1.0000 0.91460  0.30630  0.14930  Biso   1.000  H
  C213     1.0000 0.06540  0.30860  0.19455  Biso   1.000  C
  H153     1.0000 0.10860  0.31590  0.18700  Biso   1.000  H
  C214     1.0000 0.06660  0.28380  0.21656  Biso   1.000  C
  C215     1.0000 0.13510  0.27140  0.22915  Biso   1.000  C
  C216     1.0000 0.94070  0.43100  0.13290  Biso   1.000  C
  H154     1.0000 0.90300  0.45970  0.12770  Biso   1.000  H
  C217     1.0000 0.93530  0.40320  0.15370  Biso   1.000  C
  H155     1.0000 0.89640  0.41200  0.16310  Biso   1.000  H
  O63      1.0000 0.69420  0.79540  0.71978  Biso   1.000  O
  O64      1.0000 0.63060  0.73680  0.74736  Biso   1.000  O
  C218     1.0000 0.44970  0.86840  0.62330  Biso   1.000  C
  H156     1.0000 0.41630  0.85350  0.61270  Biso   1.000  H
  C219     1.0000 0.45070  0.83890  0.64530  Biso   1.000  C
  H157     1.0000 0.41460  0.80630  0.64930  Biso   1.000  H
  C220     1.0000 0.56540  0.80860  0.69455  Biso   1.000  C
  H158     1.0000 0.60860  0.81590  0.68700  Biso   1.000  H
  C221     1.0000 0.56660  0.78380  0.71656  Biso   1.000  C
  C222     1.0000 0.63510  0.77140  0.72915  Biso   1.000  C
  C223     1.0000 0.44070  0.93100  0.63290  Biso   1.000  C
  H159     1.0000 0.40300  0.95970  0.62770  Biso   1.000  H
  C224     1.0000 0.43530  0.90320  0.65370  Biso   1.000  C
  H160     1.0000 0.39640  0.91200  0.66310  Biso   1.000  H
  Cu1      1.0000 0.28583  0.28583  0.23409  Biso   1.000  Cu
  Cu2      1.0000 0.78583  0.78583  0.73409  Biso   1.000  Cu
  Cu3      1.0000 0.71417  0.71417  0.23409  Biso   1.000  Cu
  Cu4      1.0000 0.21417  0.21417  0.73409  Biso   1.000  Cu
  Cu5      1.0000 0.71417  0.28583  0.23409  Biso   1.000  Cu
  Cu6      1.0000 0.21417  0.78583  0.73409  Biso   1.000  Cu
  Cu7      1.0000 0.28583  0.71417  0.23409  Biso   1.000  Cu
  Cu8      1.0000 0.78583  0.21417  0.73409  Biso   1.000  Cu
  Cu9      1.0000 0.71417  0.28583  0.76591  Biso   1.000  Cu
  Cu10     1.0000 0.21417  0.78583  0.26591  Biso   1.000  Cu
  Cu11     1.0000 0.28583  0.71417  0.76591  Biso   1.000  Cu
  Cu12     1.0000 0.78583  0.21417  0.26591  Biso   1.000  Cu
  Cu13     1.0000 0.28583  0.28583  0.76591  Biso   1.000  Cu
  Cu14     1.0000 0.78583  0.78583  0.26591  Biso   1.000  Cu
  Cu15     1.0000 0.71417  0.71417  0.76591  Biso   1.000  Cu
  Cu16     1.0000 0.21417  0.21417  0.26591  Biso   1.000  Cu
  O65      1.0000 0.42710  0.00000  0.00000  Biso   1.000  O
  O66      1.0000 0.92710  0.50000  0.50000  Biso   1.000  O
  O67      1.0000 0.57290  0.00000  0.00000  Biso   1.000  O
  O68      1.0000 0.07290  0.50000  0.50000  Biso   1.000  O
  O69      1.0000 0.00000  0.42710  0.00000  Biso   1.000  O
  O70      1.0000 0.50000  0.92710  0.50000  Biso   1.000  O
  O71      1.0000 0.00000  0.57290  0.00000  Biso   1.000  O
  O72      1.0000 0.50000  0.07290  0.50000  Biso   1.000  O
  N1       1.0000 0.42390  0.00000  0.07823  Biso   1.000  N
  C225     1.0000 0.46180  0.00000  0.02029  Biso   1.000  C
  C226     1.0000 0.42680  0.00000  0.03955  Biso   1.000  C
  H161     1.0000 0.37650  0.00000  0.03960  Biso   1.000  H
  C227     1.0000 0.46360  0.00000  0.05926  Biso   1.000  C
  C228     1.0000 0.46200  0.00000  0.09717  Biso   1.000  C
  C229     1.0000 0.41890  0.00000  0.11890  Biso   1.000  C
  C230     1.0000 0.35590  0.00000  0.16005  Biso   1.000  C
  C231     1.0000 0.32230  0.00000  0.18396  Biso   1.000  C
  C232     1.0000 0.26990  0.00000  0.22720  Biso   1.000  C
  H162     1.0000 0.25120  0.00000  0.24160  Biso   1.000  H
  N2       1.0000 0.92390  0.50000  0.57823  Biso   1.000  N
  C233     1.0000 0.96180  0.50000  0.52029  Biso   1.000  C
  C234     1.0000 0.92680  0.50000  0.53955  Biso   1.000  C
  H163     1.0000 0.87650  0.50000  0.53960  Biso   1.000  H
  C235     1.0000 0.96360  0.50000  0.55926  Biso   1.000  C
  C236     1.0000 0.96200  0.50000  0.59717  Biso   1.000  C
  C237     1.0000 0.91890  0.50000  0.61890  Biso   1.000  C
  C238     1.0000 0.85590  0.50000  0.66005  Biso   1.000  C
  C239     1.0000 0.82230  0.50000  0.68396  Biso   1.000  C
  C240     1.0000 0.76990  0.50000  0.72720  Biso   1.000  C
  H164     1.0000 0.75120  0.50000  0.74160  Biso   1.000  H
  N3       1.0000 0.57610  0.00000  0.07823  Biso   1.000  N
  C241     1.0000 0.53820  0.00000  0.02029  Biso   1.000  C
  C242     1.0000 0.57320  0.00000  0.03955  Biso   1.000  C
  H165     1.0000 0.62350  0.00000  0.03960  Biso   1.000  H
  C243     1.0000 0.53640  0.00000  0.05926  Biso   1.000  C
  C244     1.0000 0.53800  0.00000  0.09717  Biso   1.000  C
  C245     1.0000 0.58110  0.00000  0.11890  Biso   1.000  C
  C246     1.0000 0.64410  0.00000  0.16005  Biso   1.000  C
  C247     1.0000 0.67770  0.00000  0.18396  Biso   1.000  C
  C248     1.0000 0.73010  0.00000  0.22720  Biso   1.000  C
  H166     1.0000 0.74880  0.00000  0.24160  Biso   1.000  H
  N4       1.0000 0.07610  0.50000  0.57823  Biso   1.000  N
  C249     1.0000 0.03820  0.50000  0.52029  Biso   1.000  C
  C250     1.0000 0.07320  0.50000  0.53955  Biso   1.000  C
  H167     1.0000 0.12350  0.50000  0.53960  Biso   1.000  H
  C251     1.0000 0.03640  0.50000  0.55926  Biso   1.000  C
  C252     1.0000 0.03800  0.50000  0.59717  Biso   1.000  C
  C253     1.0000 0.08110  0.50000  0.61890  Biso   1.000  C
  C254     1.0000 0.14410  0.50000  0.66005  Biso   1.000  C
  C255     1.0000 0.17770  0.50000  0.68396  Biso   1.000  C
  C256     1.0000 0.23010  0.50000  0.72720  Biso   1.000  C
  H168     1.0000 0.24880  0.50000  0.74160  Biso   1.000  H
  N5       1.0000 0.00000  0.42390  0.07823  Biso   1.000  N
  C257     1.0000 0.00000  0.46180  0.02029  Biso   1.000  C
  C258     1.0000 0.00000  0.42680  0.03955  Biso   1.000  C
  H169     1.0000 0.00000  0.37650  0.03960  Biso   1.000  H
  C259     1.0000 0.00000  0.46360  0.05926  Biso   1.000  C
  C260     1.0000 0.00000  0.46200  0.09717  Biso   1.000  C
  C261     1.0000 0.00000  0.41890  0.11890  Biso   1.000  C
  C262     1.0000 0.00000  0.35590  0.16005  Biso   1.000  C
  C263     1.0000 0.00000  0.32230  0.18396  Biso   1.000  C
  C264     1.0000 0.00000  0.26990  0.22720  Biso   1.000  C
  H170     1.0000 0.00000  0.25120  0.24160  Biso   1.000  H
  N6       1.0000 0.50000  0.92390  0.57823  Biso   1.000  N
  C265     1.0000 0.50000  0.96180  0.52029  Biso   1.000  C
  C266     1.0000 0.50000  0.92680  0.53955  Biso   1.000  C
  H171     1.0000 0.50000  0.87650  0.53960  Biso   1.000  H
  C267     1.0000 0.50000  0.96360  0.55926  Biso   1.000  C
  C268     1.0000 0.50000  0.96200  0.59717  Biso   1.000  C
  C269     1.0000 0.50000  0.91890  0.61890  Biso   1.000  C
  C270     1.0000 0.50000  0.85590  0.66005  Biso   1.000  C
  C271     1.0000 0.50000  0.82230  0.68396  Biso   1.000  C
  C272     1.0000 0.50000  0.76990  0.72720  Biso   1.000  C
  H172     1.0000 0.50000  0.75120  0.74160  Biso   1.000  H
  N7       1.0000 0.00000  0.57610  0.07823  Biso   1.000  N
  C273     1.0000 0.00000  0.53820  0.02029  Biso   1.000  C
  C274     1.0000 0.00000  0.57320  0.03955  Biso   1.000  C
  H173     1.0000 0.00000  0.62350  0.03960  Biso   1.000  H
  C275     1.0000 0.00000  0.53640  0.05926  Biso   1.000  C
  C276     1.0000 0.00000  0.53800  0.09717  Biso   1.000  C
  C277     1.0000 0.00000  0.58110  0.11890  Biso   1.000  C
  C278     1.0000 0.00000  0.64410  0.16005  Biso   1.000  C
  C279     1.0000 0.00000  0.67770  0.18396  Biso   1.000  C
  C280     1.0000 0.00000  0.73010  0.22720  Biso   1.000  C
  H174     1.0000 0.00000  0.74880  0.24160  Biso   1.000  H
  N8       1.0000 0.50000  0.07610  0.57823  Biso   1.000  N
  C281     1.0000 0.50000  0.03820  0.52029  Biso   1.000  C
  C282     1.0000 0.50000  0.07320  0.53955  Biso   1.000  C
  H175     1.0000 0.50000  0.12350  0.53960  Biso   1.000  H
  C283     1.0000 0.50000  0.03640  0.55926  Biso   1.000  C
  C284     1.0000 0.50000  0.03800  0.59717  Biso   1.000  C
  C285     1.0000 0.50000  0.08110  0.61890  Biso   1.000  C
  C286     1.0000 0.50000  0.14410  0.66005  Biso   1.000  C
  C287     1.0000 0.50000  0.17770  0.68396  Biso   1.000  C
  C288     1.0000 0.50000  0.23010  0.72720  Biso   1.000  C
  H176     1.0000 0.50000  0.24880  0.74160  Biso   1.000  H
  N9       1.0000 0.57610  0.00000  0.92177  Biso   1.000  N
  C289     1.0000 0.53820  0.00000  0.97971  Biso   1.000  C
  C290     1.0000 0.57320  0.00000  0.96045  Biso   1.000  C
  H177     1.0000 0.62350  0.00000  0.96040  Biso   1.000  H
  C291     1.0000 0.53640  0.00000  0.94074  Biso   1.000  C
  C292     1.0000 0.53800  0.00000  0.90283  Biso   1.000  C
  C293     1.0000 0.58110  0.00000  0.88110  Biso   1.000  C
  C294     1.0000 0.64410  0.00000  0.83995  Biso   1.000  C
  C295     1.0000 0.67770  0.00000  0.81604  Biso   1.000  C
  C296     1.0000 0.73010  0.00000  0.77280  Biso   1.000  C
  H178     1.0000 0.74880  0.00000  0.75840  Biso   1.000  H
  N10      1.0000 0.07610  0.50000  0.42177  Biso   1.000  N
  C297     1.0000 0.03820  0.50000  0.47971  Biso   1.000  C
  C298     1.0000 0.07320  0.50000  0.46045  Biso   1.000  C
  H179     1.0000 0.12350  0.50000  0.46040  Biso   1.000  H
  C299     1.0000 0.03640  0.50000  0.44074  Biso   1.000  C
  C300     1.0000 0.03800  0.50000  0.40283  Biso   1.000  C
  C301     1.0000 0.08110  0.50000  0.38110  Biso   1.000  C
  C302     1.0000 0.14410  0.50000  0.33995  Biso   1.000  C
  C303     1.0000 0.17770  0.50000  0.31604  Biso   1.000  C
  C304     1.0000 0.23010  0.50000  0.27280  Biso   1.000  C
  H180     1.0000 0.24880  0.50000  0.25840  Biso   1.000  H
  N11      1.0000 0.42390  0.00000  0.92177  Biso   1.000  N
  C305     1.0000 0.46180  0.00000  0.97971  Biso   1.000  C
  C306     1.0000 0.42680  0.00000  0.96045  Biso   1.000  C
  H181     1.0000 0.37650  0.00000  0.96040  Biso   1.000  H
  C307     1.0000 0.46360  0.00000  0.94074  Biso   1.000  C
  C308     1.0000 0.46200  0.00000  0.90283  Biso   1.000  C
  C309     1.0000 0.41890  0.00000  0.88110  Biso   1.000  C
  C310     1.0000 0.35590  0.00000  0.83995  Biso   1.000  C
  C311     1.0000 0.32230  0.00000  0.81604  Biso   1.000  C
  C312     1.0000 0.26990  0.00000  0.77280  Biso   1.000  C
  H182     1.0000 0.25120  0.00000  0.75840  Biso   1.000  H
  N12      1.0000 0.92390  0.50000  0.42177  Biso   1.000  N
  C313     1.0000 0.96180  0.50000  0.47971  Biso   1.000  C
  C314     1.0000 0.92680  0.50000  0.46045  Biso   1.000  C
  H183     1.0000 0.87650  0.50000  0.46040  Biso   1.000  H
  C315     1.0000 0.96360  0.50000  0.44074  Biso   1.000  C
  C316     1.0000 0.96200  0.50000  0.40283  Biso   1.000  C
  C317     1.0000 0.91890  0.50000  0.38110  Biso   1.000  C
  C318     1.0000 0.85590  0.50000  0.33995  Biso   1.000  C
  C319     1.0000 0.82230  0.50000  0.31604  Biso   1.000  C
  C320     1.0000 0.76990  0.50000  0.27280  Biso   1.000  C
  H184     1.0000 0.75120  0.50000  0.25840  Biso   1.000  H
  N13      1.0000 0.00000  0.42390  0.92177  Biso   1.000  N
  C321     1.0000 0.00000  0.46180  0.97971  Biso   1.000  C
  C322     1.0000 0.00000  0.42680  0.96045  Biso   1.000  C
  H185     1.0000 0.00000  0.37650  0.96040  Biso   1.000  H
  C323     1.0000 0.00000  0.46360  0.94074  Biso   1.000  C
  C324     1.0000 0.00000  0.46200  0.90283  Biso   1.000  C
  C325     1.0000 0.00000  0.41890  0.88110  Biso   1.000  C
  C326     1.0000 0.00000  0.35590  0.83995  Biso   1.000  C
  C327     1.0000 0.00000  0.32230  0.81604  Biso   1.000  C
  C328     1.0000 0.00000  0.26990  0.77280  Biso   1.000  C
  H186     1.0000 0.00000  0.25120  0.75840  Biso   1.000  H
  N14      1.0000 0.50000  0.92390  0.42177  Biso   1.000  N
  C329     1.0000 0.50000  0.96180  0.47971  Biso   1.000  C
  C330     1.0000 0.50000  0.92680  0.46045  Biso   1.000  C
  H187     1.0000 0.50000  0.87650  0.46040  Biso   1.000  H
  C331     1.0000 0.50000  0.96360  0.44074  Biso   1.000  C
  C332     1.0000 0.50000  0.96200  0.40283  Biso   1.000  C
  C333     1.0000 0.50000  0.91890  0.38110  Biso   1.000  C
  C334     1.0000 0.50000  0.85590  0.33995  Biso   1.000  C
  C335     1.0000 0.50000  0.82230  0.31604  Biso   1.000  C
  C336     1.0000 0.50000  0.76990  0.27280  Biso   1.000  C
  H188     1.0000 0.50000  0.75120  0.25840  Biso   1.000  H
  N15      1.0000 0.00000  0.57610  0.92177  Biso   1.000  N
  C337     1.0000 0.00000  0.53820  0.97971  Biso   1.000  C
  C338     1.0000 0.00000  0.57320  0.96045  Biso   1.000  C
  H189     1.0000 0.00000  0.62350  0.96040  Biso   1.000  H
  C339     1.0000 0.00000  0.53640  0.94074  Biso   1.000  C
  C340     1.0000 0.00000  0.53800  0.90283  Biso   1.000  C
  C341     1.0000 0.00000  0.58110  0.88110  Biso   1.000  C
  C342     1.0000 0.00000  0.64410  0.83995  Biso   1.000  C
  C343     1.0000 0.00000  0.67770  0.81604  Biso   1.000  C
  C344     1.0000 0.00000  0.73010  0.77280  Biso   1.000  C
  H190     1.0000 0.00000  0.74880  0.75840  Biso   1.000  H
  N16      1.0000 0.50000  0.07610  0.42177  Biso   1.000  N
  C345     1.0000 0.50000  0.03820  0.47971  Biso   1.000  C
  C346     1.0000 0.50000  0.07320  0.46045  Biso   1.000  C
  H191     1.0000 0.50000  0.12350  0.46040  Biso   1.000  H
  C347     1.0000 0.50000  0.03640  0.44074  Biso   1.000  C
  C348     1.0000 0.50000  0.03800  0.40283  Biso   1.000  C
  C349     1.0000 0.50000  0.08110  0.38110  Biso   1.000  C
  C350     1.0000 0.50000  0.14410  0.33995  Biso   1.000  C
  C351     1.0000 0.50000  0.17770  0.31604  Biso   1.000  C
  C352     1.0000 0.50000  0.23010  0.27280  Biso   1.000  C
  H192     1.0000 0.50000  0.24880  0.25840  Biso   1.000  H
