data_image0
_cell_length_a       52.1749
_cell_length_b       52.1749
_cell_length_c       10.0229
_cell_angle_alpha    90
_cell_angle_beta     90
_cell_angle_gamma    90

_symmetry_space_group_name_H-M    "P 1"
_symmetry_int_tables_number       1

loop_
  _symmetry_equiv_pos_as_xyz
  'x, y, z'

loop_
  _atom_site_label
  _atom_site_occupancy
  _atom_site_fract_x
  _atom_site_fract_y
  _atom_site_fract_z
  _atom_site_thermal_displace_type
  _atom_site_B_iso_or_equiv
  _atom_site_type_symbol
  Zn1      1.0000 0.53128  0.31047  0.03708  Biso   1.000  Zn
  Zn2      1.0000 0.61162  0.39036  0.04589  Biso   1.000  Zn
  Zn3      1.0000 0.67968  0.40601  0.20159  Biso   1.000  Zn
  P1       1.0000 0.72018  0.44956  0.15590  Biso   1.000  P
  P2       1.0000 0.56285  0.35796  0.08760  Biso   1.000  P
  P3       1.0000 0.50619  0.29934  0.76250  Biso   1.000  P
  P4       1.0000 0.62575  0.42659  0.27330  Biso   1.000  P
  P5       1.0000 0.66546  0.36624  0.98370  Biso   1.000  P
  O1       1.0000 0.74923  0.45020  0.17260  Biso   1.000  O
  O2       1.0000 0.71158  0.45226  0.01050  Biso   1.000  O
  O3       1.0000 0.71061  0.42515  0.21190  Biso   1.000  O
  O4       1.0000 0.54770  0.34205  0.99070  Biso   1.000  O
  O5       1.0000 0.57751  0.34219  0.18270  Biso   1.000  O
  O6       1.0000 0.57870  0.37510  0.00390  Biso   1.000  O
  O7       1.0000 0.50537  0.30090  0.91430  Biso   1.000  O
  O8       1.0000 0.53221  0.30579  0.70320  Biso   1.000  O
  O9       1.0000 0.48449  0.31622  0.70850  Biso   1.000  O
  O10      1.0000 0.65053  0.42940  0.19740  Biso   1.000  O
  O11      1.0000 0.60981  0.40444  0.22610  Biso   1.000  O
  O12      1.0000 0.62820  0.42520  0.42050  Biso   1.000  O
  O13      1.0000 0.63790  0.36460  0.04100  Biso   1.000  O
  O14      1.0000 0.66660  0.36490  0.83730  Biso   1.000  O
  O15      1.0000 0.67970  0.38960  0.02700  Biso   1.000  O
  H1       1.0000 0.70930  0.46890  0.23210  Biso   1.000  H
  H2       1.0000 0.54880  0.36090  0.17320  Biso   1.000  H
  H3       1.0000 0.49060  0.27800  0.74520  Biso   1.000  H
  H4       1.0000 0.61550  0.45140  0.26260  Biso   1.000  H
  H5       1.0000 0.68330  0.35030  0.05300  Biso   1.000  H
  Zn4      1.0000 0.03128  0.81047  0.53708  Biso   1.000  Zn
  Zn5      1.0000 0.11162  0.89036  0.54589  Biso   1.000  Zn
  Zn6      1.0000 0.17968  0.90601  0.70159  Biso   1.000  Zn
  P6       1.0000 0.22018  0.94956  0.65590  Biso   1.000  P
  P7       1.0000 0.06285  0.85796  0.58760  Biso   1.000  P
  P8       1.0000 0.00619  0.79934  0.26250  Biso   1.000  P
  P9       1.0000 0.12575  0.92659  0.77330  Biso   1.000  P
  P10      1.0000 0.16546  0.86624  0.48370  Biso   1.000  P
  O16      1.0000 0.24923  0.95020  0.67260  Biso   1.000  O
  O17      1.0000 0.21158  0.95226  0.51050  Biso   1.000  O
  O18      1.0000 0.21061  0.92515  0.71190  Biso   1.000  O
  O19      1.0000 0.04770  0.84205  0.49070  Biso   1.000  O
  O20      1.0000 0.07751  0.84219  0.68270  Biso   1.000  O
  O21      1.0000 0.07870  0.87510  0.50390  Biso   1.000  O
  O22      1.0000 0.00537  0.80090  0.41430  Biso   1.000  O
  O23      1.0000 0.03221  0.80579  0.20320  Biso   1.000  O
  O24      1.0000 0.98449  0.81622  0.20850  Biso   1.000  O
  O25      1.0000 0.15053  0.92940  0.69740  Biso   1.000  O
  O26      1.0000 0.10981  0.90444  0.72610  Biso   1.000  O
  O27      1.0000 0.12820  0.92520  0.92050  Biso   1.000  O
  O28      1.0000 0.13790  0.86460  0.54100  Biso   1.000  O
  O29      1.0000 0.16660  0.86490  0.33730  Biso   1.000  O
  O30      1.0000 0.17970  0.88960  0.52700  Biso   1.000  O
  H6       1.0000 0.20930  0.96890  0.73210  Biso   1.000  H
  H7       1.0000 0.04880  0.86090  0.67320  Biso   1.000  H
  H8       1.0000 0.99060  0.77800  0.24520  Biso   1.000  H
  H9       1.0000 0.11550  0.95140  0.76260  Biso   1.000  H
  H10      1.0000 0.18330  0.85030  0.55300  Biso   1.000  H
  Zn7      1.0000 0.96872  0.68953  0.53708  Biso   1.000  Zn
  Zn8      1.0000 0.88838  0.60964  0.54589  Biso   1.000  Zn
  Zn9      1.0000 0.82032  0.59399  0.70159  Biso   1.000  Zn
  P11      1.0000 0.77982  0.55044  0.65590  Biso   1.000  P
  P12      1.0000 0.93715  0.64204  0.58760  Biso   1.000  P
  P13      1.0000 0.99381  0.70066  0.26250  Biso   1.000  P
  P14      1.0000 0.87425  0.57341  0.77330  Biso   1.000  P
  P15      1.0000 0.83454  0.63376  0.48370  Biso   1.000  P
  O31      1.0000 0.75077  0.54980  0.67260  Biso   1.000  O
  O32      1.0000 0.78842  0.54774  0.51050  Biso   1.000  O
  O33      1.0000 0.78939  0.57485  0.71190  Biso   1.000  O
  O34      1.0000 0.95230  0.65795  0.49070  Biso   1.000  O
  O35      1.0000 0.92249  0.65781  0.68270  Biso   1.000  O
  O36      1.0000 0.92130  0.62490  0.50390  Biso   1.000  O
  O37      1.0000 0.99463  0.69910  0.41430  Biso   1.000  O
  O38      1.0000 0.96779  0.69421  0.20320  Biso   1.000  O
  O39      1.0000 0.01551  0.68378  0.20850  Biso   1.000  O
  O40      1.0000 0.84947  0.57060  0.69740  Biso   1.000  O
  O41      1.0000 0.89019  0.59556  0.72610  Biso   1.000  O
  O42      1.0000 0.87180  0.57480  0.92050  Biso   1.000  O
  O43      1.0000 0.86210  0.63540  0.54100  Biso   1.000  O
  O44      1.0000 0.83340  0.63510  0.33730  Biso   1.000  O
  O45      1.0000 0.82030  0.61040  0.52700  Biso   1.000  O
  H11      1.0000 0.79070  0.53110  0.73210  Biso   1.000  H
  H12      1.0000 0.95120  0.63910  0.67320  Biso   1.000  H
  H13      1.0000 0.00940  0.72200  0.24520  Biso   1.000  H
  H14      1.0000 0.88450  0.54860  0.76260  Biso   1.000  H
  H15      1.0000 0.81670  0.64970  0.55300  Biso   1.000  H
  Zn10     1.0000 0.46872  0.18953  0.03708  Biso   1.000  Zn
  Zn11     1.0000 0.38838  0.10964  0.04589  Biso   1.000  Zn
  Zn12     1.0000 0.32032  0.09399  0.20159  Biso   1.000  Zn
  P16      1.0000 0.27982  0.05044  0.15590  Biso   1.000  P
  P17      1.0000 0.43715  0.14204  0.08760  Biso   1.000  P
  P18      1.0000 0.49381  0.20066  0.76250  Biso   1.000  P
  P19      1.0000 0.37425  0.07341  0.27330  Biso   1.000  P
  P20      1.0000 0.33454  0.13376  0.98370  Biso   1.000  P
  O46      1.0000 0.25077  0.04980  0.17260  Biso   1.000  O
  O47      1.0000 0.28842  0.04774  0.01050  Biso   1.000  O
  O48      1.0000 0.28939  0.07485  0.21190  Biso   1.000  O
  O49      1.0000 0.45230  0.15795  0.99070  Biso   1.000  O
  O50      1.0000 0.42249  0.15781  0.18270  Biso   1.000  O
  O51      1.0000 0.42130  0.12490  0.00390  Biso   1.000  O
  O52      1.0000 0.49463  0.19910  0.91430  Biso   1.000  O
  O53      1.0000 0.46779  0.19421  0.70320  Biso   1.000  O
  O54      1.0000 0.51551  0.18378  0.70850  Biso   1.000  O
  O55      1.0000 0.34947  0.07060  0.19740  Biso   1.000  O
  O56      1.0000 0.39019  0.09556  0.22610  Biso   1.000  O
  O57      1.0000 0.37180  0.07480  0.42050  Biso   1.000  O
  O58      1.0000 0.36210  0.13540  0.04100  Biso   1.000  O
  O59      1.0000 0.33340  0.13510  0.83730  Biso   1.000  O
  O60      1.0000 0.32030  0.11040  0.02700  Biso   1.000  O
  H16      1.0000 0.29070  0.03110  0.23210  Biso   1.000  H
  H17      1.0000 0.45120  0.13910  0.17320  Biso   1.000  H
  H18      1.0000 0.50940  0.22200  0.74520  Biso   1.000  H
  H19      1.0000 0.38450  0.04860  0.26260  Biso   1.000  H
  H20      1.0000 0.31670  0.14970  0.05300  Biso   1.000  H
  Zn13     1.0000 0.93953  0.28128  0.28708  Biso   1.000  Zn
  Zn14     1.0000 0.85964  0.36162  0.29589  Biso   1.000  Zn
  Zn15     1.0000 0.84399  0.42968  0.45159  Biso   1.000  Zn
  P21      1.0000 0.80044  0.47018  0.40590  Biso   1.000  P
  P22      1.0000 0.89204  0.31285  0.33760  Biso   1.000  P
  P23      1.0000 0.95066  0.25619  0.01250  Biso   1.000  P
  P24      1.0000 0.82341  0.37575  0.52330  Biso   1.000  P
  P25      1.0000 0.88376  0.41546  0.23370  Biso   1.000  P
  O61      1.0000 0.79980  0.49923  0.42260  Biso   1.000  O
  O62      1.0000 0.79774  0.46158  0.26050  Biso   1.000  O
  O63      1.0000 0.82485  0.46061  0.46190  Biso   1.000  O
  O64      1.0000 0.90795  0.29770  0.24070  Biso   1.000  O
  O65      1.0000 0.90781  0.32751  0.43270  Biso   1.000  O
  O66      1.0000 0.87490  0.32870  0.25390  Biso   1.000  O
  O67      1.0000 0.94910  0.25537  0.16430  Biso   1.000  O
  O68      1.0000 0.94421  0.28221  0.95320  Biso   1.000  O
  O69      1.0000 0.93378  0.23449  0.95850  Biso   1.000  O
  O70      1.0000 0.82060  0.40053  0.44740  Biso   1.000  O
  O71      1.0000 0.84556  0.35981  0.47610  Biso   1.000  O
  O72      1.0000 0.82480  0.37820  0.67050  Biso   1.000  O
  O73      1.0000 0.88540  0.38790  0.29100  Biso   1.000  O
  O74      1.0000 0.88510  0.41660  0.08730  Biso   1.000  O
  O75      1.0000 0.86040  0.42970  0.27700  Biso   1.000  O
  H21      1.0000 0.78110  0.45930  0.48210  Biso   1.000  H
  H22      1.0000 0.88910  0.29880  0.42320  Biso   1.000  H
  H23      1.0000 0.97200  0.24060  0.99520  Biso   1.000  H
  H24      1.0000 0.79860  0.36550  0.51260  Biso   1.000  H
  H25      1.0000 0.89970  0.43330  0.30300  Biso   1.000  H
  Zn16     1.0000 0.43953  0.78128  0.78708  Biso   1.000  Zn
  Zn17     1.0000 0.35964  0.86162  0.79589  Biso   1.000  Zn
  Zn18     1.0000 0.34399  0.92968  0.95159  Biso   1.000  Zn
  P26      1.0000 0.30044  0.97018  0.90590  Biso   1.000  P
  P27      1.0000 0.39204  0.81285  0.83760  Biso   1.000  P
  P28      1.0000 0.45066  0.75619  0.51250  Biso   1.000  P
  P29      1.0000 0.32341  0.87575  0.02330  Biso   1.000  P
  P30      1.0000 0.38376  0.91546  0.73370  Biso   1.000  P
  O76      1.0000 0.29980  0.99923  0.92260  Biso   1.000  O
  O77      1.0000 0.29774  0.96158  0.76050  Biso   1.000  O
  O78      1.0000 0.32485  0.96061  0.96190  Biso   1.000  O
  O79      1.0000 0.40795  0.79770  0.74070  Biso   1.000  O
  O80      1.0000 0.40781  0.82751  0.93270  Biso   1.000  O
  O81      1.0000 0.37490  0.82870  0.75390  Biso   1.000  O
  O82      1.0000 0.44910  0.75537  0.66430  Biso   1.000  O
  O83      1.0000 0.44421  0.78221  0.45320  Biso   1.000  O
  O84      1.0000 0.43378  0.73449  0.45850  Biso   1.000  O
  O85      1.0000 0.32060  0.90053  0.94740  Biso   1.000  O
  O86      1.0000 0.34556  0.85981  0.97610  Biso   1.000  O
  O87      1.0000 0.32480  0.87820  0.17050  Biso   1.000  O
  O88      1.0000 0.38540  0.88790  0.79100  Biso   1.000  O
  O89      1.0000 0.38510  0.91660  0.58730  Biso   1.000  O
  O90      1.0000 0.36040  0.92970  0.77700  Biso   1.000  O
  H26      1.0000 0.28110  0.95930  0.98210  Biso   1.000  H
  H27      1.0000 0.38910  0.79880  0.92320  Biso   1.000  H
  H28      1.0000 0.47200  0.74060  0.49520  Biso   1.000  H
  H29      1.0000 0.29860  0.86550  0.01260  Biso   1.000  H
  H30      1.0000 0.39970  0.93330  0.80300  Biso   1.000  H
  Zn19     1.0000 0.56047  0.71872  0.78708  Biso   1.000  Zn
  Zn20     1.0000 0.64036  0.63838  0.79589  Biso   1.000  Zn
  Zn21     1.0000 0.65601  0.57032  0.95159  Biso   1.000  Zn
  P31      1.0000 0.69956  0.52982  0.90590  Biso   1.000  P
  P32      1.0000 0.60796  0.68715  0.83760  Biso   1.000  P
  P33      1.0000 0.54934  0.74381  0.51250  Biso   1.000  P
  P34      1.0000 0.67659  0.62425  0.02330  Biso   1.000  P
  P35      1.0000 0.61624  0.58454  0.73370  Biso   1.000  P
  O91      1.0000 0.70020  0.50077  0.92260  Biso   1.000  O
  O92      1.0000 0.70226  0.53842  0.76050  Biso   1.000  O
  O93      1.0000 0.67515  0.53939  0.96190  Biso   1.000  O
  O94      1.0000 0.59205  0.70230  0.74070  Biso   1.000  O
  O95      1.0000 0.59219  0.67249  0.93270  Biso   1.000  O
  O96      1.0000 0.62510  0.67130  0.75390  Biso   1.000  O
  O97      1.0000 0.55090  0.74463  0.66430  Biso   1.000  O
  O98      1.0000 0.55579  0.71779  0.45320  Biso   1.000  O
  O99      1.0000 0.56622  0.76551  0.45850  Biso   1.000  O
  O100     1.0000 0.67940  0.59947  0.94740  Biso   1.000  O
  O101     1.0000 0.65444  0.64019  0.97610  Biso   1.000  O
  O102     1.0000 0.67520  0.62180  0.17050  Biso   1.000  O
  O103     1.0000 0.61460  0.61210  0.79100  Biso   1.000  O
  O104     1.0000 0.61490  0.58340  0.58730  Biso   1.000  O
  O105     1.0000 0.63960  0.57030  0.77700  Biso   1.000  O
  H31      1.0000 0.71890  0.54070  0.98210  Biso   1.000  H
  H32      1.0000 0.61090  0.70120  0.92320  Biso   1.000  H
  H33      1.0000 0.52800  0.75940  0.49520  Biso   1.000  H
  H34      1.0000 0.70140  0.63450  0.01260  Biso   1.000  H
  H35      1.0000 0.60030  0.56670  0.80300  Biso   1.000  H
  Zn22     1.0000 0.06047  0.21872  0.28708  Biso   1.000  Zn
  Zn23     1.0000 0.14036  0.13838  0.29589  Biso   1.000  Zn
  Zn24     1.0000 0.15601  0.07032  0.45159  Biso   1.000  Zn
  P36      1.0000 0.19956  0.02982  0.40590  Biso   1.000  P
  P37      1.0000 0.10796  0.18715  0.33760  Biso   1.000  P
  P38      1.0000 0.04934  0.24381  0.01250  Biso   1.000  P
  P39      1.0000 0.17659  0.12425  0.52330  Biso   1.000  P
  P40      1.0000 0.11624  0.08454  0.23370  Biso   1.000  P
  O106     1.0000 0.20020  0.00077  0.42260  Biso   1.000  O
  O107     1.0000 0.20226  0.03842  0.26050  Biso   1.000  O
  O108     1.0000 0.17515  0.03939  0.46190  Biso   1.000  O
  O109     1.0000 0.09205  0.20230  0.24070  Biso   1.000  O
  O110     1.0000 0.09219  0.17249  0.43270  Biso   1.000  O
  O111     1.0000 0.12510  0.17130  0.25390  Biso   1.000  O
  O112     1.0000 0.05090  0.24463  0.16430  Biso   1.000  O
  O113     1.0000 0.05579  0.21779  0.95320  Biso   1.000  O
  O114     1.0000 0.06622  0.26551  0.95850  Biso   1.000  O
  O115     1.0000 0.17940  0.09947  0.44740  Biso   1.000  O
  O116     1.0000 0.15444  0.14019  0.47610  Biso   1.000  O
  O117     1.0000 0.17520  0.12180  0.67050  Biso   1.000  O
  O118     1.0000 0.11460  0.11210  0.29100  Biso   1.000  O
  O119     1.0000 0.11490  0.08340  0.08730  Biso   1.000  O
  O120     1.0000 0.13960  0.07030  0.27700  Biso   1.000  O
  H36      1.0000 0.21890  0.04070  0.48210  Biso   1.000  H
  H37      1.0000 0.11090  0.20120  0.42320  Biso   1.000  H
  H38      1.0000 0.02800  0.25940  0.99520  Biso   1.000  H
  H39      1.0000 0.20140  0.13450  0.51260  Biso   1.000  H
  H40      1.0000 0.10030  0.06670  0.30300  Biso   1.000  H
  Zn25     1.0000 0.96872  0.31047  0.96292  Biso   1.000  Zn
  Zn26     1.0000 0.88838  0.39036  0.95411  Biso   1.000  Zn
  Zn27     1.0000 0.82032  0.40601  0.79841  Biso   1.000  Zn
  P41      1.0000 0.77982  0.44956  0.84410  Biso   1.000  P
  P42      1.0000 0.93715  0.35796  0.91240  Biso   1.000  P
  P43      1.0000 0.99381  0.29934  0.23750  Biso   1.000  P
  P44      1.0000 0.87425  0.42659  0.72670  Biso   1.000  P
  P45      1.0000 0.83454  0.36624  0.01630  Biso   1.000  P
  O121     1.0000 0.75077  0.45020  0.82740  Biso   1.000  O
  O122     1.0000 0.78842  0.45226  0.98950  Biso   1.000  O
  O123     1.0000 0.78939  0.42515  0.78810  Biso   1.000  O
  O124     1.0000 0.95230  0.34205  0.00930  Biso   1.000  O
  O125     1.0000 0.92249  0.34219  0.81730  Biso   1.000  O
  O126     1.0000 0.92130  0.37510  0.99610  Biso   1.000  O
  O127     1.0000 0.99463  0.30090  0.08570  Biso   1.000  O
  O128     1.0000 0.96779  0.30579  0.29680  Biso   1.000  O
  O129     1.0000 0.01551  0.31622  0.29150  Biso   1.000  O
  O130     1.0000 0.84947  0.42940  0.80260  Biso   1.000  O
  O131     1.0000 0.89019  0.40444  0.77390  Biso   1.000  O
  O132     1.0000 0.87180  0.42520  0.57950  Biso   1.000  O
  O133     1.0000 0.86210  0.36460  0.95900  Biso   1.000  O
  O134     1.0000 0.83340  0.36490  0.16270  Biso   1.000  O
  O135     1.0000 0.82030  0.38960  0.97300  Biso   1.000  O
  H41      1.0000 0.79070  0.46890  0.76790  Biso   1.000  H
  H42      1.0000 0.95120  0.36090  0.82680  Biso   1.000  H
  H43      1.0000 0.00940  0.27800  0.25480  Biso   1.000  H
  H44      1.0000 0.88450  0.45140  0.73740  Biso   1.000  H
  H45      1.0000 0.81670  0.35030  0.94700  Biso   1.000  H
  Zn28     1.0000 0.46872  0.81047  0.46292  Biso   1.000  Zn
  Zn29     1.0000 0.38838  0.89036  0.45411  Biso   1.000  Zn
  Zn30     1.0000 0.32032  0.90601  0.29841  Biso   1.000  Zn
  P46      1.0000 0.27982  0.94956  0.34410  Biso   1.000  P
  P47      1.0000 0.43715  0.85796  0.41240  Biso   1.000  P
  P48      1.0000 0.49381  0.79934  0.73750  Biso   1.000  P
  P49      1.0000 0.37425  0.92659  0.22670  Biso   1.000  P
  P50      1.0000 0.33454  0.86624  0.51630  Biso   1.000  P
  O136     1.0000 0.25077  0.95020  0.32740  Biso   1.000  O
  O137     1.0000 0.28842  0.95226  0.48950  Biso   1.000  O
  O138     1.0000 0.28939  0.92515  0.28810  Biso   1.000  O
  O139     1.0000 0.45230  0.84205  0.50930  Biso   1.000  O
  O140     1.0000 0.42249  0.84219  0.31730  Biso   1.000  O
  O141     1.0000 0.42130  0.87510  0.49610  Biso   1.000  O
  O142     1.0000 0.49463  0.80090  0.58570  Biso   1.000  O
  O143     1.0000 0.46779  0.80579  0.79680  Biso   1.000  O
  O144     1.0000 0.51551  0.81622  0.79150  Biso   1.000  O
  O145     1.0000 0.34947  0.92940  0.30260  Biso   1.000  O
  O146     1.0000 0.39019  0.90444  0.27390  Biso   1.000  O
  O147     1.0000 0.37180  0.92520  0.07950  Biso   1.000  O
  O148     1.0000 0.36210  0.86460  0.45900  Biso   1.000  O
  O149     1.0000 0.33340  0.86490  0.66270  Biso   1.000  O
  O150     1.0000 0.32030  0.88960  0.47300  Biso   1.000  O
  H46      1.0000 0.29070  0.96890  0.26790  Biso   1.000  H
  H47      1.0000 0.45120  0.86090  0.32680  Biso   1.000  H
  H48      1.0000 0.50940  0.77800  0.75480  Biso   1.000  H
  H49      1.0000 0.38450  0.95140  0.23740  Biso   1.000  H
  H50      1.0000 0.31670  0.85030  0.44700  Biso   1.000  H
  Zn31     1.0000 0.53128  0.68953  0.46292  Biso   1.000  Zn
  Zn32     1.0000 0.61162  0.60964  0.45411  Biso   1.000  Zn
  Zn33     1.0000 0.67968  0.59399  0.29841  Biso   1.000  Zn
  P51      1.0000 0.72018  0.55044  0.34410  Biso   1.000  P
  P52      1.0000 0.56285  0.64204  0.41240  Biso   1.000  P
  P53      1.0000 0.50619  0.70066  0.73750  Biso   1.000  P
  P54      1.0000 0.62575  0.57341  0.22670  Biso   1.000  P
  P55      1.0000 0.66546  0.63376  0.51630  Biso   1.000  P
  O151     1.0000 0.74923  0.54980  0.32740  Biso   1.000  O
  O152     1.0000 0.71158  0.54774  0.48950  Biso   1.000  O
  O153     1.0000 0.71061  0.57485  0.28810  Biso   1.000  O
  O154     1.0000 0.54770  0.65795  0.50930  Biso   1.000  O
  O155     1.0000 0.57751  0.65781  0.31730  Biso   1.000  O
  O156     1.0000 0.57870  0.62490  0.49610  Biso   1.000  O
  O157     1.0000 0.50537  0.69910  0.58570  Biso   1.000  O
  O158     1.0000 0.53221  0.69421  0.79680  Biso   1.000  O
  O159     1.0000 0.48449  0.68378  0.79150  Biso   1.000  O
  O160     1.0000 0.65053  0.57060  0.30260  Biso   1.000  O
  O161     1.0000 0.60981  0.59556  0.27390  Biso   1.000  O
  O162     1.0000 0.62820  0.57480  0.07950  Biso   1.000  O
  O163     1.0000 0.63790  0.63540  0.45900  Biso   1.000  O
  O164     1.0000 0.66660  0.63510  0.66270  Biso   1.000  O
  O165     1.0000 0.67970  0.61040  0.47300  Biso   1.000  O
  H51      1.0000 0.70930  0.53110  0.26790  Biso   1.000  H
  H52      1.0000 0.54880  0.63910  0.32680  Biso   1.000  H
  H53      1.0000 0.49060  0.72200  0.75480  Biso   1.000  H
  H54      1.0000 0.61550  0.54860  0.23740  Biso   1.000  H
  H55      1.0000 0.68330  0.64970  0.44700  Biso   1.000  H
  Zn34     1.0000 0.03128  0.18953  0.96292  Biso   1.000  Zn
  Zn35     1.0000 0.11162  0.10964  0.95411  Biso   1.000  Zn
  Zn36     1.0000 0.17968  0.09399  0.79841  Biso   1.000  Zn
  P56      1.0000 0.22018  0.05044  0.84410  Biso   1.000  P
  P57      1.0000 0.06285  0.14204  0.91240  Biso   1.000  P
  P58      1.0000 0.00619  0.20066  0.23750  Biso   1.000  P
  P59      1.0000 0.12575  0.07341  0.72670  Biso   1.000  P
  P60      1.0000 0.16546  0.13376  0.01630  Biso   1.000  P
  O166     1.0000 0.24923  0.04980  0.82740  Biso   1.000  O
  O167     1.0000 0.21158  0.04774  0.98950  Biso   1.000  O
  O168     1.0000 0.21061  0.07485  0.78810  Biso   1.000  O
  O169     1.0000 0.04770  0.15795  0.00930  Biso   1.000  O
  O170     1.0000 0.07751  0.15781  0.81730  Biso   1.000  O
  O171     1.0000 0.07870  0.12490  0.99610  Biso   1.000  O
  O172     1.0000 0.00537  0.19910  0.08570  Biso   1.000  O
  O173     1.0000 0.03221  0.19421  0.29680  Biso   1.000  O
  O174     1.0000 0.98449  0.18378  0.29150  Biso   1.000  O
  O175     1.0000 0.15053  0.07060  0.80260  Biso   1.000  O
  O176     1.0000 0.10981  0.09556  0.77390  Biso   1.000  O
  O177     1.0000 0.12820  0.07480  0.57950  Biso   1.000  O
  O178     1.0000 0.13790  0.13540  0.95900  Biso   1.000  O
  O179     1.0000 0.16660  0.13510  0.16270  Biso   1.000  O
  O180     1.0000 0.17970  0.11040  0.97300  Biso   1.000  O
  H56      1.0000 0.20930  0.03110  0.76790  Biso   1.000  H
  H57      1.0000 0.04880  0.13910  0.82680  Biso   1.000  H
  H58      1.0000 0.99060  0.22200  0.25480  Biso   1.000  H
  H59      1.0000 0.11550  0.04860  0.73740  Biso   1.000  H
  H60      1.0000 0.18330  0.14970  0.94700  Biso   1.000  H
  Zn37     1.0000 0.56047  0.28128  0.71292  Biso   1.000  Zn
  Zn38     1.0000 0.64036  0.36162  0.70411  Biso   1.000  Zn
  Zn39     1.0000 0.65601  0.42968  0.54841  Biso   1.000  Zn
  P61      1.0000 0.69956  0.47018  0.59410  Biso   1.000  P
  P62      1.0000 0.60796  0.31285  0.66240  Biso   1.000  P
  P63      1.0000 0.54934  0.25619  0.98750  Biso   1.000  P
  P64      1.0000 0.67659  0.37575  0.47670  Biso   1.000  P
  P65      1.0000 0.61624  0.41546  0.76630  Biso   1.000  P
  O181     1.0000 0.70020  0.49923  0.57740  Biso   1.000  O
  O182     1.0000 0.70226  0.46158  0.73950  Biso   1.000  O
  O183     1.0000 0.67515  0.46061  0.53810  Biso   1.000  O
  O184     1.0000 0.59205  0.29770  0.75930  Biso   1.000  O
  O185     1.0000 0.59219  0.32751  0.56730  Biso   1.000  O
  O186     1.0000 0.62510  0.32870  0.74610  Biso   1.000  O
  O187     1.0000 0.55090  0.25537  0.83570  Biso   1.000  O
  O188     1.0000 0.55579  0.28221  0.04680  Biso   1.000  O
  O189     1.0000 0.56622  0.23449  0.04150  Biso   1.000  O
  O190     1.0000 0.67940  0.40053  0.55260  Biso   1.000  O
  O191     1.0000 0.65444  0.35981  0.52390  Biso   1.000  O
  O192     1.0000 0.67520  0.37820  0.32950  Biso   1.000  O
  O193     1.0000 0.61460  0.38790  0.70900  Biso   1.000  O
  O194     1.0000 0.61490  0.41660  0.91270  Biso   1.000  O
  O195     1.0000 0.63960  0.42970  0.72300  Biso   1.000  O
  H61      1.0000 0.71890  0.45930  0.51790  Biso   1.000  H
  H62      1.0000 0.61090  0.29880  0.57680  Biso   1.000  H
  H63      1.0000 0.52800  0.24060  0.00480  Biso   1.000  H
  H64      1.0000 0.70140  0.36550  0.48740  Biso   1.000  H
  H65      1.0000 0.60030  0.43330  0.69700  Biso   1.000  H
  Zn40     1.0000 0.06047  0.78128  0.21292  Biso   1.000  Zn
  Zn41     1.0000 0.14036  0.86162  0.20411  Biso   1.000  Zn
  Zn42     1.0000 0.15601  0.92968  0.04841  Biso   1.000  Zn
  P66      1.0000 0.19956  0.97018  0.09410  Biso   1.000  P
  P67      1.0000 0.10796  0.81285  0.16240  Biso   1.000  P
  P68      1.0000 0.04934  0.75619  0.48750  Biso   1.000  P
  P69      1.0000 0.17659  0.87575  0.97670  Biso   1.000  P
  P70      1.0000 0.11624  0.91546  0.26630  Biso   1.000  P
  O196     1.0000 0.20020  0.99923  0.07740  Biso   1.000  O
  O197     1.0000 0.20226  0.96158  0.23950  Biso   1.000  O
  O198     1.0000 0.17515  0.96061  0.03810  Biso   1.000  O
  O199     1.0000 0.09205  0.79770  0.25930  Biso   1.000  O
  O200     1.0000 0.09219  0.82751  0.06730  Biso   1.000  O
  O201     1.0000 0.12510  0.82870  0.24610  Biso   1.000  O
  O202     1.0000 0.05090  0.75537  0.33570  Biso   1.000  O
  O203     1.0000 0.05579  0.78221  0.54680  Biso   1.000  O
  O204     1.0000 0.06622  0.73449  0.54150  Biso   1.000  O
  O205     1.0000 0.17940  0.90053  0.05260  Biso   1.000  O
  O206     1.0000 0.15444  0.85981  0.02390  Biso   1.000  O
  O207     1.0000 0.17520  0.87820  0.82950  Biso   1.000  O
  O208     1.0000 0.11460  0.88790  0.20900  Biso   1.000  O
  O209     1.0000 0.11490  0.91660  0.41270  Biso   1.000  O
  O210     1.0000 0.13960  0.92970  0.22300  Biso   1.000  O
  H66      1.0000 0.21890  0.95930  0.01790  Biso   1.000  H
  H67      1.0000 0.11090  0.79880  0.07680  Biso   1.000  H
  H68      1.0000 0.02800  0.74060  0.50480  Biso   1.000  H
  H69      1.0000 0.20140  0.86550  0.98740  Biso   1.000  H
  H70      1.0000 0.10030  0.93330  0.19700  Biso   1.000  H
  Zn43     1.0000 0.93953  0.71872  0.21292  Biso   1.000  Zn
  Zn44     1.0000 0.85964  0.63838  0.20411  Biso   1.000  Zn
  Zn45     1.0000 0.84399  0.57032  0.04841  Biso   1.000  Zn
  P71      1.0000 0.80044  0.52982  0.09410  Biso   1.000  P
  P72      1.0000 0.89204  0.68715  0.16240  Biso   1.000  P
  P73      1.0000 0.95066  0.74381  0.48750  Biso   1.000  P
  P74      1.0000 0.82341  0.62425  0.97670  Biso   1.000  P
  P75      1.0000 0.88376  0.58454  0.26630  Biso   1.000  P
  O211     1.0000 0.79980  0.50077  0.07740  Biso   1.000  O
  O212     1.0000 0.79774  0.53842  0.23950  Biso   1.000  O
  O213     1.0000 0.82485  0.53939  0.03810  Biso   1.000  O
  O214     1.0000 0.90795  0.70230  0.25930  Biso   1.000  O
  O215     1.0000 0.90781  0.67249  0.06730  Biso   1.000  O
  O216     1.0000 0.87490  0.67130  0.24610  Biso   1.000  O
  O217     1.0000 0.94910  0.74463  0.33570  Biso   1.000  O
  O218     1.0000 0.94421  0.71779  0.54680  Biso   1.000  O
  O219     1.0000 0.93378  0.76551  0.54150  Biso   1.000  O
  O220     1.0000 0.82060  0.59947  0.05260  Biso   1.000  O
  O221     1.0000 0.84556  0.64019  0.02390  Biso   1.000  O
  O222     1.0000 0.82480  0.62180  0.82950  Biso   1.000  O
  O223     1.0000 0.88540  0.61210  0.20900  Biso   1.000  O
  O224     1.0000 0.88510  0.58340  0.41270  Biso   1.000  O
  O225     1.0000 0.86040  0.57030  0.22300  Biso   1.000  O
  H71      1.0000 0.78110  0.54070  0.01790  Biso   1.000  H
  H72      1.0000 0.88910  0.70120  0.07680  Biso   1.000  H
  H73      1.0000 0.97200  0.75940  0.50480  Biso   1.000  H
  H74      1.0000 0.79860  0.63450  0.98740  Biso   1.000  H
  H75      1.0000 0.89970  0.56670  0.19700  Biso   1.000  H
  Zn46     1.0000 0.43953  0.21872  0.71292  Biso   1.000  Zn
  Zn47     1.0000 0.35964  0.13838  0.70411  Biso   1.000  Zn
  Zn48     1.0000 0.34399  0.07032  0.54841  Biso   1.000  Zn
  P76      1.0000 0.30044  0.02982  0.59410  Biso   1.000  P
  P77      1.0000 0.39204  0.18715  0.66240  Biso   1.000  P
  P78      1.0000 0.45066  0.24381  0.98750  Biso   1.000  P
  P79      1.0000 0.32341  0.12425  0.47670  Biso   1.000  P
  P80      1.0000 0.38376  0.08454  0.76630  Biso   1.000  P
  O226     1.0000 0.29980  0.00077  0.57740  Biso   1.000  O
  O227     1.0000 0.29774  0.03842  0.73950  Biso   1.000  O
  O228     1.0000 0.32485  0.03939  0.53810  Biso   1.000  O
  O229     1.0000 0.40795  0.20230  0.75930  Biso   1.000  O
  O230     1.0000 0.40781  0.17249  0.56730  Biso   1.000  O
  O231     1.0000 0.37490  0.17130  0.74610  Biso   1.000  O
  O232     1.0000 0.44910  0.24463  0.83570  Biso   1.000  O
  O233     1.0000 0.44421  0.21779  0.04680  Biso   1.000  O
  O234     1.0000 0.43378  0.26551  0.04150  Biso   1.000  O
  O235     1.0000 0.32060  0.09947  0.55260  Biso   1.000  O
  O236     1.0000 0.34556  0.14019  0.52390  Biso   1.000  O
  O237     1.0000 0.32480  0.12180  0.32950  Biso   1.000  O
  O238     1.0000 0.38540  0.11210  0.70900  Biso   1.000  O
  O239     1.0000 0.38510  0.08340  0.91270  Biso   1.000  O
  O240     1.0000 0.36040  0.07030  0.72300  Biso   1.000  O
  H76      1.0000 0.28110  0.04070  0.51790  Biso   1.000  H
  H77      1.0000 0.38910  0.20120  0.57680  Biso   1.000  H
  H78      1.0000 0.47200  0.25940  0.00480  Biso   1.000  H
  H79      1.0000 0.29860  0.13450  0.48740  Biso   1.000  H
  H80      1.0000 0.39970  0.06670  0.69700  Biso   1.000  H
  Zn49     1.0000 0.46872  0.68953  0.96292  Biso   1.000  Zn
  Zn50     1.0000 0.38838  0.60964  0.95411  Biso   1.000  Zn
  Zn51     1.0000 0.32032  0.59399  0.79841  Biso   1.000  Zn
  P81      1.0000 0.27982  0.55044  0.84410  Biso   1.000  P
  P82      1.0000 0.43715  0.64204  0.91240  Biso   1.000  P
  P83      1.0000 0.49381  0.70066  0.23750  Biso   1.000  P
  P84      1.0000 0.37425  0.57341  0.72670  Biso   1.000  P
  P85      1.0000 0.33454  0.63376  0.01630  Biso   1.000  P
  O241     1.0000 0.25077  0.54980  0.82740  Biso   1.000  O
  O242     1.0000 0.28842  0.54774  0.98950  Biso   1.000  O
  O243     1.0000 0.28939  0.57485  0.78810  Biso   1.000  O
  O244     1.0000 0.45230  0.65795  0.00930  Biso   1.000  O
  O245     1.0000 0.42249  0.65781  0.81730  Biso   1.000  O
  O246     1.0000 0.42130  0.62490  0.99610  Biso   1.000  O
  O247     1.0000 0.49463  0.69910  0.08570  Biso   1.000  O
  O248     1.0000 0.46779  0.69421  0.29680  Biso   1.000  O
  O249     1.0000 0.51551  0.68378  0.29150  Biso   1.000  O
  O250     1.0000 0.34947  0.57060  0.80260  Biso   1.000  O
  O251     1.0000 0.39019  0.59556  0.77390  Biso   1.000  O
  O252     1.0000 0.37180  0.57480  0.57950  Biso   1.000  O
  O253     1.0000 0.36210  0.63540  0.95900  Biso   1.000  O
  O254     1.0000 0.33340  0.63510  0.16270  Biso   1.000  O
  O255     1.0000 0.32030  0.61040  0.97300  Biso   1.000  O
  H81      1.0000 0.29070  0.53110  0.76790  Biso   1.000  H
  H82      1.0000 0.45120  0.63910  0.82680  Biso   1.000  H
  H83      1.0000 0.50940  0.72200  0.25480  Biso   1.000  H
  H84      1.0000 0.38450  0.54860  0.73740  Biso   1.000  H
  H85      1.0000 0.31670  0.64970  0.94700  Biso   1.000  H
  Zn52     1.0000 0.96872  0.18953  0.46292  Biso   1.000  Zn
  Zn53     1.0000 0.88838  0.10964  0.45411  Biso   1.000  Zn
  Zn54     1.0000 0.82032  0.09399  0.29841  Biso   1.000  Zn
  P86      1.0000 0.77982  0.05044  0.34410  Biso   1.000  P
  P87      1.0000 0.93715  0.14204  0.41240  Biso   1.000  P
  P88      1.0000 0.99381  0.20066  0.73750  Biso   1.000  P
  P89      1.0000 0.87425  0.07341  0.22670  Biso   1.000  P
  P90      1.0000 0.83454  0.13376  0.51630  Biso   1.000  P
  O256     1.0000 0.75077  0.04980  0.32740  Biso   1.000  O
  O257     1.0000 0.78842  0.04774  0.48950  Biso   1.000  O
  O258     1.0000 0.78939  0.07485  0.28810  Biso   1.000  O
  O259     1.0000 0.95230  0.15795  0.50930  Biso   1.000  O
  O260     1.0000 0.92249  0.15781  0.31730  Biso   1.000  O
  O261     1.0000 0.92130  0.12490  0.49610  Biso   1.000  O
  O262     1.0000 0.99463  0.19910  0.58570  Biso   1.000  O
  O263     1.0000 0.96779  0.19421  0.79680  Biso   1.000  O
  O264     1.0000 0.01551  0.18378  0.79150  Biso   1.000  O
  O265     1.0000 0.84947  0.07060  0.30260  Biso   1.000  O
  O266     1.0000 0.89019  0.09556  0.27390  Biso   1.000  O
  O267     1.0000 0.87180  0.07480  0.07950  Biso   1.000  O
  O268     1.0000 0.86210  0.13540  0.45900  Biso   1.000  O
  O269     1.0000 0.83340  0.13510  0.66270  Biso   1.000  O
  O270     1.0000 0.82030  0.11040  0.47300  Biso   1.000  O
  H86      1.0000 0.79070  0.03110  0.26790  Biso   1.000  H
  H87      1.0000 0.95120  0.13910  0.32680  Biso   1.000  H
  H88      1.0000 0.00940  0.22200  0.75480  Biso   1.000  H
  H89      1.0000 0.88450  0.04860  0.23740  Biso   1.000  H
  H90      1.0000 0.81670  0.14970  0.44700  Biso   1.000  H
  Zn55     1.0000 0.03128  0.31047  0.46292  Biso   1.000  Zn
  Zn56     1.0000 0.11162  0.39036  0.45411  Biso   1.000  Zn
  Zn57     1.0000 0.17968  0.40601  0.29841  Biso   1.000  Zn
  P91      1.0000 0.22018  0.44956  0.34410  Biso   1.000  P
  P92      1.0000 0.06285  0.35796  0.41240  Biso   1.000  P
  P93      1.0000 0.00619  0.29934  0.73750  Biso   1.000  P
  P94      1.0000 0.12575  0.42659  0.22670  Biso   1.000  P
  P95      1.0000 0.16546  0.36624  0.51630  Biso   1.000  P
  O271     1.0000 0.24923  0.45020  0.32740  Biso   1.000  O
  O272     1.0000 0.21158  0.45226  0.48950  Biso   1.000  O
  O273     1.0000 0.21061  0.42515  0.28810  Biso   1.000  O
  O274     1.0000 0.04770  0.34205  0.50930  Biso   1.000  O
  O275     1.0000 0.07751  0.34219  0.31730  Biso   1.000  O
  O276     1.0000 0.07870  0.37510  0.49610  Biso   1.000  O
  O277     1.0000 0.00537  0.30090  0.58570  Biso   1.000  O
  O278     1.0000 0.03221  0.30579  0.79680  Biso   1.000  O
  O279     1.0000 0.98449  0.31622  0.79150  Biso   1.000  O
  O280     1.0000 0.15053  0.42940  0.30260  Biso   1.000  O
  O281     1.0000 0.10981  0.40444  0.27390  Biso   1.000  O
  O282     1.0000 0.12820  0.42520  0.07950  Biso   1.000  O
  O283     1.0000 0.13790  0.36460  0.45900  Biso   1.000  O
  O284     1.0000 0.16660  0.36490  0.66270  Biso   1.000  O
  O285     1.0000 0.17970  0.38960  0.47300  Biso   1.000  O
  H91      1.0000 0.20930  0.46890  0.26790  Biso   1.000  H
  H92      1.0000 0.04880  0.36090  0.32680  Biso   1.000  H
  H93      1.0000 0.99060  0.27800  0.75480  Biso   1.000  H
  H94      1.0000 0.11550  0.45140  0.23740  Biso   1.000  H
  H95      1.0000 0.18330  0.35030  0.44700  Biso   1.000  H
  Zn58     1.0000 0.53128  0.81047  0.96292  Biso   1.000  Zn
  Zn59     1.0000 0.61162  0.89036  0.95411  Biso   1.000  Zn
  Zn60     1.0000 0.67968  0.90601  0.79841  Biso   1.000  Zn
  P96      1.0000 0.72018  0.94956  0.84410  Biso   1.000  P
  P97      1.0000 0.56285  0.85796  0.91240  Biso   1.000  P
  P98      1.0000 0.50619  0.79934  0.23750  Biso   1.000  P
  P99      1.0000 0.62575  0.92659  0.72670  Biso   1.000  P
  P100     1.0000 0.66546  0.86624  0.01630  Biso   1.000  P
  O286     1.0000 0.74923  0.95020  0.82740  Biso   1.000  O
  O287     1.0000 0.71158  0.95226  0.98950  Biso   1.000  O
  O288     1.0000 0.71061  0.92515  0.78810  Biso   1.000  O
  O289     1.0000 0.54770  0.84205  0.00930  Biso   1.000  O
  O290     1.0000 0.57751  0.84219  0.81730  Biso   1.000  O
  O291     1.0000 0.57870  0.87510  0.99610  Biso   1.000  O
  O292     1.0000 0.50537  0.80090  0.08570  Biso   1.000  O
  O293     1.0000 0.53221  0.80579  0.29680  Biso   1.000  O
  O294     1.0000 0.48449  0.81622  0.29150  Biso   1.000  O
  O295     1.0000 0.65053  0.92940  0.80260  Biso   1.000  O
  O296     1.0000 0.60981  0.90444  0.77390  Biso   1.000  O
  O297     1.0000 0.62820  0.92520  0.57950  Biso   1.000  O
  O298     1.0000 0.63790  0.86460  0.95900  Biso   1.000  O
  O299     1.0000 0.66660  0.86490  0.16270  Biso   1.000  O
  O300     1.0000 0.67970  0.88960  0.97300  Biso   1.000  O
  H96      1.0000 0.70930  0.96890  0.76790  Biso   1.000  H
  H97      1.0000 0.54880  0.86090  0.82680  Biso   1.000  H
  H98      1.0000 0.49060  0.77800  0.25480  Biso   1.000  H
  H99      1.0000 0.61550  0.95140  0.73740  Biso   1.000  H
  H100     1.0000 0.68330  0.85030  0.94700  Biso   1.000  H
  Zn61     1.0000 0.06047  0.71872  0.71292  Biso   1.000  Zn
  Zn62     1.0000 0.14036  0.63838  0.70411  Biso   1.000  Zn
  Zn63     1.0000 0.15601  0.57032  0.54841  Biso   1.000  Zn
  P101     1.0000 0.19956  0.52982  0.59410  Biso   1.000  P
  P102     1.0000 0.10796  0.68715  0.66240  Biso   1.000  P
  P103     1.0000 0.04934  0.74381  0.98750  Biso   1.000  P
  P104     1.0000 0.17659  0.62425  0.47670  Biso   1.000  P
  P105     1.0000 0.11624  0.58454  0.76630  Biso   1.000  P
  O301     1.0000 0.20020  0.50077  0.57740  Biso   1.000  O
  O302     1.0000 0.20226  0.53842  0.73950  Biso   1.000  O
  O303     1.0000 0.17515  0.53939  0.53810  Biso   1.000  O
  O304     1.0000 0.09205  0.70230  0.75930  Biso   1.000  O
  O305     1.0000 0.09219  0.67249  0.56730  Biso   1.000  O
  O306     1.0000 0.12510  0.67130  0.74610  Biso   1.000  O
  O307     1.0000 0.05090  0.74463  0.83570  Biso   1.000  O
  O308     1.0000 0.05579  0.71779  0.04680  Biso   1.000  O
  O309     1.0000 0.06622  0.76551  0.04150  Biso   1.000  O
  O310     1.0000 0.17940  0.59947  0.55260  Biso   1.000  O
  O311     1.0000 0.15444  0.64019  0.52390  Biso   1.000  O
  O312     1.0000 0.17520  0.62180  0.32950  Biso   1.000  O
  O313     1.0000 0.11460  0.61210  0.70900  Biso   1.000  O
  O314     1.0000 0.11490  0.58340  0.91270  Biso   1.000  O
  O315     1.0000 0.13960  0.57030  0.72300  Biso   1.000  O
  H101     1.0000 0.21890  0.54070  0.51790  Biso   1.000  H
  H102     1.0000 0.11090  0.70120  0.57680  Biso   1.000  H
  H103     1.0000 0.02800  0.75940  0.00480  Biso   1.000  H
  H104     1.0000 0.20140  0.63450  0.48740  Biso   1.000  H
  H105     1.0000 0.10030  0.56670  0.69700  Biso   1.000  H
  Zn64     1.0000 0.56047  0.21872  0.21292  Biso   1.000  Zn
  Zn65     1.0000 0.64036  0.13838  0.20411  Biso   1.000  Zn
  Zn66     1.0000 0.65601  0.07032  0.04841  Biso   1.000  Zn
  P106     1.0000 0.69956  0.02982  0.09410  Biso   1.000  P
  P107     1.0000 0.60796  0.18715  0.16240  Biso   1.000  P
  P108     1.0000 0.54934  0.24381  0.48750  Biso   1.000  P
  P109     1.0000 0.67659  0.12425  0.97670  Biso   1.000  P
  P110     1.0000 0.61624  0.08454  0.26630  Biso   1.000  P
  O316     1.0000 0.70020  0.00077  0.07740  Biso   1.000  O
  O317     1.0000 0.70226  0.03842  0.23950  Biso   1.000  O
  O318     1.0000 0.67515  0.03939  0.03810  Biso   1.000  O
  O319     1.0000 0.59205  0.20230  0.25930  Biso   1.000  O
  O320     1.0000 0.59219  0.17249  0.06730  Biso   1.000  O
  O321     1.0000 0.62510  0.17130  0.24610  Biso   1.000  O
  O322     1.0000 0.55090  0.24463  0.33570  Biso   1.000  O
  O323     1.0000 0.55579  0.21779  0.54680  Biso   1.000  O
  O324     1.0000 0.56622  0.26551  0.54150  Biso   1.000  O
  O325     1.0000 0.67940  0.09947  0.05260  Biso   1.000  O
  O326     1.0000 0.65444  0.14019  0.02390  Biso   1.000  O
  O327     1.0000 0.67520  0.12180  0.82950  Biso   1.000  O
  O328     1.0000 0.61460  0.11210  0.20900  Biso   1.000  O
  O329     1.0000 0.61490  0.08340  0.41270  Biso   1.000  O
  O330     1.0000 0.63960  0.07030  0.22300  Biso   1.000  O
  H106     1.0000 0.71890  0.04070  0.01790  Biso   1.000  H
  H107     1.0000 0.61090  0.20120  0.07680  Biso   1.000  H
  H108     1.0000 0.52800  0.25940  0.50480  Biso   1.000  H
  H109     1.0000 0.70140  0.13450  0.98740  Biso   1.000  H
  H110     1.0000 0.60030  0.06670  0.19700  Biso   1.000  H
  Zn67     1.0000 0.43953  0.28128  0.21292  Biso   1.000  Zn
  Zn68     1.0000 0.35964  0.36162  0.20411  Biso   1.000  Zn
  Zn69     1.0000 0.34399  0.42968  0.04841  Biso   1.000  Zn
  P111     1.0000 0.30044  0.47018  0.09410  Biso   1.000  P
  P112     1.0000 0.39204  0.31285  0.16240  Biso   1.000  P
  P113     1.0000 0.45066  0.25619  0.48750  Biso   1.000  P
  P114     1.0000 0.32341  0.37575  0.97670  Biso   1.000  P
  P115     1.0000 0.38376  0.41546  0.26630  Biso   1.000  P
  O331     1.0000 0.29980  0.49923  0.07740  Biso   1.000  O
  O332     1.0000 0.29774  0.46158  0.23950  Biso   1.000  O
  O333     1.0000 0.32485  0.46061  0.03810  Biso   1.000  O
  O334     1.0000 0.40795  0.29770  0.25930  Biso   1.000  O
  O335     1.0000 0.40781  0.32751  0.06730  Biso   1.000  O
  O336     1.0000 0.37490  0.32870  0.24610  Biso   1.000  O
  O337     1.0000 0.44910  0.25537  0.33570  Biso   1.000  O
  O338     1.0000 0.44421  0.28221  0.54680  Biso   1.000  O
  O339     1.0000 0.43378  0.23449  0.54150  Biso   1.000  O
  O340     1.0000 0.32060  0.40053  0.05260  Biso   1.000  O
  O341     1.0000 0.34556  0.35981  0.02390  Biso   1.000  O
  O342     1.0000 0.32480  0.37820  0.82950  Biso   1.000  O
  O343     1.0000 0.38540  0.38790  0.20900  Biso   1.000  O
  O344     1.0000 0.38510  0.41660  0.41270  Biso   1.000  O
  O345     1.0000 0.36040  0.42970  0.22300  Biso   1.000  O
  H111     1.0000 0.28110  0.45930  0.01790  Biso   1.000  H
  H112     1.0000 0.38910  0.29880  0.07680  Biso   1.000  H
  H113     1.0000 0.47200  0.24060  0.50480  Biso   1.000  H
  H114     1.0000 0.29860  0.36550  0.98740  Biso   1.000  H
  H115     1.0000 0.39970  0.43330  0.19700  Biso   1.000  H
  Zn70     1.0000 0.93953  0.78128  0.71292  Biso   1.000  Zn
  Zn71     1.0000 0.85964  0.86162  0.70411  Biso   1.000  Zn
  Zn72     1.0000 0.84399  0.92968  0.54841  Biso   1.000  Zn
  P116     1.0000 0.80044  0.97018  0.59410  Biso   1.000  P
  P117     1.0000 0.89204  0.81285  0.66240  Biso   1.000  P
  P118     1.0000 0.95066  0.75619  0.98750  Biso   1.000  P
  P119     1.0000 0.82341  0.87575  0.47670  Biso   1.000  P
  P120     1.0000 0.88376  0.91546  0.76630  Biso   1.000  P
  O346     1.0000 0.79980  0.99923  0.57740  Biso   1.000  O
  O347     1.0000 0.79774  0.96158  0.73950  Biso   1.000  O
  O348     1.0000 0.82485  0.96061  0.53810  Biso   1.000  O
  O349     1.0000 0.90795  0.79770  0.75930  Biso   1.000  O
  O350     1.0000 0.90781  0.82751  0.56730  Biso   1.000  O
  O351     1.0000 0.87490  0.82870  0.74610  Biso   1.000  O
  O352     1.0000 0.94910  0.75537  0.83570  Biso   1.000  O
  O353     1.0000 0.94421  0.78221  0.04680  Biso   1.000  O
  O354     1.0000 0.93378  0.73449  0.04150  Biso   1.000  O
  O355     1.0000 0.82060  0.90053  0.55260  Biso   1.000  O
  O356     1.0000 0.84556  0.85981  0.52390  Biso   1.000  O
  O357     1.0000 0.82480  0.87820  0.32950  Biso   1.000  O
  O358     1.0000 0.88540  0.88790  0.70900  Biso   1.000  O
  O359     1.0000 0.88510  0.91660  0.91270  Biso   1.000  O
  O360     1.0000 0.86040  0.92970  0.72300  Biso   1.000  O
  H116     1.0000 0.78110  0.95930  0.51790  Biso   1.000  H
  H117     1.0000 0.88910  0.79880  0.57680  Biso   1.000  H
  H118     1.0000 0.97200  0.74060  0.00480  Biso   1.000  H
  H119     1.0000 0.79860  0.86550  0.48740  Biso   1.000  H
  H120     1.0000 0.89970  0.93330  0.69700  Biso   1.000  H
  Zn73     1.0000 0.03128  0.68953  0.03708  Biso   1.000  Zn
  Zn74     1.0000 0.11162  0.60964  0.04589  Biso   1.000  Zn
  Zn75     1.0000 0.17968  0.59399  0.20159  Biso   1.000  Zn
  P121     1.0000 0.22018  0.55044  0.15590  Biso   1.000  P
  P122     1.0000 0.06285  0.64204  0.08760  Biso   1.000  P
  P123     1.0000 0.00619  0.70066  0.76250  Biso   1.000  P
  P124     1.0000 0.12575  0.57341  0.27330  Biso   1.000  P
  P125     1.0000 0.16546  0.63376  0.98370  Biso   1.000  P
  O361     1.0000 0.24923  0.54980  0.17260  Biso   1.000  O
  O362     1.0000 0.21158  0.54774  0.01050  Biso   1.000  O
  O363     1.0000 0.21061  0.57485  0.21190  Biso   1.000  O
  O364     1.0000 0.04770  0.65795  0.99070  Biso   1.000  O
  O365     1.0000 0.07751  0.65781  0.18270  Biso   1.000  O
  O366     1.0000 0.07870  0.62490  0.00390  Biso   1.000  O
  O367     1.0000 0.00537  0.69910  0.91430  Biso   1.000  O
  O368     1.0000 0.03221  0.69421  0.70320  Biso   1.000  O
  O369     1.0000 0.98449  0.68378  0.70850  Biso   1.000  O
  O370     1.0000 0.15053  0.57060  0.19740  Biso   1.000  O
  O371     1.0000 0.10981  0.59556  0.22610  Biso   1.000  O
  O372     1.0000 0.12820  0.57480  0.42050  Biso   1.000  O
  O373     1.0000 0.13790  0.63540  0.04100  Biso   1.000  O
  O374     1.0000 0.16660  0.63510  0.83730  Biso   1.000  O
  O375     1.0000 0.17970  0.61040  0.02700  Biso   1.000  O
  H121     1.0000 0.20930  0.53110  0.23210  Biso   1.000  H
  H122     1.0000 0.04880  0.63910  0.17320  Biso   1.000  H
  H123     1.0000 0.99060  0.72200  0.74520  Biso   1.000  H
  H124     1.0000 0.11550  0.54860  0.26260  Biso   1.000  H
  H125     1.0000 0.18330  0.64970  0.05300  Biso   1.000  H
  Zn76     1.0000 0.53128  0.18953  0.53708  Biso   1.000  Zn
  Zn77     1.0000 0.61162  0.10964  0.54589  Biso   1.000  Zn
  Zn78     1.0000 0.67968  0.09399  0.70159  Biso   1.000  Zn
  P126     1.0000 0.72018  0.05044  0.65590  Biso   1.000  P
  P127     1.0000 0.56285  0.14204  0.58760  Biso   1.000  P
  P128     1.0000 0.50619  0.20066  0.26250  Biso   1.000  P
  P129     1.0000 0.62575  0.07341  0.77330  Biso   1.000  P
  P130     1.0000 0.66546  0.13376  0.48370  Biso   1.000  P
  O376     1.0000 0.74923  0.04980  0.67260  Biso   1.000  O
  O377     1.0000 0.71158  0.04774  0.51050  Biso   1.000  O
  O378     1.0000 0.71061  0.07485  0.71190  Biso   1.000  O
  O379     1.0000 0.54770  0.15795  0.49070  Biso   1.000  O
  O380     1.0000 0.57751  0.15781  0.68270  Biso   1.000  O
  O381     1.0000 0.57870  0.12490  0.50390  Biso   1.000  O
  O382     1.0000 0.50537  0.19910  0.41430  Biso   1.000  O
  O383     1.0000 0.53221  0.19421  0.20320  Biso   1.000  O
  O384     1.0000 0.48449  0.18378  0.20850  Biso   1.000  O
  O385     1.0000 0.65053  0.07060  0.69740  Biso   1.000  O
  O386     1.0000 0.60981  0.09556  0.72610  Biso   1.000  O
  O387     1.0000 0.62820  0.07480  0.92050  Biso   1.000  O
  O388     1.0000 0.63790  0.13540  0.54100  Biso   1.000  O
  O389     1.0000 0.66660  0.13510  0.33730  Biso   1.000  O
  O390     1.0000 0.67970  0.11040  0.52700  Biso   1.000  O
  H126     1.0000 0.70930  0.03110  0.73210  Biso   1.000  H
  H127     1.0000 0.54880  0.13910  0.67320  Biso   1.000  H
  H128     1.0000 0.49060  0.22200  0.24520  Biso   1.000  H
  H129     1.0000 0.61550  0.04860  0.76260  Biso   1.000  H
  H130     1.0000 0.68330  0.14970  0.55300  Biso   1.000  H
  Zn79     1.0000 0.46872  0.31047  0.53708  Biso   1.000  Zn
  Zn80     1.0000 0.38838  0.39036  0.54589  Biso   1.000  Zn
  Zn81     1.0000 0.32032  0.40601  0.70159  Biso   1.000  Zn
  P131     1.0000 0.27982  0.44956  0.65590  Biso   1.000  P
  P132     1.0000 0.43715  0.35796  0.58760  Biso   1.000  P
  P133     1.0000 0.49381  0.29934  0.26250  Biso   1.000  P
  P134     1.0000 0.37425  0.42659  0.77330  Biso   1.000  P
  P135     1.0000 0.33454  0.36624  0.48370  Biso   1.000  P
  O391     1.0000 0.25077  0.45020  0.67260  Biso   1.000  O
  O392     1.0000 0.28842  0.45226  0.51050  Biso   1.000  O
  O393     1.0000 0.28939  0.42515  0.71190  Biso   1.000  O
  O394     1.0000 0.45230  0.34205  0.49070  Biso   1.000  O
  O395     1.0000 0.42249  0.34219  0.68270  Biso   1.000  O
  O396     1.0000 0.42130  0.37510  0.50390  Biso   1.000  O
  O397     1.0000 0.49463  0.30090  0.41430  Biso   1.000  O
  O398     1.0000 0.46779  0.30579  0.20320  Biso   1.000  O
  O399     1.0000 0.51551  0.31622  0.20850  Biso   1.000  O
  O400     1.0000 0.34947  0.42940  0.69740  Biso   1.000  O
  O401     1.0000 0.39019  0.40444  0.72610  Biso   1.000  O
  O402     1.0000 0.37180  0.42520  0.92050  Biso   1.000  O
  O403     1.0000 0.36210  0.36460  0.54100  Biso   1.000  O
  O404     1.0000 0.33340  0.36490  0.33730  Biso   1.000  O
  O405     1.0000 0.32030  0.38960  0.52700  Biso   1.000  O
  H131     1.0000 0.29070  0.46890  0.73210  Biso   1.000  H
  H132     1.0000 0.45120  0.36090  0.67320  Biso   1.000  H
  H133     1.0000 0.50940  0.27800  0.24520  Biso   1.000  H
  H134     1.0000 0.38450  0.45140  0.76260  Biso   1.000  H
  H135     1.0000 0.31670  0.35030  0.55300  Biso   1.000  H
  Zn82     1.0000 0.96872  0.81047  0.03708  Biso   1.000  Zn
  Zn83     1.0000 0.88838  0.89036  0.04589  Biso   1.000  Zn
  Zn84     1.0000 0.82032  0.90601  0.20159  Biso   1.000  Zn
  P136     1.0000 0.77982  0.94956  0.15590  Biso   1.000  P
  P137     1.0000 0.93715  0.85796  0.08760  Biso   1.000  P
  P138     1.0000 0.99381  0.79934  0.76250  Biso   1.000  P
  P139     1.0000 0.87425  0.92659  0.27330  Biso   1.000  P
  P140     1.0000 0.83454  0.86624  0.98370  Biso   1.000  P
  O406     1.0000 0.75077  0.95020  0.17260  Biso   1.000  O
  O407     1.0000 0.78842  0.95226  0.01050  Biso   1.000  O
  O408     1.0000 0.78939  0.92515  0.21190  Biso   1.000  O
  O409     1.0000 0.95230  0.84205  0.99070  Biso   1.000  O
  O410     1.0000 0.92249  0.84219  0.18270  Biso   1.000  O
  O411     1.0000 0.92130  0.87510  0.00390  Biso   1.000  O
  O412     1.0000 0.99463  0.80090  0.91430  Biso   1.000  O
  O413     1.0000 0.96779  0.80579  0.70320  Biso   1.000  O
  O414     1.0000 0.01551  0.81622  0.70850  Biso   1.000  O
  O415     1.0000 0.84947  0.92940  0.19740  Biso   1.000  O
  O416     1.0000 0.89019  0.90444  0.22610  Biso   1.000  O
  O417     1.0000 0.87180  0.92520  0.42050  Biso   1.000  O
  O418     1.0000 0.86210  0.86460  0.04100  Biso   1.000  O
  O419     1.0000 0.83340  0.86490  0.83730  Biso   1.000  O
  O420     1.0000 0.82030  0.88960  0.02700  Biso   1.000  O
  H136     1.0000 0.79070  0.96890  0.23210  Biso   1.000  H
  H137     1.0000 0.95120  0.86090  0.17320  Biso   1.000  H
  H138     1.0000 0.00940  0.77800  0.74520  Biso   1.000  H
  H139     1.0000 0.88450  0.95140  0.26260  Biso   1.000  H
  H140     1.0000 0.81670  0.85030  0.05300  Biso   1.000  H
  Zn85     1.0000 0.43953  0.71872  0.28708  Biso   1.000  Zn
  Zn86     1.0000 0.35964  0.63838  0.29589  Biso   1.000  Zn
  Zn87     1.0000 0.34399  0.57032  0.45159  Biso   1.000  Zn
  P141     1.0000 0.30044  0.52982  0.40590  Biso   1.000  P
  P142     1.0000 0.39204  0.68715  0.33760  Biso   1.000  P
  P143     1.0000 0.45066  0.74381  0.01250  Biso   1.000  P
  P144     1.0000 0.32341  0.62425  0.52330  Biso   1.000  P
  P145     1.0000 0.38376  0.58454  0.23370  Biso   1.000  P
  O421     1.0000 0.29980  0.50077  0.42260  Biso   1.000  O
  O422     1.0000 0.29774  0.53842  0.26050  Biso   1.000  O
  O423     1.0000 0.32485  0.53939  0.46190  Biso   1.000  O
  O424     1.0000 0.40795  0.70230  0.24070  Biso   1.000  O
  O425     1.0000 0.40781  0.67249  0.43270  Biso   1.000  O
  O426     1.0000 0.37490  0.67130  0.25390  Biso   1.000  O
  O427     1.0000 0.44910  0.74463  0.16430  Biso   1.000  O
  O428     1.0000 0.44421  0.71779  0.95320  Biso   1.000  O
  O429     1.0000 0.43378  0.76551  0.95850  Biso   1.000  O
  O430     1.0000 0.32060  0.59947  0.44740  Biso   1.000  O
  O431     1.0000 0.34556  0.64019  0.47610  Biso   1.000  O
  O432     1.0000 0.32480  0.62180  0.67050  Biso   1.000  O
  O433     1.0000 0.38540  0.61210  0.29100  Biso   1.000  O
  O434     1.0000 0.38510  0.58340  0.08730  Biso   1.000  O
  O435     1.0000 0.36040  0.57030  0.27700  Biso   1.000  O
  H141     1.0000 0.28110  0.54070  0.48210  Biso   1.000  H
  H142     1.0000 0.38910  0.70120  0.42320  Biso   1.000  H
  H143     1.0000 0.47200  0.75940  0.99520  Biso   1.000  H
  H144     1.0000 0.29860  0.63450  0.51260  Biso   1.000  H
  H145     1.0000 0.39970  0.56670  0.30300  Biso   1.000  H
  Zn88     1.0000 0.93953  0.21872  0.78708  Biso   1.000  Zn
  Zn89     1.0000 0.85964  0.13838  0.79589  Biso   1.000  Zn
  Zn90     1.0000 0.84399  0.07032  0.95159  Biso   1.000  Zn
  P146     1.0000 0.80044  0.02982  0.90590  Biso   1.000  P
  P147     1.0000 0.89204  0.18715  0.83760  Biso   1.000  P
  P148     1.0000 0.95066  0.24381  0.51250  Biso   1.000  P
  P149     1.0000 0.82341  0.12425  0.02330  Biso   1.000  P
  P150     1.0000 0.88376  0.08454  0.73370  Biso   1.000  P
  O436     1.0000 0.79980  0.00077  0.92260  Biso   1.000  O
  O437     1.0000 0.79774  0.03842  0.76050  Biso   1.000  O
  O438     1.0000 0.82485  0.03939  0.96190  Biso   1.000  O
  O439     1.0000 0.90795  0.20230  0.74070  Biso   1.000  O
  O440     1.0000 0.90781  0.17249  0.93270  Biso   1.000  O
  O441     1.0000 0.87490  0.17130  0.75390  Biso   1.000  O
  O442     1.0000 0.94910  0.24463  0.66430  Biso   1.000  O
  O443     1.0000 0.94421  0.21779  0.45320  Biso   1.000  O
  O444     1.0000 0.93378  0.26551  0.45850  Biso   1.000  O
  O445     1.0000 0.82060  0.09947  0.94740  Biso   1.000  O
  O446     1.0000 0.84556  0.14019  0.97610  Biso   1.000  O
  O447     1.0000 0.82480  0.12180  0.17050  Biso   1.000  O
  O448     1.0000 0.88540  0.11210  0.79100  Biso   1.000  O
  O449     1.0000 0.88510  0.08340  0.58730  Biso   1.000  O
  O450     1.0000 0.86040  0.07030  0.77700  Biso   1.000  O
  H146     1.0000 0.78110  0.04070  0.98210  Biso   1.000  H
  H147     1.0000 0.88910  0.20120  0.92320  Biso   1.000  H
  H148     1.0000 0.97200  0.25940  0.49520  Biso   1.000  H
  H149     1.0000 0.79860  0.13450  0.01260  Biso   1.000  H
  H150     1.0000 0.89970  0.06670  0.80300  Biso   1.000  H
  Zn91     1.0000 0.06047  0.28128  0.78708  Biso   1.000  Zn
  Zn92     1.0000 0.14036  0.36162  0.79589  Biso   1.000  Zn
  Zn93     1.0000 0.15601  0.42968  0.95159  Biso   1.000  Zn
  P151     1.0000 0.19956  0.47018  0.90590  Biso   1.000  P
  P152     1.0000 0.10796  0.31285  0.83760  Biso   1.000  P
  P153     1.0000 0.04934  0.25619  0.51250  Biso   1.000  P
  P154     1.0000 0.17659  0.37575  0.02330  Biso   1.000  P
  P155     1.0000 0.11624  0.41546  0.73370  Biso   1.000  P
  O451     1.0000 0.20020  0.49923  0.92260  Biso   1.000  O
  O452     1.0000 0.20226  0.46158  0.76050  Biso   1.000  O
  O453     1.0000 0.17515  0.46061  0.96190  Biso   1.000  O
  O454     1.0000 0.09205  0.29770  0.74070  Biso   1.000  O
  O455     1.0000 0.09219  0.32751  0.93270  Biso   1.000  O
  O456     1.0000 0.12510  0.32870  0.75390  Biso   1.000  O
  O457     1.0000 0.05090  0.25537  0.66430  Biso   1.000  O
  O458     1.0000 0.05579  0.28221  0.45320  Biso   1.000  O
  O459     1.0000 0.06622  0.23449  0.45850  Biso   1.000  O
  O460     1.0000 0.17940  0.40053  0.94740  Biso   1.000  O
  O461     1.0000 0.15444  0.35981  0.97610  Biso   1.000  O
  O462     1.0000 0.17520  0.37820  0.17050  Biso   1.000  O
  O463     1.0000 0.11460  0.38790  0.79100  Biso   1.000  O
  O464     1.0000 0.11490  0.41660  0.58730  Biso   1.000  O
  O465     1.0000 0.13960  0.42970  0.77700  Biso   1.000  O
  H151     1.0000 0.21890  0.45930  0.98210  Biso   1.000  H
  H152     1.0000 0.11090  0.29880  0.92320  Biso   1.000  H
  H153     1.0000 0.02800  0.24060  0.49520  Biso   1.000  H
  H154     1.0000 0.20140  0.36550  0.01260  Biso   1.000  H
  H155     1.0000 0.10030  0.43330  0.80300  Biso   1.000  H
  Zn94     1.0000 0.56047  0.78128  0.28708  Biso   1.000  Zn
  Zn95     1.0000 0.64036  0.86162  0.29589  Biso   1.000  Zn
  Zn96     1.0000 0.65601  0.92968  0.45159  Biso   1.000  Zn
  P156     1.0000 0.69956  0.97018  0.40590  Biso   1.000  P
  P157     1.0000 0.60796  0.81285  0.33760  Biso   1.000  P
  P158     1.0000 0.54934  0.75619  0.01250  Biso   1.000  P
  P159     1.0000 0.67659  0.87575  0.52330  Biso   1.000  P
  P160     1.0000 0.61624  0.91546  0.23370  Biso   1.000  P
  O466     1.0000 0.70020  0.99923  0.42260  Biso   1.000  O
  O467     1.0000 0.70226  0.96158  0.26050  Biso   1.000  O
  O468     1.0000 0.67515  0.96061  0.46190  Biso   1.000  O
  O469     1.0000 0.59205  0.79770  0.24070  Biso   1.000  O
  O470     1.0000 0.59219  0.82751  0.43270  Biso   1.000  O
  O471     1.0000 0.62510  0.82870  0.25390  Biso   1.000  O
  O472     1.0000 0.55090  0.75537  0.16430  Biso   1.000  O
  O473     1.0000 0.55579  0.78221  0.95320  Biso   1.000  O
  O474     1.0000 0.56622  0.73449  0.95850  Biso   1.000  O
  O475     1.0000 0.67940  0.90053  0.44740  Biso   1.000  O
  O476     1.0000 0.65444  0.85981  0.47610  Biso   1.000  O
  O477     1.0000 0.67520  0.87820  0.67050  Biso   1.000  O
  O478     1.0000 0.61460  0.88790  0.29100  Biso   1.000  O
  O479     1.0000 0.61490  0.91660  0.08730  Biso   1.000  O
  O480     1.0000 0.63960  0.92970  0.27700  Biso   1.000  O
  H156     1.0000 0.71890  0.95930  0.48210  Biso   1.000  H
  H157     1.0000 0.61090  0.79880  0.42320  Biso   1.000  H
  H158     1.0000 0.52800  0.74060  0.99520  Biso   1.000  H
  H159     1.0000 0.70140  0.86550  0.51260  Biso   1.000  H
  H160     1.0000 0.60030  0.93330  0.30300  Biso   1.000  H
  Ga1      1.0000 0.77425  0.47575  0.12500  Biso   1.000  Ga
  Ga2      1.0000 0.27425  0.97575  0.62500  Biso   1.000  Ga
  Ga3      1.0000 0.72575  0.52425  0.62500  Biso   1.000  Ga
  Ga4      1.0000 0.22575  0.02425  0.12500  Biso   1.000  Ga
  Ga5      1.0000 0.77425  0.52425  0.37500  Biso   1.000  Ga
  Ga6      1.0000 0.27425  0.02425  0.87500  Biso   1.000  Ga
  Ga7      1.0000 0.72575  0.47575  0.87500  Biso   1.000  Ga
  Ga8      1.0000 0.22575  0.97575  0.37500  Biso   1.000  Ga
  Ga9      1.0000 0.22575  0.52425  0.87500  Biso   1.000  Ga
  Ga10     1.0000 0.72575  0.02425  0.37500  Biso   1.000  Ga
  Ga11     1.0000 0.27425  0.47575  0.37500  Biso   1.000  Ga
  Ga12     1.0000 0.77425  0.97575  0.87500  Biso   1.000  Ga
  Ga13     1.0000 0.22575  0.47575  0.62500  Biso   1.000  Ga
  Ga14     1.0000 0.72575  0.97575  0.12500  Biso   1.000  Ga
  Ga15     1.0000 0.27425  0.52425  0.12500  Biso   1.000  Ga
  Ga16     1.0000 0.77425  0.02425  0.62500  Biso   1.000  Ga
  Zn97     1.0000 0.58518  0.33518  0.37500  Biso   1.000  Zn
  Zn98     1.0000 0.08518  0.83518  0.87500  Biso   1.000  Zn
  Zn99     1.0000 0.91482  0.66482  0.87500  Biso   1.000  Zn
  Zn100    1.0000 0.41482  0.16482  0.37500  Biso   1.000  Zn
  Zn101    1.0000 0.91482  0.33518  0.62500  Biso   1.000  Zn
  Zn102    1.0000 0.41482  0.83518  0.12500  Biso   1.000  Zn
  Zn103    1.0000 0.58518  0.66482  0.12500  Biso   1.000  Zn
  Zn104    1.0000 0.08518  0.16482  0.62500  Biso   1.000  Zn
  Zn105    1.0000 0.41482  0.66482  0.62500  Biso   1.000  Zn
  Zn106    1.0000 0.91482  0.16482  0.12500  Biso   1.000  Zn
  Zn107    1.0000 0.08518  0.33518  0.12500  Biso   1.000  Zn
  Zn108    1.0000 0.58518  0.83518  0.62500  Biso   1.000  Zn
  Zn109    1.0000 0.08518  0.66482  0.37500  Biso   1.000  Zn
  Zn110    1.0000 0.58518  0.16482  0.87500  Biso   1.000  Zn
  Zn111    1.0000 0.41482  0.33518  0.87500  Biso   1.000  Zn
  Zn112    1.0000 0.91482  0.83518  0.37500  Biso   1.000  Zn
  F1       1.0000 0.75000  0.49068  0.00000  Biso   1.000  F
  F2       1.0000 0.25000  0.99068  0.50000  Biso   1.000  F
  F3       1.0000 0.75000  0.50932  0.50000  Biso   1.000  F
  F4       1.0000 0.25000  0.00932  0.00000  Biso   1.000  F
  F5       1.0000 0.75932  0.50000  0.25000  Biso   1.000  F
  F6       1.0000 0.25932  0.00000  0.75000  Biso   1.000  F
  F7       1.0000 0.74068  0.50000  0.75000  Biso   1.000  F
  F8       1.0000 0.24068  0.00000  0.25000  Biso   1.000  F
  F9       1.0000 0.25000  0.50932  0.00000  Biso   1.000  F
  F10      1.0000 0.75000  0.00932  0.50000  Biso   1.000  F
  F11      1.0000 0.25000  0.49068  0.50000  Biso   1.000  F
  F12      1.0000 0.75000  0.99068  0.00000  Biso   1.000  F
  F13      1.0000 0.24068  0.50000  0.75000  Biso   1.000  F
  F14      1.0000 0.74068  0.00000  0.25000  Biso   1.000  F
  F15      1.0000 0.25932  0.50000  0.25000  Biso   1.000  F
  F16      1.0000 0.75932  0.00000  0.75000  Biso   1.000  F
