data_LETPOR01_ion_b
_audit_creation_date              2014-07-02
_audit_creation_method            'Materials Studio'
_symmetry_space_group_name_H-M    'P1'
_symmetry_Int_Tables_number       1
_symmetry_cell_setting            triclinic
loop_
_symmetry_equiv_pos_as_xyz
  x,y,z
_cell_length_a                    37.2320
_cell_length_b                    37.2320
_cell_length_c                    37.2320
_cell_angle_alpha                 91.0381
_cell_angle_beta                  91.0381
_cell_angle_gamma                 164.5290
loop_
_atom_site_label
_atom_site_type_symbol
_atom_site_fract_x
_atom_site_fract_y
_atom_site_fract_z
_atom_site_U_iso_or_equiv
_atom_site_adp_type
_atom_site_occupancy
Zn1    Zn    0.45209   0.35673   0.97055   0.00000  Uiso   1.00
Zn2    Zn    0.53832   0.28045   0.97509   0.00000  Uiso   1.00
Zn3    Zn    0.74832   0.40949   0.01819   0.00000  Uiso   1.00
P4     P     0.74133   0.31895   0.00748   0.00000  Uiso   1.00
P5     P     0.57031   0.39328   0.95137   0.00000  Uiso   1.00
P6     P     0.15330   0.10293   0.96071   0.00000  Uiso   1.00
P7     P     0.78045   0.47183   0.94520   0.00000  Uiso   1.00
P8     P     0.52887   0.24237   0.05031   0.00000  Uiso   1.00
O9     O     0.80843   0.35477   0.03778   0.00000  Uiso   1.00
O10    O     0.58366   0.16175   0.01484   0.00000  Uiso   1.00
O11    O     0.77246   0.38499   0.03391   0.00000  Uiso   1.00
O12    O     0.45896   0.31256   0.96704   0.00000  Uiso   1.00
O13    O     0.66332   0.47862   0.99021   0.00000  Uiso   1.00
O14    O     0.48564   0.27409   0.95413   0.00000  Uiso   1.00
O15    O     0.28369   0.20801   0.94746   0.00000  Uiso   1.00
O16    O     0.10162   0.01818   0.98076   0.00000  Uiso   1.00
O17    O     0.05744   0.00345   0.92170   0.00000  Uiso   1.00
O18    O     0.77122   0.42918   0.97142   0.00000  Uiso   1.00
O19    O     0.72114   0.44437   0.97219   0.00000  Uiso   1.00
O20    O     0.94228   0.63539   0.95874   0.00000  Uiso   1.00
O21    O     0.51662   0.26359   0.02222   0.00000  Uiso   1.00
O22    O     0.36666   0.07619   0.04416   0.00000  Uiso   1.00
O23    O     0.87740   0.67505   0.96110   0.00000  Uiso   1.00
O24    O     0.81068   0.67660   0.97070   0.00000  Uiso   1.00
O25    O     0.57144   0.25346   0.02122   0.00000  Uiso   1.00
N26    N     0.56306   0.48762   0.83340   0.00000  Uiso   1.00
N27    N     0.40486   0.03316   0.07684   0.00000  Uiso   1.00
C28    C     0.51807   0.40738   0.83768   0.00000  Uiso   1.00
C29    C     0.41595   0.03469   0.11510   0.00000  Uiso   1.00
C30    C     0.41342   0.06603   0.13911   0.00000  Uiso   1.00
C31    C     0.59419   0.41649   0.84670   0.00000  Uiso   1.00
C32    C     0.42724   0.06935   0.17918   0.00000  Uiso   1.00
C33    C     0.64016   0.49968   0.84450   0.00000  Uiso   1.00
C34    C     0.42322   0.09891   0.20358   0.00000  Uiso   1.00
C35    C     0.44160   0.10654   0.24345   0.00000  Uiso   1.00
H36    H     0.89053   0.66261   0.96919   0.00000  Uiso   1.00
H37    H     0.90033   0.76950   0.96376   0.00000  Uiso   1.00
H38    H     0.47831   0.42265   0.82889   0.00000  Uiso   1.00
H39    H     0.61648   0.54045   0.81108   0.00000  Uiso   1.00
H40    H     0.39543   0.00052   0.06111   0.00000  Uiso   1.00
H41    H     0.49223   0.13099   0.07188   0.00000  Uiso   1.00
H42    H     0.45067   0.33363   0.81279   0.00000  Uiso   1.00
H43    H     0.45856   0.34906   0.86095   0.00000  Uiso   1.00
H44    H     0.51288   0.11355   0.12289   0.00000  Uiso   1.00
H45    H     0.33011  -0.06601   0.11934   0.00000  Uiso   1.00
H46    H     0.31601  -0.01339   0.13162   0.00000  Uiso   1.00
H47    H     0.49854   0.16610   0.13459   0.00000  Uiso   1.00
H48    H     0.53866   0.35378   0.82026   0.00000  Uiso   1.00
H49    H     0.52683   0.34885   0.86801   0.00000  Uiso   1.00
H50    H     0.68434   0.48597   0.85350   0.00000  Uiso   1.00
H51    H     0.52482   0.14901   0.18661   0.00000  Uiso   1.00
H52    H     0.34250  -0.03058   0.18349   0.00000  Uiso   1.00
H53    H     0.70361   0.56293   0.82216   0.00000  Uiso   1.00
H54    H     0.70343   0.56850   0.87038   0.00000  Uiso   1.00
H55    H     0.32393   0.01704   0.19699   0.00000  Uiso   1.00
H56    H     0.50544   0.19706   0.19892   0.00000  Uiso   1.00
H57    H     0.36124   0.00989   0.24869   0.00000  Uiso   1.00
H58    H     0.43435   0.12404   0.26055   0.00000  Uiso   1.00
H59    H     0.54281   0.19164   0.25104   0.00000  Uiso   1.00
H60    H     0.69863   0.76760   0.14329   0.00000  Uiso   1.00
H61    H     0.89668   0.24943   0.93038   0.00000  Uiso   1.00
Zn62   Zn    0.38613   0.48143   0.02946   0.00000  Uiso   1.00
Zn63   Zn    0.30548   0.56327   0.02493   0.00000  Uiso   1.00
Zn64   Zn    0.39133   0.73009   0.98182   0.00000  Uiso   1.00
P65    P     0.31149   0.73380   0.99252   0.00000  Uiso   1.00
P66    P     0.44198   0.61893   0.04868   0.00000  Uiso   1.00
P67    P     0.14228   0.19257   0.03929   0.00000  Uiso   1.00
P68    P     0.52675   0.83529   0.05481   0.00000  Uiso   1.00
P69    P     0.19216   0.47860   0.94970   0.00000  Uiso   1.00
O70    O     0.31712   0.77073   0.96223   0.00000  Uiso   1.00
O71    O     0.14695   0.56881   0.98517   0.00000  Uiso   1.00
O72    O     0.35119   0.73859   0.96608   0.00000  Uiso   1.00
O73    O     0.34561   0.49195   0.03295   0.00000  Uiso   1.00
O74    O     0.48871   0.67335   0.00987   0.00000  Uiso   1.00
O75    O     0.32004   0.53151   0.04589   0.00000  Uiso   1.00
O76    O     0.26040   0.33607   0.05253   0.00000  Uiso   1.00
O77    O     0.03736   0.12070   0.01922   0.00000  Uiso   1.00
O78    O     0.08173   0.13565   0.07829   0.00000  Uiso   1.00
O79    O     0.45785   0.79980   0.02858   0.00000  Uiso   1.00
O80    O     0.47229   0.74897   0.02784   0.00000  Uiso   1.00
O81    O     0.67672   0.98352   0.04124   0.00000  Uiso   1.00
O82    O     0.24152   0.49447   0.97778   0.00000  Uiso   1.00
O83    O     0.03214   0.32252   0.95585   0.00000  Uiso   1.00
O84    O     0.71410   0.91648   0.03899   0.00000  Uiso   1.00
O85    O     0.70634   0.84046   0.02959   0.00000  Uiso   1.00
O86    O     0.23229   0.55021   0.97880   0.00000  Uiso   1.00
N87    N     0.65434   0.73000   0.16679   0.00000  Uiso   1.00
N88    N     0.95653   0.32815   0.92313   0.00000  Uiso   1.00
C89    C     0.56977   0.68065   0.16246   0.00000  Uiso   1.00
C90    C     0.91977   0.30092   0.88487   0.00000  Uiso   1.00
C91    C     0.92690   0.27415   0.86090   0.00000  Uiso   1.00
C92    C     0.56964   0.74751   0.15315   0.00000  Uiso   1.00
C93    C     0.89029   0.24799   0.82082   0.00000  Uiso   1.00
C94    C     0.65501   0.79565   0.15536   0.00000  Uiso   1.00
C95    C     0.89509   0.21917   0.79647   0.00000  Uiso   1.00
C96    C     0.86326   0.19805   0.75657   0.00000  Uiso   1.00
H97    H     0.69392  -0.07817   0.03077   0.00000  Uiso   1.00
H98    H     0.80618  -0.06289   0.03650   0.00000  Uiso   1.00
H99    H     0.59402   0.64993   0.17150   0.00000  Uiso   1.00
H100   H     0.72983   0.80617   0.18902   0.00000  Uiso   1.00
H101   H     0.93965   0.33450   0.93885   0.00000  Uiso   1.00
H102   H     1.05932   0.42048   0.92809   0.00000  Uiso   1.00
H103   H     0.52141   0.63877   0.18741   0.00000  Uiso   1.00
H104   H     0.48778   0.59738   0.13930   0.00000  Uiso   1.00
H105   H     0.99090   0.39008   0.87705   0.00000  Uiso   1.00
H106   H     0.81486   0.21090   0.88063   0.00000  Uiso   1.00
H107   H     0.85480   0.18412   0.86841   0.00000  Uiso   1.00
H108   H     1.03140   0.36365   0.86544   0.00000  Uiso   1.00
H109   H     0.53402   0.71917   0.17964   0.00000  Uiso   1.00
H110   H     0.48028   0.65835   0.13198   0.00000  Uiso   1.00
H111   H     0.63211   0.83060   0.14612   0.00000  Uiso   1.00
H112   H     0.96276   0.33829   0.81336   0.00000  Uiso   1.00
H113   H     0.78619   0.15915   0.81648   0.00000  Uiso   1.00
H114   H     0.74103   0.88194   0.17756   0.00000  Uiso   1.00
H115   H     0.69734   0.83233   0.12941   0.00000  Uiso   1.00
H116   H     0.81941   0.12620   0.80304   0.00000  Uiso   1.00
H117   H     0.99768   0.30573   0.80118   0.00000  Uiso   1.00
H118   H     0.76159   0.11277   0.75127   0.00000  Uiso   1.00
H119   H     0.86337   0.17340   0.73950   0.00000  Uiso   1.00
H120   H     0.94114   0.29193   0.74900   0.00000  Uiso   1.00
H121   H     0.62467   0.55580   0.85686   0.00000  Uiso   1.00
H122   H     0.31891  -0.03390   0.06963   0.00000  Uiso   1.00
Zn123  Zn    0.10677   0.63626   0.40471   0.00000  Uiso   1.00
Zn124  Zn    0.03050   0.55539   0.24217   0.00000  Uiso   1.00
Zn125  Zn    0.15941   0.64122   0.16124   0.00000  Uiso   1.00
P126   P     0.06907   0.56155   0.07768   0.00000  Uiso   1.00
P127   P     0.14327   0.69189   0.32300   0.00000  Uiso   1.00
P128   P     0.85298   0.39232   0.44973   0.00000  Uiso   1.00
P129   P     0.22176   0.77656   0.19144   0.00000  Uiso   1.00
P130   P     0.99249   0.44214   0.21356   0.00000  Uiso   1.00
O131   O     0.10476   0.56689   0.04642   0.00000  Uiso   1.00
O132   O     0.91187   0.39700   0.07819   0.00000  Uiso   1.00
O133   O     0.13494   0.60101   0.11261   0.00000  Uiso   1.00
O134   O     0.06260   0.59558   0.35367   0.00000  Uiso   1.00
O135   O     0.22859   0.73835   0.31535   0.00000  Uiso   1.00
O136   O     0.02405   0.56988   0.28850   0.00000  Uiso   1.00
O137   O     0.95802   0.51059   0.42439   0.00000  Uiso   1.00
O138   O     0.76820   0.28747   0.41666   0.00000  Uiso   1.00
O139   O     0.75347   0.33182   0.44609   0.00000  Uiso   1.00
O140   O     0.17907   0.70764   0.15804   0.00000  Uiso   1.00
O141   O     0.19446   0.72225   0.22330   0.00000  Uiso   1.00
O142   O     0.38530   0.92655   0.19312   0.00000  Uiso   1.00
O143   O     0.01369   0.49143   0.24703   0.00000  Uiso   1.00
O144   O     0.82632   0.28211   0.20959   0.00000  Uiso   1.00
O145   O     0.42513   0.96402   0.29776   0.00000  Uiso   1.00
O146   O     0.42665  -0.04418   0.36602   0.00000  Uiso   1.00
O147   O     0.00353   0.48229   0.18209   0.00000  Uiso   1.00
N148   N     0.23778   0.90446   0.42433   0.00000  Uiso   1.00
N149   N     0.78322   0.20637   0.12829   0.00000  Uiso   1.00
C150   C     0.15735   0.81972   0.38913   0.00000  Uiso   1.00
C151   C     0.78473   0.16959   0.11890   0.00000  Uiso   1.00
C152   C     0.81604   0.17704   0.15288   0.00000  Uiso   1.00
C153   C     0.16611   0.81927   0.32211   0.00000  Uiso   1.00
C154   C     0.81957   0.14045   0.14258   0.00000  Uiso   1.00
C155   C     0.24948   0.90486   0.35931   0.00000  Uiso   1.00
C156   C     0.84909   0.14577   0.17630   0.00000  Uiso   1.00
C157   C     0.85702   0.11376   0.16577   0.00000  Uiso   1.00
H158   H     0.41258  -0.05660   0.27218   0.00000  Uiso   1.00
H159   H     0.51947   0.05563   0.36925   0.00000  Uiso   1.00
H160   H     0.17291   0.84420   0.44413   0.00000  Uiso   1.00
H161   H     0.29075   0.97972   0.42367   0.00000  Uiso   1.00
H162   H     0.75062   0.18941   0.10501   0.00000  Uiso   1.00
H163   H     0.88106   0.30920   0.13872   0.00000  Uiso   1.00
H164   H     0.08382   0.77111   0.38273   0.00000  Uiso   1.00
H165   H     0.09878   0.73793   0.39041   0.00000  Uiso   1.00
H166   H     0.86362   0.24059   0.10086   0.00000  Uiso   1.00
H167   H     0.68403   0.06459   0.10406   0.00000  Uiso   1.00
H168   H     0.73655   0.10513   0.17083   0.00000  Uiso   1.00
H169   H     0.91604   0.28164   0.16781   0.00000  Uiso   1.00
H170   H     0.10360   0.78322   0.31490   0.00000  Uiso   1.00
H171   H     0.09826   0.73017   0.32191   0.00000  Uiso   1.00
H172   H     0.23546   0.88172   0.30143   0.00000  Uiso   1.00
H173   H     0.89936   0.21272   0.12472   0.00000  Uiso   1.00
H174   H     0.71974   0.03621   0.12740   0.00000  Uiso   1.00
H175   H     0.31302   0.99066   0.35903   0.00000  Uiso   1.00
H176   H     0.31804   0.94750   0.36490   0.00000  Uiso   1.00
H177   H     0.76705   0.07039   0.19365   0.00000  Uiso   1.00
H178   H     0.94712   0.24856   0.19223   0.00000  Uiso   1.00
H179   H     0.76041   0.01178   0.14954   0.00000  Uiso   1.00
H180   H     0.87471   0.11448   0.19061   0.00000  Uiso   1.00
H181   H     0.94210   0.19120   0.14966   0.00000  Uiso   1.00
H182   H     0.51721   0.87414   0.56895   0.00000  Uiso   1.00
H183   H    -0.00045   0.56933   0.85294   0.00000  Uiso   1.00
Zn184  Zn    0.23147   0.70204   0.59531   0.00000  Uiso   1.00
Zn185  Zn    0.31322   0.78830   0.75782   0.00000  Uiso   1.00
Zn186  Zn    0.48012  -0.00177   0.83877   0.00000  Uiso   1.00
P187   P     0.48391  -0.00865   0.92234   0.00000  Uiso   1.00
P188   P     0.36889   0.82022   0.67699   0.00000  Uiso   1.00
P189   P     0.94252   0.40326   0.55031   0.00000  Uiso   1.00
P190   P     0.58513   0.03028   0.80854   0.00000  Uiso   1.00
P191   P     0.22861   0.77891   0.78648   0.00000  Uiso   1.00
O192   O     0.52063   0.05839   0.95359   0.00000  Uiso   1.00
O193   O     0.31887   0.83367   0.92184   0.00000  Uiso   1.00
O194   O     0.48865   0.02248   0.88741   0.00000  Uiso   1.00
O195   O     0.24198   0.70908   0.64636   0.00000  Uiso   1.00
O196   O     0.42339   0.91352   0.68470   0.00000  Uiso   1.00
O197   O     0.28142   0.73555   0.71150   0.00000  Uiso   1.00
O198   O     0.08601   0.53352   0.57569   0.00000  Uiso   1.00
O199   O     0.87058   0.35139   0.58334   0.00000  Uiso   1.00
O200   O     0.88568   0.30740   0.55394   0.00000  Uiso   1.00
O201   O     0.54972   1.02107   0.84196   0.00000  Uiso   1.00
O202   O     0.49890   0.97108   0.77672   0.00000  Uiso   1.00
O203   O     0.73348   0.19216   0.80687   0.00000  Uiso   1.00
O204   O     0.24439   0.76660   0.75299   0.00000  Uiso   1.00
O205   O     0.07253   0.61670   0.79044   0.00000  Uiso   1.00
O206   O     0.66648   0.12751   0.70241   0.00000  Uiso   1.00
O207   O     0.59048   0.06093   0.63417   0.00000  Uiso   1.00
O208   O     0.30022   0.82141   0.81795   0.00000  Uiso   1.00
N209   N     0.47971   0.81311   0.57559   0.00000  Uiso   1.00
N210   N     0.07834   0.65551   0.87171   0.00000  Uiso   1.00
C211   C     0.43062   0.76824   0.61086   0.00000  Uiso   1.00
C212   C     0.05078   0.66624   0.88108   0.00000  Uiso   1.00
C213   C     0.02405   0.66335   0.84710   0.00000  Uiso   1.00
C214   C     0.49789   0.84468   0.67785   0.00000  Uiso   1.00
C215   C    -0.00245   0.67698   0.85738   0.00000  Uiso   1.00
C216   C     0.54576   0.89045   0.64059   0.00000  Uiso   1.00
C217   C    -0.03116   0.67245   0.82365   0.00000  Uiso   1.00
C218   C    -0.05299   0.69056   0.83416   0.00000  Uiso   1.00
H219   H     0.67163   0.14088   0.72795   0.00000  Uiso   1.00
H220   H     0.68715   0.15067   0.63099   0.00000  Uiso   1.00
H221   H     0.39953   0.72826   0.55586   0.00000  Uiso   1.00
H222   H     0.55590   0.86710   0.57618   0.00000  Uiso   1.00
H223   H     0.08518   0.64673   0.89502   0.00000  Uiso   1.00
H224   H     0.17052   0.74275   0.86117   0.00000  Uiso   1.00
H225   H     0.38891   0.70153   0.61730   0.00000  Uiso   1.00
H226   H     0.34728   0.70804   0.60967   0.00000  Uiso   1.00
H227   H     0.13978   0.76316   0.89912   0.00000  Uiso   1.00
H228   H    -0.03936   0.58037   0.89594   0.00000  Uiso   1.00
H229   H    -0.06579   0.56590   0.82917   0.00000  Uiso   1.00
H230   H     0.11368   0.74842   0.83215   0.00000  Uiso   1.00
H231   H     0.46959   0.78985   0.68507   0.00000  Uiso   1.00
H232   H     0.40877   0.77671   0.67815   0.00000  Uiso   1.00
H233   H     0.58112   0.93487   0.69847   0.00000  Uiso   1.00
H234   H     0.08768   0.77468   0.87521   0.00000  Uiso   1.00
H235   H    -0.09143   0.59237   0.87259   0.00000  Uiso   1.00
H236   H     0.63210   0.95462   0.64077   0.00000  Uiso   1.00
H237   H     0.58227   0.95295   0.63498   0.00000  Uiso   1.00
H238   H    -0.12381   0.57307   0.80632   0.00000  Uiso   1.00
H239   H     0.05568   0.75458   0.80771   0.00000  Uiso   1.00
H240   H    -0.13860   0.61025   0.85044   0.00000  Uiso   1.00
H241   H    -0.07749   0.68302   0.80931   0.00000  Uiso   1.00
H242   H     0.04053   0.79180   0.85021   0.00000  Uiso   1.00
H243   H     0.30584   0.94906   0.43094   0.00000  Uiso   1.00
H244   H     0.71613   0.14661   0.14714   0.00000  Uiso   1.00
Zn245  Zn    0.86376   0.39325   0.59531   0.00000  Uiso   1.00
Zn246  Zn    0.94465   0.46955   0.75784   0.00000  Uiso   1.00
Zn247  Zn    0.85874   0.34053   0.83880   0.00000  Uiso   1.00
P248   P     0.93857   0.43105   0.92237   0.00000  Uiso   1.00
P249   P     0.80810   0.35671   0.67701   0.00000  Uiso   1.00
P250   P     0.10764   0.64699   0.55029   0.00000  Uiso   1.00
P251   P     0.72339   0.27816   0.80858   0.00000  Uiso   1.00
P252   P     0.05795   0.50762   0.78648   0.00000  Uiso   1.00
O253   O     0.93307   0.39525   0.95365   0.00000  Uiso   1.00
O254   O     0.10313   0.58827   0.92189   0.00000  Uiso   1.00
O255   O     0.89893   0.36499   0.88745   0.00000  Uiso   1.00
O256   O     0.90441   0.43738   0.64635   0.00000  Uiso   1.00
O257   O     0.76165   0.27142   0.68467   0.00000  Uiso   1.00
O258   O     0.93012   0.47596   0.71151   0.00000  Uiso   1.00
O259   O     0.98947   0.54204   0.57566   0.00000  Uiso   1.00
O260   O     0.21257   0.73182   0.58334   0.00000  Uiso   1.00
O261   O     0.16816   0.74651   0.55393   0.00000  Uiso   1.00
O262   O     0.79234   0.32089   0.84199   0.00000  Uiso   1.00
O263   O     0.77784   0.30564   0.77672   0.00000  Uiso   1.00
O264   O     0.57340   0.11460   0.80685   0.00000  Uiso   1.00
O265   O     1.00863   0.48639   0.75299   0.00000  Uiso   1.00
O266   O     0.21796   0.67379   0.79043   0.00000  Uiso   1.00
O267   O     0.53606   0.07496   0.70228   0.00000  Uiso   1.00
O268   O     0.54420   0.07341   0.63402   0.00000  Uiso   1.00
O269   O     0.01779   0.49656   0.81795   0.00000  Uiso   1.00
N270   N     0.59578   0.26238   0.57558   0.00000  Uiso   1.00
N271   N     0.29361   0.71675   0.87172   0.00000  Uiso   1.00
C272   C     0.68034   0.34267   0.61081   0.00000  Uiso   1.00
C273   C     0.33041   0.71526   0.88111   0.00000  Uiso   1.00
C274   C     0.32297   0.68396   0.84714   0.00000  Uiso   1.00
C275   C     0.68038   0.33365   0.67784   0.00000  Uiso   1.00
C276   C     0.35969   0.68056   0.85745   0.00000  Uiso   1.00
C277   C     0.59496   0.25042   0.64062   0.00000  Uiso   1.00
C278   C     0.35434   0.65098   0.82373   0.00000  Uiso   1.00
C279   C     0.38658   0.64330   0.83427   0.00000  Uiso   1.00
H280   H     0.55665   1.08750   0.72787   0.00000  Uiso   1.00
H281   H     0.44438   0.98053   0.63077   0.00000  Uiso   1.00
H282   H     0.65619   0.32733   0.55579   0.00000  Uiso   1.00
H283   H     0.52057   0.20947   0.57618   0.00000  Uiso   1.00
H284   H     0.31062   0.74940   0.89499   0.00000  Uiso   1.00
H285   H     0.19078   0.61891   0.86129   0.00000  Uiso   1.00
H286   H     0.72907   0.41631   0.61718   0.00000  Uiso   1.00
H287   H     0.76204   0.40112   0.60961   0.00000  Uiso   1.00
H288   H     0.25943   0.63639   0.89916   0.00000  Uiso   1.00
H289   H     0.43541   0.81596   0.89595   0.00000  Uiso   1.00
H290   H     0.39484   0.76341   0.82918   0.00000  Uiso   1.00
H291   H     0.21836   0.58392   0.83222   0.00000  Uiso   1.00
H292   H     0.71661   0.39633   0.68502   0.00000  Uiso   1.00
H293   H     0.76934   0.40132   0.67811   0.00000  Uiso   1.00
H294   H     0.61774   0.26420   0.69852   0.00000  Uiso   1.00
H295   H     0.28752   0.60085   0.87533   0.00000  Uiso   1.00
H296   H     0.46397   0.78046   0.87260   0.00000  Uiso   1.00
H297   H     0.50929   0.18706   0.64083   0.00000  Uiso   1.00
H298   H     0.55212   0.18169   0.63506   0.00000  Uiso   1.00
H299   H     0.42956   0.73289   0.80635   0.00000  Uiso   1.00
H300   H     0.25148   0.55286   0.80784   0.00000  Uiso   1.00
H301   H     0.48863   0.74002   0.85047   0.00000  Uiso   1.00
H302   H     0.38584   0.62558   0.80943   0.00000  Uiso   1.00
H303   H     0.30930   0.55833   0.85041   0.00000  Uiso   1.00
H304   H     0.62562  -0.01758   0.43095   0.00000  Uiso   1.00
H305   H     0.93064   0.50041   0.14708   0.00000  Uiso   1.00
Zn306  Zn    0.79798   0.26856   0.40471   0.00000  Uiso   1.00
Zn307  Zn    0.71175   0.18682   0.24218   0.00000  Uiso   1.00
Zn308  Zn    0.50177   0.01991   0.16120   0.00000  Uiso   1.00
P309   P     0.50879   0.01620   0.07764   0.00000  Uiso   1.00
P310   P     0.67983   0.13118   0.32303   0.00000  Uiso   1.00
P311   P     0.09678   0.55752   0.44971   0.00000  Uiso   1.00
P312   P     0.46964   0.91481   0.19144   0.00000  Uiso   1.00
P313   P     0.72118   0.27148   0.21351   0.00000  Uiso   1.00
O314   O     0.44159  -0.02071   0.04636   0.00000  Uiso   1.00
O315   O     0.66641   0.18120   0.07810   0.00000  Uiso   1.00
O316   O     0.47745   1.01129   0.11256   0.00000  Uiso   1.00
O317   O     0.79098   0.25809   0.35366   0.00000  Uiso   1.00
O318   O     0.58653   0.07668   0.31532   0.00000  Uiso   1.00
O319   O     0.76449   0.21864   0.28852   0.00000  Uiso   1.00
O320   O     0.96646   0.41397   0.42435   0.00000  Uiso   1.00
O321   O     0.14859   0.62939   0.41665   0.00000  Uiso   1.00
O322   O     0.19261   0.61433   0.44609   0.00000  Uiso   1.00
O323   O     0.47888   0.95026   0.15802   0.00000  Uiso   1.00
O324   O     0.52893   1.00110   0.22329   0.00000  Uiso   1.00
O325   O     0.30782   0.76654   0.19317   0.00000  Uiso   1.00
O326   O     0.73339   0.25562   0.24700   0.00000  Uiso   1.00
O327   O     0.88341   0.42755   0.20956   0.00000  Uiso   1.00
O328   O     0.37259   0.83361   0.29760   0.00000  Uiso   1.00
O329   O     0.43921   0.90962   0.36586   0.00000  Uiso   1.00
O330   O     0.67860   0.19979   0.18204   0.00000  Uiso   1.00
N331   N     0.68654   0.01981   0.42427   0.00000  Uiso   1.00
N332   N     0.84450   0.42164   0.12830   0.00000  Uiso   1.00
C333   C     0.73165   0.06920   0.38905   0.00000  Uiso   1.00
C334   C     0.83374   0.44917   0.11893   0.00000  Uiso   1.00
C335   C     0.83664   0.47591   0.15292   0.00000  Uiso   1.00
C336   C     0.65560   0.00254   0.32206   0.00000  Uiso   1.00
C337   C     0.82305   0.50244   0.14264   0.00000  Uiso   1.00
C338   C     0.60959  -0.04559   0.35929   0.00000  Uiso   1.00
C339   C     0.82758   0.53117   0.17638   0.00000  Uiso   1.00
C340   C     0.80948   0.55300   0.16587   0.00000  Uiso   1.00
H341   H     0.35910   0.82834   0.27207   0.00000  Uiso   1.00
H342   H     0.34946   0.81297   0.36908   0.00000  Uiso   1.00
H343   H     0.77129   0.09980   0.44403   0.00000  Uiso   1.00
H344   H     0.63238  -0.05653   0.42359   0.00000  Uiso   1.00
H345   H     0.85340   0.41492   0.10499   0.00000  Uiso   1.00
H346   H     0.75724   0.32943   0.13882   0.00000  Uiso   1.00
H347   H     0.79808   0.11061   0.38255   0.00000  Uiso   1.00
H348   H     0.79219   0.15282   0.39035   0.00000  Uiso   1.00
H349   H     0.73683   0.36019   0.10089   0.00000  Uiso   1.00
H350   H     0.91960   0.53930   0.10407   0.00000  Uiso   1.00
H351   H     0.93410   0.56574   0.17085   0.00000  Uiso   1.00
H352   H     0.75158   0.38628   0.16787   0.00000  Uiso   1.00
H353   H     0.71005   0.03044   0.31479   0.00000  Uiso   1.00
H354   H     0.72399   0.09200   0.32186   0.00000  Uiso   1.00
H355   H     0.56556  -0.08039   0.30143   0.00000  Uiso   1.00
H356   H     0.72535   0.41231   0.12482   0.00000  Uiso   1.00
H357   H     0.90767   0.59142   0.12743   0.00000  Uiso   1.00
H358   H     0.54503  -0.13225   0.35902   0.00000  Uiso   1.00
H359   H     0.54742  -0.08175   0.36495   0.00000  Uiso   1.00
H360   H     0.92695   0.62380   0.19371   0.00000  Uiso   1.00
H361   H     0.74544   0.44432   0.19232   0.00000  Uiso   1.00
H362   H     0.88977   0.63859   0.14958   0.00000  Uiso   1.00
H363   H     0.81705   0.57752   0.19072   0.00000  Uiso   1.00
H364   H     0.70823   0.45948   0.14983   0.00000  Uiso   1.00
H365   H     0.55114   0.19427   0.56900   0.00000  Uiso   1.00
H366   H     0.35335   0.78382   0.85285   0.00000  Uiso   1.00
Zn367  Zn    0.01855   0.11382   0.97054   0.00000  Uiso   1.00
Zn368  Zn    0.93682   0.19460   0.97511   0.00000  Uiso   1.00
Zn369  Zn    0.77002   0.10875   0.01816   0.00000  Uiso   1.00
P370   P     0.76621   0.18852   0.00753   0.00000  Uiso   1.00
P371   P     0.88121   0.05815   0.95140   0.00000  Uiso   1.00
P372   P     0.30756   0.35784   0.96072   0.00000  Uiso   1.00
P373   P     0.66488   0.97339   0.94519   0.00000  Uiso   1.00
P374   P     0.02146   0.30789   0.05034   0.00000  Uiso   1.00
O375   O     0.72947   0.18304   0.03784   0.00000  Uiso   1.00
O376   O     0.93124   0.35303   0.01486   0.00000  Uiso   1.00
O377   O     0.76154   0.14889   0.03391   0.00000  Uiso   1.00
O378   O     0.00830   0.15461   0.96703   0.00000  Uiso   1.00
O379   O     0.82716   0.01173   0.99026   0.00000  Uiso   1.00
O380   O     0.96861   0.18007   0.95416   0.00000  Uiso   1.00
O381   O     0.16380   0.23933   0.94746   0.00000  Uiso   1.00
O382   O     0.37904   0.46244   0.98076   0.00000  Uiso   1.00
O383   O     0.36442   0.41836   0.92172   0.00000  Uiso   1.00
O384   O     0.70035   0.04228   0.97141   0.00000  Uiso   1.00
O385   O     0.75112   0.02780   0.97219   0.00000  Uiso   1.00
O386   O     0.51661   0.82342   0.95875   0.00000  Uiso   1.00
O387   O     1.00561   0.25856   0.02224   0.00000  Uiso   1.00
O388   O     0.17754   0.46792   0.04420   0.00000  Uiso   1.00
O389   O     0.58398   0.78623   0.96113   0.00000  Uiso   1.00
O390   O     0.66009   0.79407   0.97082   0.00000  Uiso   1.00
O391   O     0.94989   0.26780   0.02124   0.00000  Uiso   1.00
N392   N     0.76988   0.84555   0.83314   0.00000  Uiso   1.00
N393   N     0.17196   0.54359   0.07689   0.00000  Uiso   1.00
C394   C     0.81934   0.93021   0.83752   0.00000  Uiso   1.00
C395   C     0.19918   0.58033   0.11516   0.00000  Uiso   1.00
C396   C     0.22593   0.57318   0.13913   0.00000  Uiso   1.00
C397   C     0.75267   0.93053   0.84692   0.00000  Uiso   1.00
C398   C     0.25200   0.60971   0.17921   0.00000  Uiso   1.00
C399   C     0.70440   0.84505   0.84465   0.00000  Uiso   1.00
C400   C     0.28079   0.60488   0.20355   0.00000  Uiso   1.00
C401   C     0.30180   0.63659   0.24345   0.00000  Uiso   1.00
H402   H     0.57870   0.80653   0.96923   0.00000  Uiso   1.00
H403   H     0.56345   0.69428   0.96381   0.00000  Uiso   1.00
H404   H     0.84991   0.90582   0.82842   0.00000  Uiso   1.00
H405   H     0.69373   0.77011   0.81091   0.00000  Uiso   1.00
H406   H     0.16552   0.56038   0.06118   0.00000  Uiso   1.00
H407   H     0.07965   0.44081   0.07193   0.00000  Uiso   1.00
H408   H     0.86129   0.97865   0.81259   0.00000  Uiso   1.00
H409   H     0.90258   1.01213   0.86069   0.00000  Uiso   1.00
H410   H     0.10999   0.50917   0.12298   0.00000  Uiso   1.00
H411   H     0.28920   0.68524   0.11941   0.00000  Uiso   1.00
H412   H     0.31597   0.64529   0.13163   0.00000  Uiso   1.00
H413   H     0.13643   0.46868   0.13457   0.00000  Uiso   1.00
H414   H     0.78110   0.96627   0.82045   0.00000  Uiso   1.00
H415   H     0.84180   1.01982   0.86810   0.00000  Uiso   1.00
H416   H     0.66961   0.86810   0.85396   0.00000  Uiso   1.00
H417   H     0.16167   0.53720   0.18666   0.00000  Uiso   1.00
H418   H     0.34083   0.71380   0.18356   0.00000  Uiso   1.00
H419   H     0.61813   0.75909   0.82244   0.00000  Uiso   1.00
H420   H     0.66766   0.80263   0.87059   0.00000  Uiso   1.00
H421   H     0.37381   0.68062   0.19699   0.00000  Uiso   1.00
H422   H     0.19426   0.50230   0.19882   0.00000  Uiso   1.00
H423   H     0.38706   0.73825   0.24877   0.00000  Uiso   1.00
H424   H     0.32640   0.63643   0.26052   0.00000  Uiso   1.00
H425   H     0.20789   0.55867   0.25100   0.00000  Uiso   1.00
H426   H    -0.05582   0.87529   0.14310   0.00000  Uiso   1.00
H427   H     0.53397   0.18114   0.93038   0.00000  Uiso   1.00
Zn428  Zn    0.14328   0.04792   0.02945   0.00000  Uiso   1.00
Zn429  Zn    0.21951   0.96166   0.02491   0.00000  Uiso   1.00
Zn430  Zn    0.09061   0.75182   0.98184   0.00000  Uiso   1.00
P431   P     0.18112   0.75877   0.99251   0.00000  Uiso   1.00
P432   P     0.10679   0.92976   0.04868   0.00000  Uiso   1.00
P433   P     0.39706   0.34670   0.03927   0.00000  Uiso   1.00
P434   P     0.02835   0.71975   0.05484   0.00000  Uiso   1.00
P435   P     0.25756   0.97107   0.94968   0.00000  Uiso   1.00
O436   O     0.14531   0.69169   0.96218   0.00000  Uiso   1.00
O437   O     0.33835   0.91648   0.98519   0.00000  Uiso   1.00
O438   O     0.11504   0.72762   0.96609   0.00000  Uiso   1.00
O439   O     0.18740   0.04100   0.03295   0.00000  Uiso   1.00
O440   O     0.02129   0.83657   0.00986   0.00000  Uiso   1.00
O441   O     0.22595   0.01441   0.04590   0.00000  Uiso   1.00
O442   O     0.29205   0.21635   0.05252   0.00000  Uiso   1.00
O443   O     0.48187   0.39842   0.01922   0.00000  Uiso   1.00
O444   O     0.49656   0.44258   0.07827   0.00000  Uiso   1.00
O445   O     0.07094   0.72893   0.02860   0.00000  Uiso   1.00
O446   O     0.05563   0.77888   0.02782   0.00000  Uiso   1.00
O447   O     0.86479   0.55787   0.04132   0.00000  Uiso   1.00
O448   O     0.23638   0.98338   0.97778   0.00000  Uiso   1.00
O449   O     0.42373   0.13328   0.95582   0.00000  Uiso   1.00
O450   O     0.82483   0.62244   0.03895   0.00000  Uiso   1.00
O451   O     0.82336   0.68922   0.02947   0.00000  Uiso   1.00
O452   O     0.24655   0.92860   0.97879   0.00000  Uiso   1.00
N453   N     0.01232   0.93686   0.16656   0.00000  Uiso   1.00
N454   N     0.46688   0.09516   0.92316   0.00000  Uiso   1.00
C455   C     0.09256   0.98186   0.16230   0.00000  Uiso   1.00
C456   C     0.46533   0.08406   0.88490   0.00000  Uiso   1.00
C457   C     0.43399   0.08658   0.86088   0.00000  Uiso   1.00
C458   C     0.08345   0.90573   0.15329   0.00000  Uiso   1.00
C459   C     0.43059   0.07268   0.82082   0.00000  Uiso   1.00
C460   C     0.00026   0.85976   0.15547   0.00000  Uiso   1.00
C461   C     0.40104   0.07673   0.79643   0.00000  Uiso   1.00
C462   C     0.39328   0.05823   0.75656   0.00000  Uiso   1.00
H463   H     0.83726   0.60932   0.03079   0.00000  Uiso   1.00
H464   H     0.73044   0.59949   0.03638   0.00000  Uiso   1.00
H465   H     0.07729   1.02161   0.17108   0.00000  Uiso   1.00
H466   H    -0.04056   0.88340   0.18887   0.00000  Uiso   1.00
H467   H     0.49948   0.10454   0.93889   0.00000  Uiso   1.00
H468   H     0.36906   0.00781   0.92812   0.00000  Uiso   1.00
H469   H     0.16626   1.04920   0.18720   0.00000  Uiso   1.00
H470   H     0.15095   1.04143   0.13903   0.00000  Uiso   1.00
H471   H     0.38644  -0.01289   0.87711   0.00000  Uiso   1.00
H472   H     0.56604   0.16990   0.88065   0.00000  Uiso   1.00
H473   H     0.51341   0.18400   0.86837   0.00000  Uiso   1.00
H474   H     0.33394   0.00149   0.86541   0.00000  Uiso   1.00
H475   H     0.14612   0.96122   0.17974   0.00000  Uiso   1.00
H476   H     0.15113   0.97313   0.13199   0.00000  Uiso   1.00
H477   H     0.01397   0.81558   0.14649   0.00000  Uiso   1.00
H478   H     0.35087  -0.02493   0.81338   0.00000  Uiso   1.00
H479   H     0.53047   0.15738   0.81648   0.00000  Uiso   1.00
H480   H    -0.06305   0.79626   0.17779   0.00000  Uiso   1.00
H481   H    -0.06851   0.79654   0.12958   0.00000  Uiso   1.00
H482   H     0.48299   0.17607   0.80301   0.00000  Uiso   1.00
H483   H     0.30294  -0.00543   0.80111   0.00000  Uiso   1.00
H484   H     0.48988   0.13852   0.75129   0.00000  Uiso   1.00
H485   H     0.37580   0.06550   0.73946   0.00000  Uiso   1.00
H486   H     0.30814  -0.04301   0.74898   0.00000  Uiso   1.00
H487   H     0.73223   0.80119   0.85663   0.00000  Uiso   1.00
H488   H     0.25071   0.60348   0.06963   0.00000  Uiso   1.00
Zn489  Zn    0.29794   0.89330   0.52946   0.00000  Uiso   1.00
Zn490  Zn    0.21166   0.96952   0.52491   0.00000  Uiso   1.00
Zn491  Zn    1.00180   0.84061   0.48183   0.00000  Uiso   1.00
P492   P     1.00872   0.93106   0.49251   0.00000  Uiso   1.00
P493   P     0.17974   0.85676   0.54864   0.00000  Uiso   1.00
P494   P     0.59676   0.14712   0.53929   0.00000  Uiso   1.00
P495   P     0.96968   0.77828   0.55482   0.00000  Uiso   1.00
P496   P     0.22109   0.00757   0.44968   0.00000  Uiso   1.00
O497   O     0.94159   0.89521   0.46219   0.00000  Uiso   1.00
O498   O     0.16648   0.08835   0.48519   0.00000  Uiso   1.00
O499   O     0.97761   0.86504   0.46607   0.00000  Uiso   1.00
O500   O     0.29112   0.93751   0.53298   0.00000  Uiso   1.00
O501   O     0.08675   0.77143   0.50979   0.00000  Uiso   1.00
O502   O     0.26440   0.97594   0.54588   0.00000  Uiso   1.00
O503   O     0.46633   0.04198   0.55253   0.00000  Uiso   1.00
O504   O     0.64839   0.23185   0.51924   0.00000  Uiso   1.00
O505   O     0.69259   0.24658   0.57830   0.00000  Uiso   1.00
O506   O    -0.02112   0.82090   0.52859   0.00000  Uiso   1.00
O507   O     0.02888   0.80563   0.52781   0.00000  Uiso   1.00
O508   O     0.80782   0.61472   0.54129   0.00000  Uiso   1.00
O509   O     0.23340   0.98640   0.47777   0.00000  Uiso   1.00
O510   O     0.38329   0.17375   0.45581   0.00000  Uiso   1.00
O511   O     0.87253   0.57486   0.53889   0.00000  Uiso   1.00
O512   O     0.93929   0.57335   0.52927   0.00000  Uiso   1.00
O513   O     0.17862   0.99656   0.47879   0.00000  Uiso   1.00
N514   N     0.18690   0.76235   0.66659   0.00000  Uiso   1.00
N515   N     0.34516   0.21688   0.42315   0.00000  Uiso   1.00
C516   C     0.23191   0.84259   0.66231   0.00000  Uiso   1.00
C517   C     0.33407   0.21533   0.38489   0.00000  Uiso   1.00
C518   C     0.33660   0.18400   0.36088   0.00000  Uiso   1.00
C519   C     0.15579   0.83350   0.65327   0.00000  Uiso   1.00
C520   C     0.32272   0.18062   0.32081   0.00000  Uiso   1.00
C521   C     0.10982   0.75031   0.65548   0.00000  Uiso   1.00
C522   C     0.32675   0.15107   0.29642   0.00000  Uiso   1.00
C523   C     0.30827   0.14333   0.25655   0.00000  Uiso   1.00
H524   H     0.85955   0.58745   0.53080   0.00000  Uiso   1.00
H525   H     0.84963   0.48048   0.53621   0.00000  Uiso   1.00
H526   H     0.27165   0.82732   0.67111   0.00000  Uiso   1.00
H527   H     0.13348   0.70953   0.68891   0.00000  Uiso   1.00
H528   H     0.35452   0.24945   0.43887   0.00000  Uiso   1.00
H529   H     0.25783   0.11906   0.42811   0.00000  Uiso   1.00
H530   H     0.29928   0.91633   0.68720   0.00000  Uiso   1.00
H531   H     0.29144   0.90094   0.63904   0.00000  Uiso   1.00
H532   H     0.23713   0.13646   0.37710   0.00000  Uiso   1.00
H533   H     0.41990   0.31604   0.38064   0.00000  Uiso   1.00
H534   H     0.43401   0.26343   0.36836   0.00000  Uiso   1.00
H535   H     0.25150   0.08395   0.36540   0.00000  Uiso   1.00
H536   H     0.21132   0.89621   0.67971   0.00000  Uiso   1.00
H537   H     0.22316   0.90114   0.63197   0.00000  Uiso   1.00
H538   H     0.06564   0.76402   0.64646   0.00000  Uiso   1.00
H539   H     0.22511   0.10092   0.31337   0.00000  Uiso   1.00
H540   H     0.40741   0.28051   0.31648   0.00000  Uiso   1.00
H541   H     0.04636   0.68705   0.67781   0.00000  Uiso   1.00
H542   H     0.04656   0.68149   0.62960   0.00000  Uiso   1.00
H543   H     0.42608   0.23300   0.30300   0.00000  Uiso   1.00
H544   H     0.24459   0.05296   0.30109   0.00000  Uiso   1.00
H545   H     0.38858   0.23995   0.25129   0.00000  Uiso   1.00
H546   H     0.31554   0.12586   0.23944   0.00000  Uiso   1.00
H547   H     0.20703   0.05820   0.24897   0.00000  Uiso   1.00
H548   H     0.05136   0.48239   0.35670   0.00000  Uiso   1.00
H549   H     0.85340   1.00063   0.56963   0.00000  Uiso   1.00
Zn550  Zn    0.36387   0.76857   0.47056   0.00000  Uiso   1.00
Zn551  Zn    0.44447   0.68666   0.47508   0.00000  Uiso   1.00
Zn552  Zn    0.35873   0.51999   0.51814   0.00000  Uiso   1.00
P553   P     0.43843   0.51614   0.50749   0.00000  Uiso   1.00
P554   P     0.30808   0.63113   0.45132   0.00000  Uiso   1.00
P555   P     0.60777   0.05747   0.46072   0.00000  Uiso   1.00
P556   P     0.22329   0.41475   0.44516   0.00000  Uiso   1.00
P557   P     0.55780   0.77138   0.55032   0.00000  Uiso   1.00
O558   O     0.43299   0.47942   0.53781   0.00000  Uiso   1.00
O559   O     0.60298   0.68120   0.51482   0.00000  Uiso   1.00
O560   O     0.39891   0.51153   0.53388   0.00000  Uiso   1.00
O561   O     0.40448   0.75814   0.46705   0.00000  Uiso   1.00
O562   O     0.26138   0.57675   0.49014   0.00000  Uiso   1.00
O563   O     0.42999   0.71851   0.45411   0.00000  Uiso   1.00
O564   O     0.48955   0.91391   0.44747   0.00000  Uiso   1.00
O565   O     0.71265   0.12929   0.48078   0.00000  Uiso   1.00
O566   O     0.66831   0.11439   0.42172   0.00000  Uiso   1.00
O567   O     0.29226   0.45031   0.47139   0.00000  Uiso   1.00
O568   O     0.27765   0.50095   0.47216   0.00000  Uiso   1.00
O569   O     0.07332   0.26649   0.45873   0.00000  Uiso   1.00
O570   O     0.50846   0.75551   0.52222   0.00000  Uiso   1.00
O571   O     0.71785   0.92749   0.54419   0.00000  Uiso   1.00
O572   O     0.03597   0.33360   0.46103   0.00000  Uiso   1.00
O573   O     1.04363   0.40953   0.47045   0.00000  Uiso   1.00
O574   O     0.51775   0.69984   0.52122   0.00000  Uiso   1.00
N575   N     0.09564   0.51997   0.33320   0.00000  Uiso   1.00
N576   N     0.79351   0.92188   0.57689   0.00000  Uiso   1.00
C577   C     0.18023   0.56934   0.33754   0.00000  Uiso   1.00
C578   C     0.83025   0.94911   0.61516   0.00000  Uiso   1.00
C579   C     0.82313   0.97588   0.63913   0.00000  Uiso   1.00
C580   C     0.18041   0.50253   0.34688   0.00000  Uiso   1.00
C581   C     0.85962   1.00193   0.67921   0.00000  Uiso   1.00
C582   C     0.09502   0.45437   0.34466   0.00000  Uiso   1.00
C583   C     0.85482   1.03076   0.70355   0.00000  Uiso   1.00
C584   C     0.88649   1.05173   0.74344   0.00000  Uiso   1.00
H585   H     1.05613   0.32822   0.46923   0.00000  Uiso   1.00
H586   H     0.94381   0.31284   0.46350   0.00000  Uiso   1.00
H587   H     0.15594   0.60002   0.32847   0.00000  Uiso   1.00
H588   H     0.02014   0.44378   0.31097   0.00000  Uiso   1.00
H589   H     0.81033   0.91547   0.56118   0.00000  Uiso   1.00
H590   H     0.69072   0.82958   0.57194   0.00000  Uiso   1.00
H591   H     0.22858   0.61121   0.31259   0.00000  Uiso   1.00
H592   H     0.26223   0.65263   0.36069   0.00000  Uiso   1.00
H593   H     0.75911   0.85993   0.62298   0.00000  Uiso   1.00
H594   H     0.93516   1.03912   0.61941   0.00000  Uiso   1.00
H595   H     0.89526   1.06594   0.63163   0.00000  Uiso   1.00
H596   H     0.71863   0.88639   0.63456   0.00000  Uiso   1.00
H597   H     0.21603   0.53087   0.32039   0.00000  Uiso   1.00
H598   H     0.26978   0.59171   0.36804   0.00000  Uiso   1.00
H599   H     0.11796   0.41945   0.35392   0.00000  Uiso   1.00
H600   H     0.78708   0.91157   0.68667   0.00000  Uiso   1.00
H601   H     0.96369   1.09072   0.68357   0.00000  Uiso   1.00
H602   H     0.00899   0.36806   0.32247   0.00000  Uiso   1.00
H603   H     0.05271   0.41772   0.37062   0.00000  Uiso   1.00
H604   H     0.93061   1.12381   0.69699   0.00000  Uiso   1.00
H605   H     0.75227   0.94426   0.69881   0.00000  Uiso   1.00
H606   H     0.98815   1.13698   0.74878   0.00000  Uiso   1.00
H607   H     0.88634   1.07635   0.76052   0.00000  Uiso   1.00
H608   H     0.80855   0.95781   0.75100   0.00000  Uiso   1.00
H609   H     0.12530   0.69417   0.64314   0.00000  Uiso   1.00
H610   H     0.43116   0.28400   0.43038   0.00000  Uiso   1.00
Zn611  Zn    0.64324   0.61376   0.09529   0.00000  Uiso   1.00
Zn612  Zn    0.71950   0.69461   0.25783   0.00000  Uiso   1.00
Zn613  Zn    0.59048   0.60869   0.33878   0.00000  Uiso   1.00
P614   P     0.68099   0.68852   0.42233   0.00000  Uiso   1.00
P615   P     0.60670   0.55808   0.17699   0.00000  Uiso   1.00
P616   P     0.89697   0.85762   0.05028   0.00000  Uiso   1.00
P617   P     0.52817   0.47340   0.30857   0.00000  Uiso   1.00
P618   P     0.75753   0.80787   0.28646   0.00000  Uiso   1.00
O619   O     0.64518   0.68299   0.45361   0.00000  Uiso   1.00
O620   O     0.83823   0.85310   0.42189   0.00000  Uiso   1.00
O621   O     0.61488   0.64883   0.38739   0.00000  Uiso   1.00
O622   O     0.68735   0.65439   0.14634   0.00000  Uiso   1.00
O623   O     0.52136   0.51158   0.18464   0.00000  Uiso   1.00
O624   O     0.72593   0.68010   0.21149   0.00000  Uiso   1.00
O625   O     0.79203   0.73945   0.07564   0.00000  Uiso   1.00
O626   O     0.98182   0.96256   0.08332   0.00000  Uiso   1.00
O627   O     0.99650   0.91815   0.05391   0.00000  Uiso   1.00
O628   O     0.57081   0.54226   0.34198   0.00000  Uiso   1.00
O629   O     0.55562   0.52784   0.27672   0.00000  Uiso   1.00
O630   O     0.36462   0.32341   0.30685   0.00000  Uiso   1.00
O631   O     0.73631   0.75855   0.25299   0.00000  Uiso   1.00
O632   O     0.92370   0.96788   0.29041   0.00000  Uiso   1.00
O633   O     0.32492   0.28602   0.20226   0.00000  Uiso   1.00
O634   O     0.32342   0.29420   0.13399   0.00000  Uiso   1.00
O635   O     0.74651   0.76775   0.31793   0.00000  Uiso   1.00
N636   N     0.51224   0.34557   0.07566   0.00000  Uiso   1.00
N637   N     0.96674   0.04358   0.37170   0.00000  Uiso   1.00
C638   C     0.59266   0.43030   0.11086   0.00000  Uiso   1.00
C639   C     0.96525   0.08038   0.38109   0.00000  Uiso   1.00
C640   C     0.93395   0.07294   0.34712   0.00000  Uiso   1.00
C641   C     0.58390   0.43072   0.17789   0.00000  Uiso   1.00
C642   C     0.93050   0.10961   0.35741   0.00000  Uiso   1.00
C643   C     0.50053   0.34514   0.14069   0.00000  Uiso   1.00
C644   C     0.90098   0.10430   0.32370   0.00000  Uiso   1.00
C645   C     0.89315   0.13641   0.33423   0.00000  Uiso   1.00
H646   H     0.33737   0.30654   0.22784   0.00000  Uiso   1.00
H647   H     0.23055   0.19437   0.13074   0.00000  Uiso   1.00
H648   H     0.57711   0.40584   0.05586   0.00000  Uiso   1.00
H649   H     0.45928   0.27032   0.07632   0.00000  Uiso   1.00
H650   H     0.99938   0.06058   0.39498   0.00000  Uiso   1.00
H651   H     0.86890  -0.05924   0.36127   0.00000  Uiso   1.00
H652   H     0.66619   0.47890   0.11726   0.00000  Uiso   1.00
H653   H     0.65124   0.51208   0.10960   0.00000  Uiso   1.00
H654   H     0.88638   0.00940   0.39914   0.00000  Uiso   1.00
H655   H     1.06597   0.18539   0.39593   0.00000  Uiso   1.00
H656   H     1.01344   0.14484   0.32917   0.00000  Uiso   1.00
H657   H     0.83395  -0.03166   0.33218   0.00000  Uiso   1.00
H658   H     0.64640   0.46676   0.18509   0.00000  Uiso   1.00
H659   H     0.65176   0.51982   0.17809   0.00000  Uiso   1.00
H660   H     0.51456   0.36827   0.19857   0.00000  Uiso   1.00
H661   H     0.85074   0.03737   0.37528   0.00000  Uiso   1.00
H662   H     1.03036   0.21386   0.37258   0.00000  Uiso   1.00
H663   H     0.43699   0.25934   0.14096   0.00000  Uiso   1.00
H664   H     0.43197   0.30250   0.13510   0.00000  Uiso   1.00
H665   H     0.98297   0.17962   0.30634   0.00000  Uiso   1.00
H666   H     0.80290   0.00148   0.30778   0.00000  Uiso   1.00
H667   H     0.98979   0.23840   0.35045   0.00000  Uiso   1.00
H668   H     0.87546   0.13569   0.30939   0.00000  Uiso   1.00
H669   H     0.80811   0.05903   0.35034   0.00000  Uiso   1.00
H670   H     0.23283   0.37588   0.93105   0.00000  Uiso   1.00
H671   H     0.75040   0.68060   0.64707   0.00000  Uiso   1.00
Zn672  Zn    0.51852   0.54794   0.90469   0.00000  Uiso   1.00
Zn673  Zn    0.43680   0.46173   0.74217   0.00000  Uiso   1.00
Zn674  Zn    0.26987   0.25174   0.66120   0.00000  Uiso   1.00
P675   P     0.26609   0.25866   0.57762   0.00000  Uiso   1.00
P676   P     0.38108   0.42975   0.82301   0.00000  Uiso   1.00
P677   P     0.80743   0.84670   0.94969   0.00000  Uiso   1.00
P678   P     0.16480   0.21963   0.69144   0.00000  Uiso   1.00
P679   P     0.52142   0.47112   0.71350   0.00000  Uiso   1.00
O680   O     0.22928   0.19156   0.54637   0.00000  Uiso   1.00
O681   O     0.43114   0.41634   0.57811   0.00000  Uiso   1.00
O682   O     0.26135   0.22753   0.61256   0.00000  Uiso   1.00
O683   O     0.50798   0.54088   0.85363   0.00000  Uiso   1.00
O684   O     0.32659   0.33646   0.81528   0.00000  Uiso   1.00
O685   O     0.46857   0.51445   0.78850   0.00000  Uiso   1.00
O686   O     0.66396   0.71645   0.92429   0.00000  Uiso   1.00
O687   O     0.87941   0.89861   0.91665   0.00000  Uiso   1.00
O688   O     0.86426   0.94255   0.94608   0.00000  Uiso   1.00
O689   O     0.20021   0.22883   0.65802   0.00000  Uiso   1.00
O690   O     0.25107   0.27889   0.72327   0.00000  Uiso   1.00
O691   O     0.01651   0.05780   0.69316   0.00000  Uiso   1.00
O692   O     0.50563   0.48342   0.74699   0.00000  Uiso   1.00
O693   O     0.67747   0.63334   0.70954   0.00000  Uiso   1.00
O694   O     0.08349   0.12248   0.79757   0.00000  Uiso   1.00
O695   O     0.15955   0.18914   0.86583   0.00000  Uiso   1.00
O696   O     0.44973   0.42855   0.68203   0.00000  Uiso   1.00
N697   N     0.27035   0.43693   0.92442   0.00000  Uiso   1.00
N698   N     0.67162   0.59444   0.62830   0.00000  Uiso   1.00
C699   C     0.31938   0.48176   0.88915   0.00000  Uiso   1.00
C700   C     0.69918   0.58371   0.61892   0.00000  Uiso   1.00
C701   C     0.72593   0.58662   0.65291   0.00000  Uiso   1.00
C702   C     0.25202   0.40527   0.82215   0.00000  Uiso   1.00
C703   C     0.75248   0.57306   0.64264   0.00000  Uiso   1.00
C704   C     0.20420   0.35953   0.85942   0.00000  Uiso   1.00
C705   C     0.78119   0.57756   0.67637   0.00000  Uiso   1.00
C706   C     0.80308   0.55952   0.66586   0.00000  Uiso   1.00
H707   H     1.07827   0.10906   0.77203   0.00000  Uiso   1.00
H708   H     1.06291   0.09939   0.86905   0.00000  Uiso   1.00
H709   H     0.35055   0.52179   0.94416   0.00000  Uiso   1.00
H710   H     0.19418   0.38298   0.92385   0.00000  Uiso   1.00
H711   H     0.66485   0.60330   0.60499   0.00000  Uiso   1.00
H712   H     0.57942   0.50719   0.63883   0.00000  Uiso   1.00
H713   H     0.36114   0.54851   0.88272   0.00000  Uiso   1.00
H714   H     0.40269   0.54192   0.89032   0.00000  Uiso   1.00
H715   H     0.61019   0.48679   0.60089   0.00000  Uiso   1.00
H716   H     0.78930   0.66957   0.60407   0.00000  Uiso   1.00
H717   H     0.81576   0.68408   0.67084   0.00000  Uiso   1.00
H718   H     0.63628   0.50154   0.66786   0.00000  Uiso   1.00
H719   H     0.28033   0.46010   0.81494   0.00000  Uiso   1.00
H720   H     0.34113   0.47321   0.82184   0.00000  Uiso   1.00
H721   H     0.16877   0.31506   0.80153   0.00000  Uiso   1.00
H722   H     0.66238   0.47538   0.62481   0.00000  Uiso   1.00
H723   H     0.84147   0.65769   0.62743   0.00000  Uiso   1.00
H724   H     0.11789   0.29541   0.85925   0.00000  Uiso   1.00
H725   H     0.16763   0.29698   0.86502   0.00000  Uiso   1.00
H726   H     0.87379   0.67691   0.69371   0.00000  Uiso   1.00
H727   H     0.69431   0.49539   0.69230   0.00000  Uiso   1.00
H728   H     0.88871   0.63985   0.64958   0.00000  Uiso   1.00
H729   H     0.82759   0.56708   0.69071   0.00000  Uiso   1.00
H730   H     0.70959   0.45829   0.64981   0.00000  Uiso   1.00
H731   H     0.44418   0.30097   0.06906   0.00000  Uiso   1.00
H732   H     1.03379   0.10330   0.35283   0.00000  Uiso   1.00
Zn733  Zn    0.88625   0.85675   0.90470   0.00000  Uiso   1.00
Zn734  Zn    0.80534   0.78045   0.74216   0.00000  Uiso   1.00
Zn735  Zn    0.89116   0.90936   0.66123   0.00000  Uiso   1.00
P736   P     0.81141   0.81892   0.57766   0.00000  Uiso   1.00
P737   P     0.94186   0.89323   0.82298   0.00000  Uiso   1.00
P738   P     0.64231   0.60297   0.94971   0.00000  Uiso   1.00
P739   P     0.02651   0.97172   0.69142   0.00000  Uiso   1.00
P740   P     0.69208   0.74242   0.71354   0.00000  Uiso   1.00
O741   O     0.81691   0.85476   0.54640   0.00000  Uiso   1.00
O742   O     0.64685   0.66172   0.57815   0.00000  Uiso   1.00
O743   O     0.85090   0.88482   0.61258   0.00000  Uiso   1.00
O744   O     0.84558   0.81259   0.85365   0.00000  Uiso   1.00
O745   O     0.98828   0.97852   0.81533   0.00000  Uiso   1.00
O746   O     0.81980   0.77397   0.78849   0.00000  Uiso   1.00
O747   O     0.76054   0.70798   0.92436   0.00000  Uiso   1.00
O748   O     0.53741   0.51814   0.91665   0.00000  Uiso   1.00
O749   O     0.58183   0.50348   0.94607   0.00000  Uiso   1.00
O750   O     0.95761   0.92905   0.65802   0.00000  Uiso   1.00
O751   O     0.97221   0.94441   0.72329   0.00000  Uiso   1.00
O752   O     0.17651   0.13526   0.69311   0.00000  Uiso   1.00
O753   O     0.74133   0.76358   0.74702   0.00000  Uiso   1.00
O754   O     0.53206   0.57626   0.70958   0.00000  Uiso   1.00
O755   O     0.21392   0.17503   0.79772   0.00000  Uiso   1.00
O756   O     0.20584   0.17667   0.86599   0.00000  Uiso   1.00
O757   O     0.73225   0.75349   0.68207   0.00000  Uiso   1.00
N758   N     0.15425   0.98764   0.92441   0.00000  Uiso   1.00
N759   N     0.45631   0.53317   0.62828   0.00000  Uiso   1.00
C760   C     0.06966   0.90733   0.88918   0.00000  Uiso   1.00
C761   C     0.41952   0.53468   0.61888   0.00000  Uiso   1.00
C762   C     0.42696   0.56598   0.65285   0.00000  Uiso   1.00
C763   C     0.06956   0.91631   0.82216   0.00000  Uiso   1.00
C764   C     0.39034   0.56946   0.64254   0.00000  Uiso   1.00
C765   C     0.15501   0.99956   0.85937   0.00000  Uiso   1.00
C766   C     0.39568   0.59903   0.67626   0.00000  Uiso   1.00
C767   C     0.36352   0.60680   0.66573   0.00000  Uiso   1.00
H768   H     0.19333   0.16250   0.77214   0.00000  Uiso   1.00
H769   H     0.30566   0.26950   0.86921   0.00000  Uiso   1.00
H770   H     0.09386   0.92270   0.94419   0.00000  Uiso   1.00
H771   H     0.22947   1.04056   0.92379   0.00000  Uiso   1.00
H772   H     0.43936   0.50059   0.60500   0.00000  Uiso   1.00
H773   H     0.55914   0.63101   0.63871   0.00000  Uiso   1.00
H774   H     0.02092   0.83368   0.88281   0.00000  Uiso   1.00
H775   H    -0.01203   0.84889   0.89039   0.00000  Uiso   1.00
H776   H     0.49052   0.61355   0.60084   0.00000  Uiso   1.00
H777   H     0.31453   0.43398   0.60404   0.00000  Uiso   1.00
H778   H     0.35507   0.48651   0.67081   0.00000  Uiso   1.00
H779   H     0.53158   0.66600   0.66778   0.00000  Uiso   1.00
H780   H     0.03331   0.85362   0.81498   0.00000  Uiso   1.00
H781   H    -0.01941   0.84864   0.82191   0.00000  Uiso   1.00
H782   H     0.13218   0.98575   0.80148   0.00000  Uiso   1.00
H783   H     0.46256   0.64921   0.62467   0.00000  Uiso   1.00
H784   H     0.28608   0.46961   0.62738   0.00000  Uiso   1.00
H785   H     0.24068   1.06293   0.85915   0.00000  Uiso   1.00
H786   H     0.19784   1.06828   0.86494   0.00000  Uiso   1.00
H787   H     0.32041   0.51709   0.69363   0.00000  Uiso   1.00
H788   H     0.49852   0.69712   0.69216   0.00000  Uiso   1.00
H789   H     0.26147   0.51009   0.64952   0.00000  Uiso   1.00
H790   H     0.36429   0.62454   0.69057   0.00000  Uiso   1.00
H791   H     0.44083   0.69178   0.64959   0.00000  Uiso   1.00
H792   H     0.12441   0.26761   0.06905   0.00000  Uiso   1.00
H793   H     0.81930   0.74953   0.35293   0.00000  Uiso   1.00
Zn794  Zn    0.95200   0.98142   0.09527   0.00000  Uiso   1.00
Zn795  Zn    0.03827   0.06318   0.25781   0.00000  Uiso   1.00
Zn796  Zn    0.24821   0.23009   0.33878   0.00000  Uiso   1.00
P797   P     0.24130   0.23387   0.42233   0.00000  Uiso   1.00
P798   P     0.07013   0.11878   0.17696   0.00000  Uiso   1.00
P799   P     0.65316   0.69242   0.05028   0.00000  Uiso   1.00
P800   P     0.28028   0.33513   0.30853   0.00000  Uiso   1.00
P801   P     0.02887   0.97857   0.28647   0.00000  Uiso   1.00
O802   O     0.30836   0.27064   0.45361   0.00000  Uiso   1.00
O803   O     0.08355   0.06878   0.42185   0.00000  Uiso   1.00
O804   O     0.27244   0.23860   0.38742   0.00000  Uiso   1.00
O805   O     0.95898   0.99188   0.14632   0.00000  Uiso   1.00
O806   O     0.16342   0.17327   0.18467   0.00000  Uiso   1.00
O807   O     0.98547   0.03132   0.21147   0.00000  Uiso   1.00
O808   O     0.78352   0.83601   0.07563   0.00000  Uiso   1.00
O809   O     0.60141   0.62060   0.08334   0.00000  Uiso   1.00
O810   O     0.55732   0.63558   0.05392   0.00000  Uiso   1.00
O811   O     0.27101   0.29967   0.34196   0.00000  Uiso   1.00
O812   O     0.22110   0.24891   0.27671   0.00000  Uiso   1.00
O813   O     0.44216   0.48347   0.30684   0.00000  Uiso   1.00
O814   O     0.01655  -0.00569   0.25298   0.00000  Uiso   1.00
O815   O     0.86665   0.82248   0.29043   0.00000  Uiso   1.00
O816   O     0.37743   0.41639   0.20238   0.00000  Uiso   1.00
O817   O     0.31082   0.34036   0.13413   0.00000  Uiso   1.00
O818   O     0.07137   0.05019   0.31793   0.00000  Uiso   1.00
N819   N     0.06350   0.23024   0.07574   0.00000  Uiso   1.00
N820   N     0.90544   0.82830   0.37171   0.00000  Uiso   1.00
C821   C     0.01839   0.18083   0.11096   0.00000  Uiso   1.00
C822   C     0.91622   0.80079   0.38108   0.00000  Uiso   1.00
C823   C     0.91334   0.77407   0.34709   0.00000  Uiso   1.00
C824   C     0.09443   0.24747   0.17794   0.00000  Uiso   1.00
C825   C     0.92701   0.74762   0.35737   0.00000  Uiso   1.00
C826   C     0.14044   0.29562   0.14071   0.00000  Uiso   1.00
C827   C     0.92247   0.71888   0.32363   0.00000  Uiso   1.00
C828   C     0.94067   0.69715   0.33414   0.00000  Uiso   1.00
H829   H     0.39082   0.42156   0.22791   0.00000  Uiso   1.00
H830   H     0.40055   0.43701   0.13094   0.00000  Uiso   1.00
H831   H    -0.02125   0.15025   0.05598   0.00000  Uiso   1.00
H832   H     0.11767   0.30659   0.07643   0.00000  Uiso   1.00
H833   H     0.89662   0.83510   0.39502   0.00000  Uiso   1.00
H834   H     0.99269   0.92051   0.36118   0.00000  Uiso   1.00
H835   H    -0.04806   0.13940   0.11746   0.00000  Uiso   1.00
H836   H    -0.04215   0.09722   0.10965   0.00000  Uiso   1.00
H837   H     1.01316   0.88980   0.39911   0.00000  Uiso   1.00
H838   H     0.83038   0.71067   0.39594   0.00000  Uiso   1.00
H839   H     0.81588   0.68422   0.32916   0.00000  Uiso   1.00
H840   H     0.99839   0.86369   0.33214   0.00000  Uiso   1.00
H841   H     0.03996   0.21956   0.18522   0.00000  Uiso   1.00
H842   H     0.02605   0.15803   0.17814   0.00000  Uiso   1.00
H843   H     0.18447   0.33041   0.19857   0.00000  Uiso   1.00
H844   H     1.02473   0.83777   0.37519   0.00000  Uiso   1.00
H845   H     0.84243   0.65865   0.37258   0.00000  Uiso   1.00
H846   H     0.20499   0.38227   0.14099   0.00000  Uiso   1.00
H847   H     0.20262   0.33178   0.13505   0.00000  Uiso   1.00
H848   H     0.82307   0.62620   0.30631   0.00000  Uiso   1.00
H849   H     1.00456   0.80569   0.30768   0.00000  Uiso   1.00
H850   H     0.86039   0.61156   0.35043   0.00000  Uiso   1.00
H851   H     0.93313   0.67265   0.30930   0.00000  Uiso   1.00
H852   H     1.04193   0.79069   0.35019   0.00000  Uiso   1.00
H853   H     0.19890   1.05575   0.93099   0.00000  Uiso   1.00
H854   H     0.39655   0.46609   0.64714   0.00000  Uiso   1.00
Zn855  Zn    0.73148   0.13621   0.52946   0.00000  Uiso   1.00
Zn856  Zn    0.81318   0.05540   0.52489   0.00000  Uiso   1.00
Zn857  Zn    0.98003   0.14128   0.48180   0.00000  Uiso   1.00
P858   P     0.98380   0.06153   0.49250   0.00000  Uiso   1.00
P859   P     0.86885   0.19191   0.54860   0.00000  Uiso   1.00
P860   P     0.44250   0.89221   0.53929   0.00000  Uiso   1.00
P861   P     0.08517   0.27663   0.55478   0.00000  Uiso   1.00
P862   P     0.72850   0.94205   0.44967   0.00000  Uiso   1.00
O863   O     1.02073   0.06714   0.46226   0.00000  Uiso   1.00
O864   O     0.81877   0.89693   0.48514   0.00000  Uiso   1.00
O865   O    -0.01134   0.10130   0.46607   0.00000  Uiso   1.00
O866   O     0.74182   0.09552   0.53297   0.00000  Uiso   1.00
O867   O     0.92292   0.23834   0.50975   0.00000  Uiso   1.00
O868   O     0.78134   0.06990   0.54582   0.00000  Uiso   1.00
O869   O     0.58622   0.01065   0.55254   0.00000  Uiso   1.00
O870   O     0.37096   0.78755   0.51924   0.00000  Uiso   1.00
O871   O     0.38564   0.83171   0.57830   0.00000  Uiso   1.00
O872   O     0.04972   0.20777   0.52855   0.00000  Uiso   1.00
O873   O    -0.00111   0.22221   0.52780   0.00000  Uiso   1.00
O874   O     0.23347   0.42665   0.54123   0.00000  Uiso   1.00
O875   O     0.74442  -0.00854   0.47774   0.00000  Uiso   1.00
O876   O     0.57245   0.78204   0.45584   0.00000  Uiso   1.00
O877   O     0.16611   0.46384   0.53888   0.00000  Uiso   1.00
O878   O     0.08990   0.45591   0.52924   0.00000  Uiso   1.00
O879   O     0.80013   0.98222   0.47879   0.00000  Uiso   1.00
N880   N     0.98008   0.40443   0.66685   0.00000  Uiso   1.00
N881   N     0.57806   0.70643   0.42311   0.00000  Uiso   1.00
C882   C     0.93065   0.31978   0.66248   0.00000  Uiso   1.00
C883   C     0.55083   0.66969   0.38485   0.00000  Uiso   1.00
C884   C     0.52409   0.67684   0.36088   0.00000  Uiso   1.00
C885   C     0.99736   0.31950   0.65310   0.00000  Uiso   1.00
C886   C     0.49797   0.64028   0.32079   0.00000  Uiso   1.00
C887   C     1.04560   0.40496   0.65536   0.00000  Uiso   1.00
C888   C     0.46920   0.64513   0.29645   0.00000  Uiso   1.00
C889   C     0.44813   0.61336   0.25655   0.00000  Uiso   1.00
H890   H     0.17144   0.44360   0.53079   0.00000  Uiso   1.00
H891   H     0.18655   0.55571   0.53620   0.00000  Uiso   1.00
H892   H     0.90004   0.34414   0.67156   0.00000  Uiso   1.00
H893   H     1.05622   0.47985   0.68909   0.00000  Uiso   1.00
H894   H     0.58441   0.68955   0.43883   0.00000  Uiso   1.00
H895   H     0.67038   0.80921   0.42807   0.00000  Uiso   1.00
H896   H     0.88870   0.27135   0.68742   0.00000  Uiso   1.00
H897   H     0.84741   0.23785   0.63931   0.00000  Uiso   1.00
H898   H     0.64002   0.74084   0.37702   0.00000  Uiso   1.00
H899   H     0.46082   0.56478   0.38060   0.00000  Uiso   1.00
H900   H     0.43407   0.60476   0.36838   0.00000  Uiso   1.00
H901   H     0.61361   0.78136   0.36543   0.00000  Uiso   1.00
H902   H     0.96894   0.28378   0.67958   0.00000  Uiso   1.00
H903   H     0.90823   0.23020   0.63192   0.00000  Uiso   1.00
H904   H     1.08042   0.38194   0.64607   0.00000  Uiso   1.00
H905   H     0.58828   0.71276   0.31334   0.00000  Uiso   1.00
H906   H     0.40913   0.53618   0.31644   0.00000  Uiso   1.00
H907   H     1.13186   0.49092   0.67757   0.00000  Uiso   1.00
H908   H     1.08235   0.44738   0.62943   0.00000  Uiso   1.00
H909   H     0.37621   0.56943   0.30302   0.00000  Uiso   1.00
H910   H     0.55575   0.74772   0.30118   0.00000  Uiso   1.00
H911   H     0.36284   0.51168   0.25124   0.00000  Uiso   1.00
H912   H     0.42350   0.61349   0.23948   0.00000  Uiso   1.00
H913   H     0.54201   0.69124   0.24899   0.00000  Uiso   1.00
H914   H     0.80582   0.37471   0.35692   0.00000  Uiso   1.00
H915   H     0.21611   0.06893   0.56961   0.00000  Uiso   1.00
Zn916  Zn    0.60672   0.20210   0.47055   0.00000  Uiso   1.00
Zn917  Zn    0.53046   0.28833   0.47508   0.00000  Uiso   1.00
Zn918  Zn    0.65944   0.49826   0.51817   0.00000  Uiso   1.00
P919   P     0.56895   0.49134   0.50749   0.00000  Uiso   1.00
P920   P     0.64328   0.32032   0.45132   0.00000  Uiso   1.00
P921   P     0.35297   0.90334   0.46072   0.00000  Uiso   1.00
P922   P     0.72181   0.53043   0.44520   0.00000  Uiso   1.00
P923   P     0.49239   0.27889   0.55031   0.00000  Uiso   1.00
O924   O     0.60472   0.55838   0.53778   0.00000  Uiso   1.00
O925   O     0.41177   0.33367   0.51485   0.00000  Uiso   1.00
O926   O     0.63491   0.52235   0.53388   0.00000  Uiso   1.00
O927   O     0.56266   0.20907   0.46704   0.00000  Uiso   1.00
O928   O     0.72875   0.41348   0.49014   0.00000  Uiso   1.00
O929   O     0.52409   0.23564   0.45411   0.00000  Uiso   1.00
O930   O     0.45793   0.03365   0.44747   0.00000  Uiso   1.00
O931   O     0.26811   0.85154   0.48077   0.00000  Uiso   1.00
O932   O     0.25348   0.80746   0.42171   0.00000  Uiso   1.00
O933   O     0.67921   0.52123   0.47143   0.00000  Uiso   1.00
O934   O     0.69436   0.47113   0.47219   0.00000  Uiso   1.00
O935   O     0.88537   0.69226   0.45874   0.00000  Uiso   1.00
O936   O     0.51359   0.26662   0.52221   0.00000  Uiso   1.00
O937   O     0.32622   0.11669   0.54415   0.00000  Uiso   1.00
O938   O     0.92515   0.62755   0.46103   0.00000  Uiso   1.00
O939   O     0.92661   0.56077   0.47049   0.00000  Uiso   1.00
O940   O     0.50346   0.32144   0.52121   0.00000  Uiso   1.00
N941   N     0.73768   0.31313   0.33346   0.00000  Uiso   1.00
N942   N     0.28317   0.15488   0.57683   0.00000  Uiso   1.00
C943   C     0.65744   0.26813   0.33770   0.00000  Uiso   1.00
C944   C     0.28469   0.16596   0.61509   0.00000  Uiso   1.00
C945   C     0.31601   0.16341   0.63909   0.00000  Uiso   1.00
C946   C     0.66655   0.34427   0.34668   0.00000  Uiso   1.00
C947   C     0.31934   0.17723   0.67916   0.00000  Uiso   1.00
C948   C     0.74974   0.39023   0.34452   0.00000  Uiso   1.00
C949   C     0.34890   0.17321   0.70356   0.00000  Uiso   1.00
C950   C     0.35652   0.19158   0.74343   0.00000  Uiso   1.00
H951   H    -0.08724   0.64071   0.46920   0.00000  Uiso   1.00
H952   H     0.01957   0.65049   0.46361   0.00000  Uiso   1.00
H953   H     0.67271   0.22837   0.32895   0.00000  Uiso   1.00
H954   H     0.79055   0.36656   0.31114   0.00000  Uiso   1.00
H955   H     0.25050   0.14542   0.56110   0.00000  Uiso   1.00
H956   H     0.38101   0.24227   0.57187   0.00000  Uiso   1.00
H957   H     0.58375   0.20079   0.31280   0.00000  Uiso   1.00
H958   H     0.59904   0.20856   0.36096   0.00000  Uiso   1.00
H959   H     0.36355   0.26288   0.62288   0.00000  Uiso   1.00
H960   H     0.18399   0.08013   0.61933   0.00000  Uiso   1.00
H961   H     0.23660   0.06601   0.63160   0.00000  Uiso   1.00
H962   H     0.41609   0.24854   0.63457   0.00000  Uiso   1.00
H963   H     0.60390   0.28878   0.32023   0.00000  Uiso   1.00
H964   H     0.59887   0.27687   0.36798   0.00000  Uiso   1.00
H965   H     0.73603   0.43442   0.35348   0.00000  Uiso   1.00
H966   H     0.39900   0.27481   0.68660   0.00000  Uiso   1.00
H967   H     0.21941   0.09249   0.68347   0.00000  Uiso   1.00
H968   H     0.81306   0.45373   0.32220   0.00000  Uiso   1.00
H969   H     0.81850   0.45345   0.37041   0.00000  Uiso   1.00
H970   H     0.26701   0.07391   0.69696   0.00000  Uiso   1.00
H971   H     0.44704   0.25541   0.69890   0.00000  Uiso   1.00
H972   H     0.25988   0.11123   0.74868   0.00000  Uiso   1.00
H973   H     0.37400   0.18431   0.76053   0.00000  Uiso   1.00
H974   H     0.44163   0.29279   0.75103   0.00000  Uiso   1.00
H975   H     1.01774   0.44878   0.64336   0.00000  Uiso   1.00
H976   H     0.49935   0.64659   0.43037   0.00000  Uiso   1.00
Ga977  Ga    0.77157   0.27153   0.04321   0.00000  Uiso   1.00
Ga978  Ga    0.22852   0.72849   0.95682   0.00000  Uiso   1.00
Ga979  Ga    0.02168   0.47841   0.00000   0.00000  Uiso   1.00
Ga980  Ga    0.47831   0.02149  -0.00001   0.00000  Uiso   1.00
Ga981  Ga    0.97833   0.97838   0.45679   0.00000  Uiso   1.00
Ga982  Ga    0.52157   0.52158   0.54321   0.00000  Uiso   1.00
Ga983  Ga    0.72840   0.77165   0.49999   0.00000  Uiso   1.00
Ga984  Ga    0.27155   0.22836   0.50000   0.00000  Uiso   1.00
Zn985  Zn    0.83697   0.66294   0.00004   0.00000  Uiso   1.00
Zn986  Zn    0.66326   0.83722   0.00010   0.00000  Uiso   1.00
Zn987  Zn    0.41293   0.91284   0.32602   0.00000  Uiso   1.00
Zn988  Zn    0.58720   0.08712   0.67401   0.00000  Uiso   1.00
Zn989  Zn    0.91306   0.58709   0.49994   0.00000  Uiso   1.00
Zn990  Zn    0.08681   0.41284   0.49992   0.00000  Uiso   1.00
Zn991  Zn    0.33705   0.33711   0.17397   0.00000  Uiso   1.00
Zn992  Zn    0.16278   0.16287   0.82599   0.00000  Uiso   1.00
F993   F     0.62504   0.13705   0.01202   0.00000  Uiso   1.00
F994   F     0.12506   0.61298   0.98796   0.00000  Uiso   1.00
F995   F     0.88698   0.37492   0.01203   0.00000  Uiso   1.00
F996   F     0.36302   0.87502   0.98797   0.00000  Uiso   1.00
F997   F     0.12496   0.11294   0.48794   0.00000  Uiso   1.00
F998   F     0.62495   0.63707   0.51202   0.00000  Uiso   1.00
F999   F     0.86294   0.87495   0.48799   0.00000  Uiso   1.00
F1000  F     0.38699   0.37499   0.51200   0.00000  Uiso   1.00
loop_
_geom_bond_atom_site_label_1
_geom_bond_atom_site_label_2
_geom_bond_distance
_geom_bond_site_symmetry_2
_ccdc_geom_bond_type
Zn1    O12     1.895   .     S
Zn1    O15     1.850   .     S
Zn1    O749    1.867   .     S
Zn1    O443    1.852   1_556 S
Zn2    O14     1.885   .     S
Zn2    O19     1.889   .     S
Zn2    O449    1.851   .     S
Zn2    O21     1.800   1_556 S
Zn3    O11     1.888   .     S
Zn3    O25     1.854   .     S
Zn3    O447    1.892   .     S
Zn3    O18     1.787   1_554 S
P4     O9      1.647   .     S
P4     O10     1.638   .     S
P4     O11     1.654   .     D
P5     O12     1.642   .     S
P5     O13     1.619   .     S
P5     O14     1.645   .     D
P6     O15     1.632   .     S
P6     O16     1.628   .     S
P6     O17     1.644   .     D
P7     O18     1.615   .     S
P7     O19     1.642   .     S
P7     O20     1.642   .     D
P8     O21     1.623   .     S
P8     O22     1.637   .     S
P8     O25     1.635   .     D
O9     Ga977   1.834   .     S
O10    Ga980   1.816   .     S
O13    Zn985   1.825   1_556 S
O16    Zn428   1.853   1_556 S
O17    Zn733   1.866   1_445 S
O18    Zn3     1.787   1_556 S
O20    Zn430   1.892   1_655 S
O21    Zn2     1.800   1_554 S
O22    Zn429   1.852   1_545 S
O23    H36     0.990   .     S
O23    Zn985   1.835   1_556 S
O24    H37     0.991   .     S
O24    Zn985   1.831   1_556 D
N26    C28     1.462   .     S
N26    H38     1.044   .     S
N26    H39     1.046   .     S
N26    H121    1.045   .     S
N27    C29     1.461   .     S
N27    H40     1.043   .     S
N27    H41     1.044   .     S
N27    H122    1.044   .     S
C28    C33     1.534   .     S
C28    H42     1.112   .     S
C28    H43     1.113   .     S
C29    C30     1.532   .     S
C29    H44     1.112   .     S
C29    H45     1.113   .     S
C30    C32     1.533   .     S
C30    H46     1.112   .     S
C30    H47     1.112   .     S
C31    C33     1.525   .     S
C31    H48     1.111   .     S
C31    H49     1.110   .     S
C31    H50     1.110   .     S
C32    C34     1.531   .     S
C32    H51     1.112   .     S
C32    H52     1.112   .     S
C33    H53     1.112   .     S
C33    H54     1.112   .     S
C34    C35     1.525   .     S
C34    H55     1.112   .     S
C34    H56     1.111   .     S
C35    H57     1.110   .     S
C35    H58     1.110   .     S
C35    H59     1.111   .     S
H60    N87     1.045   .     S
H61    N88     1.044   .     S
Zn62   O73     1.895   .     S
Zn62   O76     1.850   .     S
Zn62   O810    1.866   .     S
Zn62   O382    1.853   1_554 S
Zn63   O75     1.885   .     S
Zn63   O80     1.889   .     S
Zn63   O388    1.852   .     S
Zn63   O82     1.801   1_554 S
Zn64   O72     1.888   .     S
Zn64   O86     1.854   .     S
Zn64   O386    1.892   .     S
Zn64   O79     1.786   1_556 D
P65    O70     1.648   .     S
P65    O71     1.637   .     S
P65    O72     1.654   .     D
P66    O73     1.642   .     S
P66    O74     1.619   .     S
P66    O75     1.644   .     D
P67    O76     1.632   .     S
P67    O77     1.628   .     S
P67    O78     1.644   .     D
P68    O79     1.615   .     S
P68    O80     1.642   .     S
P68    O81     1.642   .     D
P69    O82     1.623   .     S
P69    O83     1.637   .     S
P69    O86     1.635   .     D
O70    Ga978   1.833   .     S
O71    Ga979   1.813   1_556 S
O74    Zn986   1.825   .     S
O77    Zn367   1.853   1_554 S
O78    Zn794   1.867   1_445 D
O79    Zn64    1.786   1_554 D
O81    Zn369   1.892   1_565 S
O82    Zn63    1.801   1_556 S
O83    Zn368   1.852   1_455 S
O84    Zn986   1.835   .     S
O84    H97     0.990   1_565 S
O85    Zn986   1.831   .     S
O85    H98     0.991   1_565 D
N87    C89     1.461   .     S
N87    H99     1.044   .     S
N87    H100    1.046   .     S
N88    C90     1.460   .     S
N88    H101    1.043   .     S
N88    H102    1.044   .     S
C89    C94     1.534   .     S
C89    H103    1.113   .     S
C89    H104    1.113   .     S
C90    C91     1.532   .     S
C90    H105    1.112   .     S
C90    H106    1.113   .     S
C91    C93     1.532   .     S
C91    H107    1.112   .     S
C91    H108    1.112   .     S
C92    C94     1.525   .     S
C92    H109    1.110   .     S
C92    H110    1.110   .     S
C92    H111    1.109   .     S
C93    C95     1.532   .     S
C93    H112    1.112   .     S
C93    H113    1.112   .     S
C94    H114    1.112   .     S
C94    H115    1.112   .     S
C95    C96     1.526   .     S
C95    H116    1.112   .     S
C95    H117    1.111   .     S
C96    H118    1.110   .     S
C96    H119    1.110   .     S
C96    H120    1.111   .     S
H97    O84     0.990   1_545 S
H98    O85     0.991   1_545 D
Zn123  O134    1.895   .     S
Zn123  O321    1.853   .     S
Zn123  O932    1.866   .     S
Zn123  O137    1.851   1_455 S
Zn124  O136    1.886   .     S
Zn124  O141    1.889   .     S
Zn124  O143    1.801   .     S
Zn124  O327    1.851   1_455 S
Zn125  O133    1.887   .     S
Zn125  O140    1.786   .     S
Zn125  O147    1.853   .     S
Zn125  O325    1.893   .     S
P126   O131    1.648   .     S
P126   O133    1.654   .     D
P126   O132    1.638   1_455 S
P127   O134    1.642   .     S
P127   O135    1.620   .     S
P127   O136    1.644   .     D
P128   O137    1.632   .     S
P128   O138    1.629   .     S
P128   O139    1.644   .     D
P129   O140    1.615   .     S
P129   O141    1.643   .     S
P129   O142    1.642   .     D
P130   O144    1.637   .     S
P130   O143    1.623   1_655 S
P130   O147    1.635   1_655 S
O131   Ga979   1.835   .     S
O132   Ga977   1.817   .     S
O132   P126    1.638   1_655 S
O135   Zn987   1.825   .     S
O137   Zn123   1.851   1_655 S
O138   Zn306   1.853   .     S
O139   Zn916   1.866   .     S
O142   Zn308   1.892   1_565 S
O143   P130    1.623   1_455 S
O144   Zn307   1.851   .     S
O145   Zn987   1.835   .     S
O145   H158    0.990   1_565 S
O146   H159    0.991   .     S
O146   Zn987   1.830   1_545 S
O147   P130    1.635   1_455 S
N148   C150    1.462   .     S
N148   H160    1.044   .     S
N148   H161    1.046   .     S
N148   H243    1.045   .     S
N149   C151    1.460   .     S
N149   H162    1.043   .     S
N149   H163    1.044   .     S
N149   H244    1.044   .     S
C150   C155    1.534   .     S
C150   H164    1.112   .     S
C150   H165    1.114   .     S
C151   C152    1.532   .     S
C151   H166    1.112   .     S
C151   H167    1.113   .     S
C152   C154    1.532   .     S
C152   H168    1.112   .     S
C152   H169    1.112   .     S
C153   C155    1.525   .     S
C153   H170    1.111   .     S
C153   H171    1.110   .     S
C153   H172    1.109   .     S
C154   C156    1.531   .     S
C154   H173    1.112   .     S
C154   H174    1.112   .     S
C155   H175    1.112   .     S
C155   H176    1.112   .     S
C156   C157    1.525   .     S
C156   H177    1.112   .     S
C156   H178    1.111   .     S
C157   H179    1.110   .     S
C157   H180    1.110   .     S
C157   H181    1.111   .     S
H158   O145    0.990   1_545 S
H182   N209    1.045   .     S
H183   N210    1.044   .     S
Zn184  O195    1.895   .     S
Zn184  O198    1.850   .     S
Zn184  O260    1.853   .     S
Zn184  O871    1.867   .     S
Zn185  O197    1.885   .     S
Zn185  O202    1.889   .     S
Zn185  O204    1.800   .     S
Zn185  O266    1.851   .     S
Zn186  O194    1.888   .     S
Zn186  O264    1.892   .     S
Zn186  O201    1.786   1_545 S
Zn186  O208    1.854   1_545 S
P187   O192    1.647   .     S
P187   O194    1.654   .     D
P187   O193    1.638   1_545 S
P188   O195    1.642   .     S
P188   O196    1.620   .     S
P188   O197    1.644   .     D
P189   O199    1.628   .     S
P189   O200    1.644   .     D
P189   O198    1.632   1_655 S
P190   O203    1.642   .     D
P190   O201    1.615   1_545 S
P190   O202    1.642   1_545 S
P191   O204    1.623   .     S
P191   O205    1.637   .     S
P191   O208    1.635   .     D
O192   Ga980   1.835   1_556 S
O193   Ga978   1.816   .     S
O193   P187    1.638   1_565 S
O196   Zn988   1.825   1_565 S
O198   P189    1.632   1_455 S
O199   Zn245   1.853   .     S
O200   Zn855   1.866   .     S
O201   Zn186   1.786   1_565 S
O201   P190    1.615   1_565 S
O202   P190    1.642   1_565 S
O203   Zn247   1.893   .     S
O205   Zn246   1.851   1_455 S
O206   Zn988   1.835   .     S
O206   H219    0.990   .     S
O207   Zn988   1.830   .     S
O207   H220    0.991   .     S
O208   Zn186   1.854   1_565 S
N209   C211    1.462   .     S
N209   H221    1.044   .     S
N209   H222    1.045   .     S
N210   C212    1.460   .     S
N210   H223    1.043   .     S
N210   H224    1.044   .     S
C211   C216    1.534   .     S
C211   H225    1.113   .     S
C211   H226    1.113   .     S
C212   C213    1.532   .     S
C212   H227    1.112   .     S
C212   H228    1.114   .     S
C213   C215    1.533   .     S
C213   H229    1.112   .     S
C213   H230    1.112   .     S
C214   C216    1.525   .     S
C214   H231    1.111   .     S
C214   H232    1.110   .     S
C214   H233    1.110   .     S
C215   C217    1.531   .     S
C215   H234    1.112   .     S
C215   H235    1.112   .     S
C216   H236    1.112   .     S
C216   H237    1.112   .     S
C217   C218    1.525   .     S
C217   H238    1.112   .     S
C217   H239    1.111   .     S
C218   H240    1.110   .     S
C218   H241    1.111   .     S
C218   H242    1.111   .     S
Zn245  O256    1.895   .     S
Zn245  O259    1.850   .     S
Zn245  O505    1.866   .     S
Zn246  O258    1.885   .     S
Zn246  O263    1.888   .     S
Zn246  O265    1.800   .     S
Zn246  O205    1.851   1_655 S
Zn247  O255    1.888   .     S
Zn247  O262    1.786   .     S
Zn247  O269    1.854   1_655 S
P248   O253    1.647   .     S
P248   O255    1.654   .     D
P248   O254    1.638   1_655 S
P249   O256    1.642   .     S
P249   O257    1.619   .     S
P249   O258    1.644   .     D
P250   O260    1.629   .     S
P250   O261    1.644   .     D
P250   O259    1.632   1_455 S
P251   O262    1.615   .     S
P251   O263    1.642   .     S
P251   O264    1.642   .     D
P252   O266    1.637   .     S
P252   O269    1.635   .     D
P252   O265    1.623   1_455 S
O253   Ga979   1.833   1_656 S
O254   Ga978   1.816   .     S
O254   P248    1.638   1_455 S
O257   Zn988   1.825   .     S
O259   P250    1.632   1_655 S
O261   Zn489   1.867   .     S
O265   P252    1.623   1_655 S
O267   Zn988   1.835   .     S
O267   H280    0.990   1_545 S
O268   Zn988   1.831   .     S
O268   H281    0.991   1_545 S
O269   Zn247   1.854   1_455 S
N270   C272    1.462   .     S
N270   H282    1.044   .     S
N270   H283    1.046   .     S
N270   H365    1.045   .     S
N271   C273    1.460   .     S
N271   H284    1.043   .     S
N271   H285    1.044   .     S
N271   H366    1.044   .     S
C272   C277    1.534   .     S
C272   H286    1.113   .     S
C272   H287    1.113   .     S
C273   C274    1.532   .     S
C273   H288    1.112   .     S
C273   H289    1.113   .     S
C274   C276    1.533   .     S
C274   H290    1.112   .     S
C274   H291    1.112   .     S
C275   C277    1.525   .     S
C275   H292    1.111   .     S
C275   H293    1.110   .     S
C275   H294    1.110   .     S
C276   C278    1.532   .     S
C276   H295    1.112   .     S
C276   H296    1.112   .     S
C277   H297    1.112   .     S
C277   H298    1.112   .     S
C278   C279    1.525   .     S
C278   H299    1.112   .     S
C278   H300    1.111   .     S
C279   H301    1.110   .     S
C279   H302    1.111   .     S
C279   H303    1.111   .     S
H280   O267    0.990   1_565 S
H281   O268    0.991   1_565 S
H304   N331    1.045   .     S
H305   N332    1.044   .     S
Zn306  O317    1.895   .     S
Zn306  O320    1.850   .     S
Zn306  O566    1.867   .     S
Zn307  O319    1.886   .     S
Zn307  O326    1.801   .     S
Zn307  O324    1.889   1_545 S
Zn308  O330    1.854   .     S
Zn308  O142    1.892   1_545 S
Zn308  O316    1.887   1_545 S
Zn308  O323    1.786   1_545 S
P309   O314    1.647   .     S
P309   O315    1.637   .     S
P309   O316    1.655   1_545 S
P310   O317    1.642   .     S
P310   O318    1.620   .     S
P310   O319    1.644   .     D
P311   O321    1.629   .     S
P311   O322    1.644   .     D
P311   O320    1.632   1_455 D
P312   O323    1.615   .     S
P312   O324    1.643   .     S
P312   O325    1.642   .     D
P313   O326    1.623   .     S
P313   O327    1.637   .     S
P313   O330    1.635   .     D
O314   Ga980   1.834   .     S
O315   Ga977   1.814   .     S
O316   Zn308   1.887   1_565 S
O316   P309    1.655   1_565 S
O318   Zn987   1.825   1_545 D
O320   P311    1.632   1_655 D
O322   Zn550   1.867   .     S
O323   Zn308   1.786   1_565 S
O324   Zn307   1.889   1_565 S
O327   Zn124   1.851   1_655 S
O328   Zn987   1.835   .     S
O328   H341    0.990   .     S
O329   Zn987   1.831   .     S
O329   H342    0.991   .     S
N331   C333    1.461   .     S
N331   H343    1.044   .     S
N331   H344    1.046   .     S
N332   C334    1.460   .     S
N332   H345    1.043   .     S
N332   H346    1.044   .     S
C333   C338    1.534   .     S
C333   H347    1.113   .     S
C333   H348    1.114   .     S
C334   C335    1.532   .     S
C334   H349    1.112   .     S
C334   H350    1.114   .     S
C335   C337    1.532   .     S
C335   H351    1.112   .     S
C335   H352    1.112   .     S
C336   C338    1.525   .     S
C336   H353    1.110   .     S
C336   H354    1.110   .     S
C336   H355    1.109   .     S
C337   C339    1.532   .     S
C337   H356    1.112   .     S
C337   H357    1.112   .     S
C338   H358    1.112   .     S
C338   H359    1.112   .     S
C339   C340    1.525   .     S
C339   H360    1.112   .     S
C339   H361    1.111   .     S
C340   H362    1.110   .     S
C340   H363    1.110   .     S
C340   H364    1.111   .     S
Zn367  O378    1.895   .     S
Zn367  O381    1.850   .     S
Zn367  O77     1.853   1_556 S
Zn367  O688    1.866   1_445 D
Zn368  O380    1.885   .     S
Zn368  O385    1.889   .     S
Zn368  O83     1.852   1_655 S
Zn368  O387    1.800   1_556 S
Zn369  O377    1.887   .     S
Zn369  O391    1.854   .     S
Zn369  O81     1.892   1_545 S
Zn369  O384    1.786   1_554 D
P370   O375    1.647   .     S
P370   O376    1.637   .     S
P370   O377    1.654   .     D
P371   O379    1.619   .     S
P371   O380    1.644   .     D
P371   O378    1.642   1_655 S
P372   O381    1.632   .     S
P372   O382    1.628   .     S
P372   O383    1.644   .     D
P373   O386    1.642   .     D
P373   O384    1.615   1_565 S
P373   O385    1.642   1_565 S
P374   O388    1.637   .     S
P374   O387    1.623   1_455 S
P374   O391    1.635   1_455 S
O375   Ga977   1.834   .     S
O376   Ga979   1.816   1_655 S
O378   P371    1.642   1_455 S
O379   Zn986   1.825   1_546 S
O382   Zn62    1.853   1_556 S
O383   Zn672   1.867   .     S
O384   Zn369   1.786   1_556 D
O384   P373    1.615   1_545 S
O385   P373    1.642   1_545 S
O387   Zn368   1.800   1_554 S
O387   P374    1.623   1_655 S
O389   H402    0.991   .     S
O389   Zn986   1.835   1_556 S
O390   H403    0.991   .     S
O390   Zn986   1.830   1_556 S
O391   P374    1.635   1_655 S
N392   C394    1.461   .     S
N392   H404    1.044   .     S
N392   H405    1.046   .     S
N392   H487    1.045   .     S
N393   C395    1.461   .     S
N393   H406    1.043   .     S
N393   H407    1.044   .     S
N393   H488    1.044   .     S
C394   C399    1.535   .     S
C394   H408    1.112   .     S
C394   H409    1.113   .     S
C395   C396    1.532   .     S
C395   H410    1.112   .     S
C395   H411    1.113   .     S
C396   C398    1.532   .     S
C396   H412    1.112   .     S
C396   H413    1.112   .     S
C397   C399    1.525   .     S
C397   H414    1.110   .     S
C397   H415    1.110   .     S
C397   H416    1.110   .     S
C398   C400    1.531   .     S
C398   H417    1.112   .     S
C398   H418    1.112   .     S
C399   H419    1.112   .     S
C399   H420    1.112   .     S
C400   C401    1.525   .     S
C400   H421    1.112   .     S
C400   H422    1.111   .     S
C401   H423    1.110   .     S
C401   H424    1.110   .     S
C401   H425    1.111   .     S
H426   N453    1.045   .     S
H427   N454    1.044   .     S
Zn428  O439    1.895   .     S
Zn428  O442    1.850   .     S
Zn428  O16     1.853   1_554 S
Zn428  O627    1.866   1_445 S
Zn429  O446    1.889   .     S
Zn429  O22     1.852   1_565 S
Zn429  O441    1.886   1_565 S
Zn429  O448    1.800   1_554 S
Zn430  O438    1.888   .     S
Zn430  O452    1.853   .     S
Zn430  O20     1.892   1_455 S
Zn430  O445    1.786   1_556 S
P431   O436    1.648   .     S
P431   O437    1.638   .     S
P431   O438    1.654   .     D
P432   O440    1.620   .     S
P432   O439    1.642   1_565 S
P432   O441    1.644   1_565 S
P433   O442    1.633   .     S
P433   O443    1.629   .     S
P433   O444    1.644   .     D
P434   O445    1.615   .     S
P434   O446    1.642   .     S
P434   O447    1.642   1_455 S
P435   O448    1.623   .     S
P435   O452    1.635   .     D
P435   O449    1.637   1_565 S
O436   Ga978   1.835   .     S
O437   Ga980   1.814   1_566 S
O439   P432    1.642   1_545 S
O440   Zn985   1.825   1_455 S
O441   Zn429   1.886   1_545 S
O441   P432    1.644   1_545 S
O443   Zn1     1.852   1_554 S
O444   Zn611   1.867   .     S
O445   Zn430   1.786   1_554 S
O447   P434    1.642   1_655 S
O448   Zn429   1.800   1_556 S
O449   P435    1.637   1_545 S
O450   Zn985   1.835   .     S
O450   H463    0.990   .     S
O451   Zn985   1.831   .     S
O451   H464    0.991   .     S
N453   C455    1.462   .     S
N453   H465    1.044   .     S
N453   H466    1.046   .     S
N454   C456    1.460   .     S
N454   H467    1.043   .     S
N454   H468    1.044   .     S
C455   C460    1.534   .     S
C455   H469    1.113   .     S
C455   H470    1.113   .     S
C456   C457    1.532   .     S
C456   H471    1.112   .     S
C456   H472    1.113   .     S
C457   C459    1.532   .     S
C457   H473    1.112   .     S
C457   H474    1.112   .     S
C458   C460    1.525   .     S
C458   H475    1.111   .     S
C458   H476    1.110   .     S
C458   H477    1.110   .     S
C459   C461    1.532   .     S
C459   H478    1.112   .     S
C459   H479    1.112   .     S
C460   H480    1.112   .     S
C460   H481    1.112   .     S
C461   C462    1.525   .     S
C461   H482    1.112   .     S
C461   H483    1.111   .     S
C462   H484    1.111   .     S
C462   H485    1.110   .     S
C462   H486    1.111   .     S
Zn489  O500    1.895   .     S
Zn489  O931    1.853   .     S
Zn489  O503    1.850   1_565 S
Zn490  O502    1.886   .     S
Zn490  O507    1.888   .     S
Zn490  O509    1.800   .     S
Zn490  O937    1.851   1_565 S
Zn491  O499    1.887   .     S
Zn491  O935    1.892   .     S
Zn491  O506    1.786   1_655 S
Zn491  O513    1.854   1_655 S
P492   O497    1.648   .     S
P492   O499    1.654   .     D
P492   O498    1.638   1_665 S
P493   O500    1.642   .     S
P493   O501    1.619   .     S
P493   O502    1.644   .     D
P494   O503    1.632   .     S
P494   O504    1.629   .     S
P494   O505    1.644   .     D
P495   O508    1.642   .     D
P495   O506    1.615   1_655 S
P495   O507    1.642   1_655 D
P496   O510    1.637   .     S
P496   O509    1.623   1_545 S
P496   O513    1.635   1_545 S
O497   Ga981   1.835   .     S
O498   Ga984   1.814   .     S
O498   P492    1.638   1_445 S
O501   Zn989   1.825   1_455 S
O503   Zn489   1.850   1_545 S
O504   Zn916   1.853   .     S
O506   Zn491   1.786   1_455 S
O506   P495    1.615   1_455 S
O507   P495    1.642   1_455 D
O508   Zn918   1.893   .     S
O509   P496    1.623   1_565 S
O510   Zn917   1.851   .     S
O511   Zn989   1.835   .     S
O511   H524    0.990   .     S
O512   Zn989   1.831   .     S
O512   H525    0.991   .     S
O513   Zn491   1.854   1_455 S
O513   P496    1.635   1_565 S
N514   C516    1.461   .     S
N514   H526    1.044   .     S
N514   H527    1.046   .     S
N514   H609    1.045   .     S
N515   C517    1.460   .     S
N515   H528    1.043   .     S
N515   H529    1.044   .     S
N515   H610    1.044   .     S
C516   C521    1.535   .     S
C516   H530    1.113   .     S
C516   H531    1.113   .     S
C517   C518    1.532   .     S
C517   H532    1.112   .     S
C517   H533    1.114   .     S
C518   C520    1.532   .     S
C518   H534    1.112   .     S
C518   H535    1.112   .     S
C519   C521    1.525   .     S
C519   H536    1.111   .     S
C519   H537    1.110   .     S
C519   H538    1.110   .     S
C520   C522    1.531   .     S
C520   H539    1.112   .     S
C520   H540    1.112   .     S
C521   H541    1.112   .     S
C521   H542    1.112   .     S
C522   C523    1.525   .     S
C522   H543    1.112   .     S
C522   H544    1.111   .     S
C523   H545    1.111   .     S
C523   H546    1.110   .     S
C523   H547    1.111   .     S
H548   N575    1.045   .     S
H549   N576    1.044   .     S
Zn550  O561    1.895   .     S
Zn550  O564    1.850   .     S
Zn550  O870    1.852   .     S
Zn551  O563    1.886   .     S
Zn551  O568    1.889   .     S
Zn551  O570    1.800   .     S
Zn551  O876    1.852   .     S
Zn552  O560    1.888   .     S
Zn552  O567    1.786   .     S
Zn552  O574    1.853   .     S
Zn552  O874    1.892   .     S
P553   O558    1.648   .     S
P553   O559    1.638   .     S
P553   O560    1.653   .     D
P554   O561    1.642   .     S
P554   O562    1.620   .     S
P554   O563    1.645   .     D
P555   O565    1.628   .     S
P555   O566    1.644   .     D
P555   O564    1.632   1_545 S
P556   O567    1.615   .     S
P556   O568    1.642   .     S
P556   O569    1.642   .     D
P557   O570    1.623   .     S
P557   O571    1.637   .     S
P557   O574    1.635   .     D
O558   Ga982   1.835   .     S
O559   Ga983   1.817   .     S
O562   Zn990   1.825   .     S
O564   P555    1.632   1_565 S
O565   Zn855   1.852   .     S
O569   Zn857   1.891   1_455 S
O571   Zn856   1.852   1_565 S
O572   Zn990   1.834   .     S
O572   H585    0.990   1_455 S
O573   H586    0.991   .     S
O573   Zn990   1.831   1_655 S
N575   C577    1.461   .     S
N575   H587    1.044   .     S
N575   H588    1.046   .     S
N576   C578    1.461   .     S
N576   H589    1.043   .     S
N576   H590    1.045   .     S
C577   C582    1.534   .     S
C577   H591    1.112   .     S
C577   H592    1.113   .     S
C578   C579    1.532   .     S
C578   H593    1.112   .     S
C578   H594    1.113   .     S
C579   C581    1.532   .     S
C579   H595    1.112   .     S
C579   H596    1.112   .     S
C580   C582    1.525   .     S
C580   H597    1.110   .     S
C580   H598    1.110   .     S
C580   H599    1.110   .     S
C581   C583    1.532   .     S
C581   H600    1.112   .     S
C581   H601    1.112   .     S
C582   H602    1.112   .     S
C582   H603    1.112   .     S
C583   C584    1.525   .     S
C583   H604    1.112   .     S
C583   H605    1.111   .     S
C584   H606    1.111   .     S
C584   H607    1.111   .     S
C584   H608    1.111   .     S
H585   O572    0.990   1_655 S
Zn611  O622    1.895   .     S
Zn611  O625    1.851   .     S
Zn611  O809    1.853   .     S
Zn612  O624    1.886   .     S
Zn612  O629    1.888   .     S
Zn612  O631    1.800   .     S
Zn612  O815    1.852   .     S
Zn613  O621    1.887   .     S
Zn613  O628    1.786   .     S
Zn613  O635    1.854   .     S
Zn613  O813    1.892   .     S
P614   O619    1.647   .     S
P614   O620    1.638   .     S
P614   O621    1.655   .     D
P615   O622    1.642   .     S
P615   O623    1.619   .     S
P615   O624    1.644   .     D
P616   O625    1.632   .     S
P616   O626    1.629   .     S
P616   O627    1.644   .     D
P617   O628    1.615   .     S
P617   O629    1.642   .     S
P617   O630    1.642   .     D
P618   O631    1.623   .     S
P618   O632    1.637   .     S
P618   O635    1.635   .     D
O619   Ga983   1.834   .     S
O620   Ga981   1.814   .     S
O623   Zn991   1.825   .     S
O626   Zn794   1.853   .     S
O627   Zn428   1.866   1_665 S
O630   Zn796   1.892   .     S
O632   Zn795   1.852   1_665 S
O633   Zn991   1.835   .     S
O633   H646    0.990   .     S
O634   Zn991   1.830   .     S
O634   H647    0.991   .     S
N636   C638    1.461   .     S
N636   H648    1.044   .     S
N636   H649    1.046   .     S
N636   H731    1.044   .     S
N637   C639    1.460   .     S
N637   H650    1.043   .     S
N637   H651    1.044   .     S
N637   H732    1.044   .     S
C638   C643    1.534   .     S
C638   H652    1.113   .     S
C638   H653    1.113   .     S
C639   C640    1.532   .     S
C639   H654    1.112   .     S
C639   H655    1.114   .     S
C640   C642    1.532   .     S
C640   H656    1.112   .     S
C640   H657    1.112   .     S
C641   C643    1.525   .     S
C641   H658    1.110   .     S
C641   H659    1.110   .     S
C641   H660    1.109   .     S
C642   C644    1.531   .     S
C642   H661    1.112   .     S
C642   H662    1.112   .     S
C643   H663    1.112   .     S
C643   H664    1.112   .     S
C644   C645    1.525   .     S
C644   H665    1.112   .     S
C644   H666    1.111   .     S
C645   H667    1.110   .     S
C645   H668    1.110   .     S
C645   H669    1.111   .     S
H670   N697    1.045   .     S
H671   N698    1.044   .     S
Zn672  O683    1.896   .     S
Zn672  O686    1.850   .     S
Zn672  O748    1.853   .     S
Zn673  O685    1.886   .     S
Zn673  O690    1.889   .     S
Zn673  O692    1.800   .     S
Zn673  O754    1.851   .     S
Zn674  O682    1.887   .     S
Zn674  O689    1.786   .     S
Zn674  O696    1.854   .     S
Zn674  O752    1.892   .     S
P675   O680    1.646   .     S
P675   O681    1.638   .     S
P675   O682    1.654   .     D
P676   O683    1.642   .     S
P676   O684    1.620   .     S
P676   O685    1.645   .     D
P677   O686    1.632   .     S
P677   O687    1.629   .     S
P677   O688    1.644   .     D
P678   O689    1.615   .     S
P678   O690    1.642   .     S
P678   O691    1.642   .     D
P679   O692    1.623   .     S
P679   O693    1.637   .     S
P679   O696    1.635   .     D
O680   Ga984   1.834   .     S
O681   Ga982   1.814   .     S
O684   Zn992   1.825   .     S
O687   Zn733   1.854   .     S
O688   Zn367   1.866   1_665 D
O691   Zn735   1.893   1_445 S
O693   Zn734   1.851   .     S
O694   Zn992   1.835   .     S
O694   H707    0.990   1_455 S
O695   Zn992   1.831   .     S
O695   H708    0.991   1_455 S
N697   C699    1.461   .     S
N697   H709    1.044   .     S
N697   H710    1.046   .     S
N698   C700    1.460   .     S
N698   H711    1.043   .     S
N698   H712    1.044   .     S
C699   C704    1.534   .     S
C699   H713    1.113   .     S
C699   H714    1.113   .     S
C700   C701    1.532   .     S
C700   H715    1.112   .     S
C700   H716    1.113   .     S
C701   C703    1.532   .     S
C701   H717    1.112   .     S
C701   H718    1.112   .     S
C702   C704    1.525   .     S
C702   H719    1.110   .     S
C702   H720    1.110   .     S
C702   H721    1.110   .     S
C703   C705    1.532   .     S
C703   H722    1.112   .     S
C703   H723    1.112   .     S
C704   H724    1.112   .     S
C704   H725    1.112   .     S
C705   C706    1.525   .     S
C705   H726    1.112   .     S
C705   H727    1.111   .     S
C706   H728    1.110   .     S
C706   H729    1.110   .     S
C706   H730    1.111   .     S
H707   O694    0.990   1_655 S
H708   O695    0.991   1_655 S
Zn733  O744    1.895   .     S
Zn733  O747    1.850   .     S
Zn733  O17     1.866   1_665 S
Zn734  O746    1.886   .     S
Zn734  O751    1.889   .     S
Zn734  O753    1.800   .     S
Zn735  O743    1.888   .     S
Zn735  O750    1.786   .     S
Zn735  O757    1.853   .     S
Zn735  O691    1.893   1_665 S
P736   O741    1.648   .     S
P736   O742    1.638   .     S
P736   O743    1.653   .     D
P737   O744    1.642   .     S
P737   O745    1.620   .     S
P737   O746    1.644   .     D
P738   O747    1.632   .     S
P738   O748    1.629   .     S
P738   O749    1.644   .     D
P739   O750    1.615   1_455 S
P739   O751    1.642   1_455 S
P739   O752    1.642   1_565 S
P740   O753    1.623   .     S
P740   O754    1.637   .     S
P740   O757    1.635   .     D
O741   Ga983   1.834   .     S
O742   Ga982   1.816   .     S
O745   Zn992   1.825   1_665 S
O750   P739    1.615   1_655 S
O751   P739    1.642   1_655 S
O752   P739    1.642   1_545 S
O755   Zn992   1.835   .     S
O755   H768    0.990   .     S
O756   Zn992   1.830   .     S
O756   H769    0.991   .     S
N758   C760    1.462   .     S
N758   H770    1.044   .     S
N758   H771    1.046   .     S
N758   H853    1.045   .     S
N759   C761    1.461   .     S
N759   H772    1.043   .     S
N759   H773    1.044   .     S
N759   H854    1.044   .     S
C760   C765    1.534   .     S
C760   H774    1.113   .     S
C760   H775    1.113   .     S
C761   C762    1.532   .     S
C761   H776    1.111   .     S
C761   H777    1.113   .     S
C762   C764    1.532   .     S
C762   H778    1.112   .     S
C762   H779    1.112   .     S
C763   C765    1.525   .     S
C763   H780    1.110   .     S
C763   H781    1.110   .     S
C763   H782    1.110   .     S
C764   C766    1.532   .     S
C764   H783    1.112   .     S
C764   H784    1.112   .     S
C765   H785    1.112   .     S
C765   H786    1.112   .     S
C766   C767    1.525   .     S
C766   H787    1.112   .     S
C766   H788    1.111   .     S
C767   H789    1.111   .     S
C767   H790    1.110   .     S
C767   H791    1.111   .     S
H792   N819    1.045   .     S
H793   N820    1.044   .     S
Zn794  O805    1.895   .     S
Zn794  O808    1.850   .     S
Zn794  O78     1.867   1_665 D
Zn795  O812    1.889   .     S
Zn795  O814    1.801   .     S
Zn795  O632    1.852   1_445 S
Zn795  O807    1.886   1_455 S
Zn796  O804    1.888   .     S
Zn796  O811    1.787   .     S
Zn796  O818    1.854   .     S
P797   O802    1.647   .     S
P797   O803    1.638   .     S
P797   O804    1.653   .     D
P798   O806    1.619   .     S
P798   O805    1.642   1_445 S
P798   O807    1.644   1_455 S
P799   O808    1.632   .     S
P799   O809    1.629   .     S
P799   O810    1.644   .     D
P800   O811    1.615   .     S
P800   O812    1.642   .     S
P800   O813    1.642   .     D
P801   O814    1.622   1_565 S
P801   O815    1.637   1_455 S
P801   O818    1.635   1_565 S
O802   Ga984   1.834   .     S
O803   Ga981   1.815   1_445 S
O805   P798    1.642   1_665 S
O806   Zn991   1.825   .     S
O807   Zn795   1.886   1_655 S
O807   P798    1.644   1_655 S
O814   P801    1.622   1_545 S
O815   P801    1.637   1_655 S
O816   Zn991   1.835   .     S
O816   H829    0.990   .     S
O817   Zn991   1.830   .     S
O817   H830    0.991   .     S
O818   P801    1.635   1_545 S
N819   C821    1.462   .     S
N819   H831    1.044   .     S
N819   H832    1.046   .     S
N820   C822    1.460   .     S
N820   H833    1.043   .     S
N820   H834    1.044   .     S
C821   C826    1.534   .     S
C821   H835    1.113   .     S
C821   H836    1.113   .     S
C822   C823    1.532   .     S
C822   H837    1.112   .     S
C822   H838    1.114   .     S
C823   C825    1.532   .     S
C823   H839    1.112   .     S
C823   H840    1.112   .     S
C824   C826    1.525   .     S
C824   H841    1.111   .     S
C824   H842    1.109   .     S
C824   H843    1.109   .     S
C825   C827    1.532   .     S
C825   H844    1.112   .     S
C825   H845    1.112   .     S
C826   H846    1.112   .     S
C826   H847    1.112   .     S
C827   C828    1.525   .     S
C827   H848    1.112   .     S
C827   H849    1.111   .     S
C828   H850    1.110   .     S
C828   H851    1.110   .     S
C828   H852    1.111   .     S
Zn855  O866    1.895   .     S
Zn855  O869    1.850   .     S
Zn856  O868    1.886   .     S
Zn856  O875    1.800   .     S
Zn856  O571    1.852   1_545 S
Zn856  O873    1.889   1_655 S
Zn857  O569    1.891   1_655 S
Zn857  O865    1.887   1_655 S
Zn857  O872    1.786   1_655 S
Zn857  O879    1.854   1_545 S
P858   O863    1.647   .     S
P858   O864    1.638   1_545 S
P858   O865    1.654   1_655 S
P859   O866    1.642   .     S
P859   O867    1.619   .     S
P859   O868    1.644   .     D
P860   O870    1.629   .     S
P860   O871    1.644   .     D
P860   O869    1.632   1_565 S
P861   O872    1.615   .     S
P861   O873    1.642   .     S
P861   O874    1.642   .     D
P862   O876    1.637   .     S
P862   O879    1.635   .     D
P862   O875    1.623   1_565 S
O863   Ga981   1.834   1_545 S
O864   Ga983   1.815   .     S
O864   P858    1.638   1_565 S
O865   Zn857   1.887   1_455 S
O865   P858    1.654   1_455 S
O867   Zn990   1.825   1_655 S
O869   P860    1.632   1_545 S
O872   Zn857   1.786   1_455 S
O873   Zn856   1.889   1_455 S
O875   P862    1.623   1_545 S
O877   Zn990   1.835   .     S
O877   H890    0.990   .     S
O878   Zn990   1.831   .     S
O878   H891    0.991   .     S
O879   Zn857   1.854   1_565 S
N880   C882    1.462   .     S
N880   H892    1.044   .     S
N880   H893    1.046   .     S
N880   H975    1.045   .     S
N881   C883    1.460   .     S
N881   H894    1.043   .     S
N881   H895    1.044   .     S
N881   H976    1.044   .     S
C882   C887    1.534   .     S
C882   H896    1.113   .     S
C882   H897    1.113   .     S
C883   C884    1.532   .     S
C883   H898    1.112   .     S
C883   H899    1.113   .     S
C884   C886    1.533   .     S
C884   H900    1.112   .     S
C884   H901    1.112   .     S
C885   C887    1.525   .     S
C885   H902    1.110   .     S
C885   H903    1.110   .     S
C885   H904    1.109   .     S
C886   C888    1.531   .     S
C886   H905    1.112   .     S
C886   H906    1.112   .     S
C887   H907    1.112   .     S
C887   H908    1.112   .     S
C888   C889    1.525   .     S
C888   H909    1.112   .     S
C888   H910    1.111   .     S
C889   H911    1.110   .     S
C889   H912    1.110   .     S
C889   H913    1.111   .     S
H914   N941    1.045   .     S
H915   N942    1.044   .     S
Zn916  O927    1.895   .     S
Zn916  O930    1.850   .     S
Zn917  O929    1.886   .     S
Zn917  O934    1.889   .     S
Zn917  O936    1.800   .     S
Zn918  O926    1.887   .     S
Zn918  O933    1.786   .     S
Zn918  O940    1.854   .     S
P919   O924    1.647   .     S
P919   O925    1.638   .     S
P919   O926    1.654   .     D
P920   O927    1.642   .     S
P920   O928    1.619   .     S
P920   O929    1.644   .     D
P921   O931    1.628   .     S
P921   O932    1.644   .     D
P921   O930    1.632   1_565 S
P922   O933    1.615   .     S
P922   O934    1.642   .     S
P922   O935    1.642   .     D
P923   O936    1.623   .     S
P923   O937    1.637   .     S
P923   O940    1.635   .     D
O924   Ga982   1.833   .     S
O925   Ga984   1.815   .     S
O928   Zn989   1.825   .     S
O930   P921    1.632   1_545 S
O937   Zn490   1.851   1_545 S
O938   Zn989   1.835   .     S
O938   H951    0.990   1_655 S
O939   Zn989   1.831   .     S
O939   H952    0.991   1_655 S
N941   C943    1.461   .     S
N941   H953    1.044   .     S
N941   H954    1.046   .     S
N942   C944    1.461   .     S
N942   H955    1.043   .     S
N942   H956    1.044   .     S
C943   C948    1.534   .     S
C943   H957    1.112   .     S
C943   H958    1.113   .     S
C944   C945    1.532   .     S
C944   H959    1.111   .     S
C944   H960    1.113   .     S
C945   C947    1.532   .     S
C945   H961    1.112   .     S
C945   H962    1.112   .     S
C946   C948    1.525   .     S
C946   H963    1.110   .     S
C946   H964    1.110   .     S
C946   H965    1.110   .     S
C947   C949    1.531   .     S
C947   H966    1.112   .     S
C947   H967    1.112   .     S
C948   H968    1.112   .     S
C948   H969    1.112   .     S
C949   C950    1.525   .     S
C949   H970    1.112   .     S
C949   H971    1.111   .     S
C950   H972    1.110   .     S
C950   H973    1.110   .     S
C950   H974    1.111   .     S
H951   O938    0.990   1_455 S
H952   O939    0.991   1_455 S
Ga977  F993    1.758   .     S
Ga977  F995    1.758   .     S
Ga978  F994    1.757   .     S
Ga978  F996    1.757   .     S
Ga979  O71     1.813   1_554 S
Ga979  O253    1.833   1_454 S
Ga979  O376    1.816   1_455 S
Ga979  F995    1.759   1_455 S
Ga979  F994    1.758   1_554 S
Ga980  F993    1.758   .     S
Ga980  O192    1.835   1_554 S
Ga980  O437    1.814   1_544 S
Ga980  F996    1.757   1_544 S
Ga981  F999    1.758   .     S
Ga981  O803    1.815   1_665 S
Ga981  O863    1.834   1_565 S
Ga981  F997    1.758   1_665 S
Ga982  F998    1.759   .     S
Ga982  F1000   1.758   .     S
Ga983  F999    1.758   .     S
Ga983  F998    1.757   .     S
Ga984  F1000   1.758   .     S
Ga984  F997    1.758   .     S
Zn985  O13     1.825   1_554 S
Zn985  O23     1.835   1_554 S
Zn985  O24     1.831   1_554 D
Zn985  O440    1.825   1_655 S
Zn986  O379    1.825   1_564 S
Zn986  O389    1.835   1_554 S
Zn986  O390    1.830   1_554 S
Zn987  O146    1.830   1_565 S
Zn987  O318    1.825   1_565 D
Zn988  O196    1.825   1_545 S
Zn989  O501    1.825   1_655 S
Zn990  O573    1.831   1_455 S
Zn990  O867    1.825   1_455 S
Zn992  O745    1.825   1_445 S
F994   Ga979   1.758   1_556 S
F995   Ga979   1.759   1_655 S
F996   Ga980   1.757   1_566 S
F997   Ga981   1.758   1_445 S
