data_image0
_cell_length_a       48.3931
_cell_length_b       48.3931
_cell_length_c       9.9998
_cell_angle_alpha    90
_cell_angle_beta     90
_cell_angle_gamma    90

_symmetry_space_group_name_H-M    "P 1"
_symmetry_int_tables_number       1

loop_
  _symmetry_equiv_pos_as_xyz
  'x, y, z'

loop_
  _atom_site_label
  _atom_site_occupancy
  _atom_site_fract_x
  _atom_site_fract_y
  _atom_site_fract_z
  _atom_site_thermal_displace_type
  _atom_site_B_iso_or_equiv
  _atom_site_type_symbol
  Zn1      1.0000 0.37492  0.48207  0.32752  Biso   1.000  Zn
  Zn2      1.0000 0.43871  0.52211  0.17020  Biso   1.000  Zn
  P1       1.0000 0.31085  0.48434  0.28186  Biso   1.000  P
  P2       1.0000 0.40041  0.53911  0.39897  Biso   1.000  P
  P3       1.0000 0.41596  0.46241  0.10963  Biso   1.000  P
  O1       1.0000 0.28835  0.46269  0.29810  Biso   1.000  O
  O2       1.0000 0.31534  0.49324  0.13650  Biso   1.000  O
  O3       1.0000 0.33696  0.47335  0.34350  Biso   1.000  O
  O4       1.0000 0.42973  0.53439  0.34930  Biso   1.000  O
  O5       1.0000 0.37940  0.52243  0.32140  Biso   1.000  O
  O6       1.0000 0.39935  0.53564  0.54810  Biso   1.000  O
  O7       1.0000 0.47522  0.53546  0.12670  Biso   1.000  O
  O8       1.0000 0.38692  0.46847  0.15500  Biso   1.000  O
  O9       1.0000 0.41586  0.46042  0.96000  Biso   1.000  O
  O10      1.0000 0.43790  0.48178  0.16700  Biso   1.000  O
  H1       1.0000 0.29990  0.50960  0.37320  Biso   1.000  H
  H2       1.0000 0.39190  0.56790  0.37470  Biso   1.000  H
  H3       1.0000 0.42130  0.43890  0.17870  Biso   1.000  H
  Zn3      1.0000 0.87492  0.98207  0.82752  Biso   1.000  Zn
  Zn4      1.0000 0.93871  0.02211  0.67020  Biso   1.000  Zn
  P4       1.0000 0.81085  0.98434  0.78186  Biso   1.000  P
  P5       1.0000 0.90041  0.03911  0.89897  Biso   1.000  P
  P6       1.0000 0.91596  0.96241  0.60963  Biso   1.000  P
  O11      1.0000 0.78835  0.96269  0.79810  Biso   1.000  O
  O12      1.0000 0.81534  0.99324  0.63650  Biso   1.000  O
  O13      1.0000 0.83696  0.97335  0.84350  Biso   1.000  O
  O14      1.0000 0.92973  0.03439  0.84930  Biso   1.000  O
  O15      1.0000 0.87940  0.02243  0.82140  Biso   1.000  O
  O16      1.0000 0.89935  0.03564  0.04810  Biso   1.000  O
  O17      1.0000 0.97522  0.03546  0.62670  Biso   1.000  O
  O18      1.0000 0.88692  0.96847  0.65500  Biso   1.000  O
  O19      1.0000 0.91586  0.96042  0.46000  Biso   1.000  O
  O20      1.0000 0.93790  0.98178  0.66700  Biso   1.000  O
  H4       1.0000 0.79990  0.00960  0.87320  Biso   1.000  H
  H5       1.0000 0.89190  0.06790  0.87470  Biso   1.000  H
  H6       1.0000 0.92130  0.93890  0.67870  Biso   1.000  H
  Zn5      1.0000 0.12508  0.51793  0.82752  Biso   1.000  Zn
  Zn6      1.0000 0.06129  0.47789  0.67020  Biso   1.000  Zn
  P7       1.0000 0.18915  0.51566  0.78186  Biso   1.000  P
  P8       1.0000 0.09959  0.46089  0.89897  Biso   1.000  P
  P9       1.0000 0.08404  0.53759  0.60963  Biso   1.000  P
  O21      1.0000 0.21165  0.53731  0.79810  Biso   1.000  O
  O22      1.0000 0.18466  0.50676  0.63650  Biso   1.000  O
  O23      1.0000 0.16304  0.52665  0.84350  Biso   1.000  O
  O24      1.0000 0.07027  0.46561  0.84930  Biso   1.000  O
  O25      1.0000 0.12060  0.47757  0.82140  Biso   1.000  O
  O26      1.0000 0.10065  0.46436  0.04810  Biso   1.000  O
  O27      1.0000 0.02478  0.46454  0.62670  Biso   1.000  O
  O28      1.0000 0.11308  0.53153  0.65500  Biso   1.000  O
  O29      1.0000 0.08414  0.53958  0.46000  Biso   1.000  O
  O30      1.0000 0.06210  0.51822  0.66700  Biso   1.000  O
  H7       1.0000 0.20010  0.49040  0.87320  Biso   1.000  H
  H8       1.0000 0.10810  0.43210  0.87470  Biso   1.000  H
  H9       1.0000 0.07870  0.56110  0.67870  Biso   1.000  H
  Zn7      1.0000 0.62508  0.01793  0.32752  Biso   1.000  Zn
  Zn8      1.0000 0.56129  0.97789  0.17020  Biso   1.000  Zn
  P10      1.0000 0.68915  0.01566  0.28186  Biso   1.000  P
  P11      1.0000 0.59959  0.96089  0.39897  Biso   1.000  P
  P12      1.0000 0.58404  0.03759  0.10963  Biso   1.000  P
  O31      1.0000 0.71165  0.03731  0.29810  Biso   1.000  O
  O32      1.0000 0.68466  0.00676  0.13650  Biso   1.000  O
  O33      1.0000 0.66304  0.02665  0.34350  Biso   1.000  O
  O34      1.0000 0.57027  0.96561  0.34930  Biso   1.000  O
  O35      1.0000 0.62060  0.97757  0.32140  Biso   1.000  O
  O36      1.0000 0.60065  0.96436  0.54810  Biso   1.000  O
  O37      1.0000 0.52478  0.96454  0.12670  Biso   1.000  O
  O38      1.0000 0.61308  0.03153  0.15500  Biso   1.000  O
  O39      1.0000 0.58414  0.03958  0.96000  Biso   1.000  O
  O40      1.0000 0.56210  0.01822  0.16700  Biso   1.000  O
  H10      1.0000 0.70010  0.99040  0.37320  Biso   1.000  H
  H11      1.0000 0.60810  0.93210  0.37470  Biso   1.000  H
  H12      1.0000 0.57870  0.06110  0.17870  Biso   1.000  H
  Zn9      1.0000 0.76793  0.12492  0.57752  Biso   1.000  Zn
  Zn10     1.0000 0.72789  0.18871  0.42020  Biso   1.000  Zn
  P13      1.0000 0.76566  0.06085  0.53186  Biso   1.000  P
  P14      1.0000 0.71089  0.15041  0.64897  Biso   1.000  P
  P15      1.0000 0.78759  0.16596  0.35963  Biso   1.000  P
  O41      1.0000 0.78731  0.03835  0.54810  Biso   1.000  O
  O42      1.0000 0.75676  0.06534  0.38650  Biso   1.000  O
  O43      1.0000 0.77665  0.08696  0.59350  Biso   1.000  O
  O44      1.0000 0.71561  0.17973  0.59930  Biso   1.000  O
  O45      1.0000 0.72757  0.12940  0.57140  Biso   1.000  O
  O46      1.0000 0.71436  0.14935  0.79810  Biso   1.000  O
  O47      1.0000 0.71454  0.22522  0.37670  Biso   1.000  O
  O48      1.0000 0.78153  0.13692  0.40500  Biso   1.000  O
  O49      1.0000 0.78958  0.16586  0.21000  Biso   1.000  O
  O50      1.0000 0.76822  0.18790  0.41700  Biso   1.000  O
  H13      1.0000 0.74040  0.04990  0.62320  Biso   1.000  H
  H14      1.0000 0.68210  0.14190  0.62470  Biso   1.000  H
  H15      1.0000 0.81110  0.17130  0.42870  Biso   1.000  H
  Zn11     1.0000 0.26793  0.62492  0.07752  Biso   1.000  Zn
  Zn12     1.0000 0.22789  0.68871  0.92020  Biso   1.000  Zn
  P16      1.0000 0.26566  0.56085  0.03186  Biso   1.000  P
  P17      1.0000 0.21089  0.65041  0.14897  Biso   1.000  P
  P18      1.0000 0.28759  0.66596  0.85963  Biso   1.000  P
  O51      1.0000 0.28731  0.53835  0.04810  Biso   1.000  O
  O52      1.0000 0.25676  0.56534  0.88650  Biso   1.000  O
  O53      1.0000 0.27665  0.58696  0.09350  Biso   1.000  O
  O54      1.0000 0.21561  0.67973  0.09930  Biso   1.000  O
  O55      1.0000 0.22757  0.62940  0.07140  Biso   1.000  O
  O56      1.0000 0.21436  0.64935  0.29810  Biso   1.000  O
  O57      1.0000 0.21454  0.72522  0.87670  Biso   1.000  O
  O58      1.0000 0.28153  0.63692  0.90500  Biso   1.000  O
  O59      1.0000 0.28958  0.66586  0.71000  Biso   1.000  O
  O60      1.0000 0.26822  0.68790  0.91700  Biso   1.000  O
  H16      1.0000 0.24040  0.54990  0.12320  Biso   1.000  H
  H17      1.0000 0.18210  0.64190  0.12470  Biso   1.000  H
  H18      1.0000 0.31110  0.67130  0.92870  Biso   1.000  H
  Zn13     1.0000 0.73207  0.87508  0.07752  Biso   1.000  Zn
  Zn14     1.0000 0.77211  0.81129  0.92020  Biso   1.000  Zn
  P19      1.0000 0.73434  0.93915  0.03186  Biso   1.000  P
  P20      1.0000 0.78911  0.84959  0.14897  Biso   1.000  P
  P21      1.0000 0.71241  0.83404  0.85963  Biso   1.000  P
  O61      1.0000 0.71269  0.96165  0.04810  Biso   1.000  O
  O62      1.0000 0.74324  0.93466  0.88650  Biso   1.000  O
  O63      1.0000 0.72335  0.91304  0.09350  Biso   1.000  O
  O64      1.0000 0.78439  0.82027  0.09930  Biso   1.000  O
  O65      1.0000 0.77243  0.87060  0.07140  Biso   1.000  O
  O66      1.0000 0.78564  0.85065  0.29810  Biso   1.000  O
  O67      1.0000 0.78546  0.77478  0.87670  Biso   1.000  O
  O68      1.0000 0.71847  0.86308  0.90500  Biso   1.000  O
  O69      1.0000 0.71042  0.83414  0.71000  Biso   1.000  O
  O70      1.0000 0.73178  0.81210  0.91700  Biso   1.000  O
  H19      1.0000 0.75960  0.95010  0.12320  Biso   1.000  H
  H20      1.0000 0.81790  0.85810  0.12470  Biso   1.000  H
  H21      1.0000 0.68890  0.82870  0.92870  Biso   1.000  H
  Zn15     1.0000 0.23207  0.37508  0.57752  Biso   1.000  Zn
  Zn16     1.0000 0.27211  0.31129  0.42020  Biso   1.000  Zn
  P22      1.0000 0.23434  0.43915  0.53186  Biso   1.000  P
  P23      1.0000 0.28911  0.34959  0.64897  Biso   1.000  P
  P24      1.0000 0.21241  0.33404  0.35963  Biso   1.000  P
  O71      1.0000 0.21269  0.46165  0.54810  Biso   1.000  O
  O72      1.0000 0.24324  0.43466  0.38650  Biso   1.000  O
  O73      1.0000 0.22335  0.41304  0.59350  Biso   1.000  O
  O74      1.0000 0.28439  0.32027  0.59930  Biso   1.000  O
  O75      1.0000 0.27243  0.37060  0.57140  Biso   1.000  O
  O76      1.0000 0.28564  0.35065  0.79810  Biso   1.000  O
  O77      1.0000 0.28546  0.27478  0.37670  Biso   1.000  O
  O78      1.0000 0.21847  0.36308  0.40500  Biso   1.000  O
  O79      1.0000 0.21042  0.33414  0.21000  Biso   1.000  O
  O80      1.0000 0.23178  0.31210  0.41700  Biso   1.000  O
  H22      1.0000 0.25960  0.45010  0.62320  Biso   1.000  H
  H23      1.0000 0.31790  0.35810  0.62470  Biso   1.000  H
  H24      1.0000 0.18890  0.32870  0.42870  Biso   1.000  H
  Zn17     1.0000 0.12508  0.48207  0.17248  Biso   1.000  Zn
  Zn18     1.0000 0.06129  0.52211  0.32980  Biso   1.000  Zn
  P25      1.0000 0.18915  0.48434  0.21814  Biso   1.000  P
  P26      1.0000 0.09959  0.53911  0.10103  Biso   1.000  P
  P27      1.0000 0.08404  0.46241  0.39037  Biso   1.000  P
  O81      1.0000 0.21165  0.46269  0.20190  Biso   1.000  O
  O82      1.0000 0.18466  0.49324  0.36350  Biso   1.000  O
  O83      1.0000 0.16304  0.47335  0.15650  Biso   1.000  O
  O84      1.0000 0.07027  0.53439  0.15070  Biso   1.000  O
  O85      1.0000 0.12060  0.52243  0.17860  Biso   1.000  O
  O86      1.0000 0.10065  0.53564  0.95190  Biso   1.000  O
  O87      1.0000 0.02478  0.53546  0.37330  Biso   1.000  O
  O88      1.0000 0.11308  0.46847  0.34500  Biso   1.000  O
  O89      1.0000 0.08414  0.46042  0.54000  Biso   1.000  O
  O90      1.0000 0.06210  0.48178  0.33300  Biso   1.000  O
  H25      1.0000 0.20010  0.50960  0.12680  Biso   1.000  H
  H26      1.0000 0.10810  0.56790  0.12530  Biso   1.000  H
  H27      1.0000 0.07870  0.43890  0.32130  Biso   1.000  H
  Zn19     1.0000 0.62508  0.98207  0.67248  Biso   1.000  Zn
  Zn20     1.0000 0.56129  0.02211  0.82980  Biso   1.000  Zn
  P28      1.0000 0.68915  0.98434  0.71814  Biso   1.000  P
  P29      1.0000 0.59959  0.03911  0.60103  Biso   1.000  P
  P30      1.0000 0.58404  0.96241  0.89037  Biso   1.000  P
  O91      1.0000 0.71165  0.96269  0.70190  Biso   1.000  O
  O92      1.0000 0.68466  0.99324  0.86350  Biso   1.000  O
  O93      1.0000 0.66304  0.97335  0.65650  Biso   1.000  O
  O94      1.0000 0.57027  0.03439  0.65070  Biso   1.000  O
  O95      1.0000 0.62060  0.02243  0.67860  Biso   1.000  O
  O96      1.0000 0.60065  0.03564  0.45190  Biso   1.000  O
  O97      1.0000 0.52478  0.03546  0.87330  Biso   1.000  O
  O98      1.0000 0.61308  0.96847  0.84500  Biso   1.000  O
  O99      1.0000 0.58414  0.96042  0.04000  Biso   1.000  O
  O100     1.0000 0.56210  0.98178  0.83300  Biso   1.000  O
  H28      1.0000 0.70010  0.00960  0.62680  Biso   1.000  H
  H29      1.0000 0.60810  0.06790  0.62530  Biso   1.000  H
  H30      1.0000 0.57870  0.93890  0.82130  Biso   1.000  H
  Zn21     1.0000 0.37492  0.51793  0.67248  Biso   1.000  Zn
  Zn22     1.0000 0.43871  0.47789  0.82980  Biso   1.000  Zn
  P31      1.0000 0.31085  0.51566  0.71814  Biso   1.000  P
  P32      1.0000 0.40041  0.46089  0.60103  Biso   1.000  P
  P33      1.0000 0.41596  0.53759  0.89037  Biso   1.000  P
  O101     1.0000 0.28835  0.53731  0.70190  Biso   1.000  O
  O102     1.0000 0.31534  0.50676  0.86350  Biso   1.000  O
  O103     1.0000 0.33696  0.52665  0.65650  Biso   1.000  O
  O104     1.0000 0.42973  0.46561  0.65070  Biso   1.000  O
  O105     1.0000 0.37940  0.47757  0.67860  Biso   1.000  O
  O106     1.0000 0.39935  0.46436  0.45190  Biso   1.000  O
  O107     1.0000 0.47522  0.46454  0.87330  Biso   1.000  O
  O108     1.0000 0.38692  0.53153  0.84500  Biso   1.000  O
  O109     1.0000 0.41586  0.53958  0.04000  Biso   1.000  O
  O110     1.0000 0.43790  0.51822  0.83300  Biso   1.000  O
  H31      1.0000 0.29990  0.49040  0.62680  Biso   1.000  H
  H32      1.0000 0.39190  0.43210  0.62530  Biso   1.000  H
  H33      1.0000 0.42130  0.56110  0.82130  Biso   1.000  H
  Zn23     1.0000 0.87492  0.01793  0.17248  Biso   1.000  Zn
  Zn24     1.0000 0.93871  0.97789  0.32980  Biso   1.000  Zn
  P34      1.0000 0.81085  0.01566  0.21814  Biso   1.000  P
  P35      1.0000 0.90041  0.96089  0.10103  Biso   1.000  P
  P36      1.0000 0.91596  0.03759  0.39037  Biso   1.000  P
  O111     1.0000 0.78835  0.03731  0.20190  Biso   1.000  O
  O112     1.0000 0.81534  0.00676  0.36350  Biso   1.000  O
  O113     1.0000 0.83696  0.02665  0.15650  Biso   1.000  O
  O114     1.0000 0.92973  0.96561  0.15070  Biso   1.000  O
  O115     1.0000 0.87940  0.97757  0.17860  Biso   1.000  O
  O116     1.0000 0.89935  0.96436  0.95190  Biso   1.000  O
  O117     1.0000 0.97522  0.96454  0.37330  Biso   1.000  O
  O118     1.0000 0.88692  0.03153  0.34500  Biso   1.000  O
  O119     1.0000 0.91586  0.03958  0.54000  Biso   1.000  O
  O120     1.0000 0.93790  0.01822  0.33300  Biso   1.000  O
  H34      1.0000 0.79990  0.99040  0.12680  Biso   1.000  H
  H35      1.0000 0.89190  0.93210  0.12530  Biso   1.000  H
  H36      1.0000 0.92130  0.06110  0.32130  Biso   1.000  H
  Zn25     1.0000 0.73207  0.12492  0.92248  Biso   1.000  Zn
  Zn26     1.0000 0.77211  0.18871  0.07980  Biso   1.000  Zn
  P37      1.0000 0.73434  0.06085  0.96814  Biso   1.000  P
  P38      1.0000 0.78911  0.15041  0.85103  Biso   1.000  P
  P39      1.0000 0.71241  0.16596  0.14037  Biso   1.000  P
  O121     1.0000 0.71269  0.03835  0.95190  Biso   1.000  O
  O122     1.0000 0.74324  0.06534  0.11350  Biso   1.000  O
  O123     1.0000 0.72335  0.08696  0.90650  Biso   1.000  O
  O124     1.0000 0.78439  0.17973  0.90070  Biso   1.000  O
  O125     1.0000 0.77243  0.12940  0.92860  Biso   1.000  O
  O126     1.0000 0.78564  0.14935  0.70190  Biso   1.000  O
  O127     1.0000 0.78546  0.22522  0.12330  Biso   1.000  O
  O128     1.0000 0.71847  0.13692  0.09500  Biso   1.000  O
  O129     1.0000 0.71042  0.16586  0.29000  Biso   1.000  O
  O130     1.0000 0.73178  0.18790  0.08300  Biso   1.000  O
  H37      1.0000 0.75960  0.04990  0.87680  Biso   1.000  H
  H38      1.0000 0.81790  0.14190  0.87530  Biso   1.000  H
  H39      1.0000 0.68890  0.17130  0.07130  Biso   1.000  H
  Zn27     1.0000 0.23207  0.62492  0.42248  Biso   1.000  Zn
  Zn28     1.0000 0.27211  0.68871  0.57980  Biso   1.000  Zn
  P40      1.0000 0.23434  0.56085  0.46814  Biso   1.000  P
  P41      1.0000 0.28911  0.65041  0.35103  Biso   1.000  P
  P42      1.0000 0.21241  0.66596  0.64037  Biso   1.000  P
  O131     1.0000 0.21269  0.53835  0.45190  Biso   1.000  O
  O132     1.0000 0.24324  0.56534  0.61350  Biso   1.000  O
  O133     1.0000 0.22335  0.58696  0.40650  Biso   1.000  O
  O134     1.0000 0.28439  0.67973  0.40070  Biso   1.000  O
  O135     1.0000 0.27243  0.62940  0.42860  Biso   1.000  O
  O136     1.0000 0.28564  0.64935  0.20190  Biso   1.000  O
  O137     1.0000 0.28546  0.72522  0.62330  Biso   1.000  O
  O138     1.0000 0.21847  0.63692  0.59500  Biso   1.000  O
  O139     1.0000 0.21042  0.66586  0.79000  Biso   1.000  O
  O140     1.0000 0.23178  0.68790  0.58300  Biso   1.000  O
  H40      1.0000 0.25960  0.54990  0.37680  Biso   1.000  H
  H41      1.0000 0.31790  0.64190  0.37530  Biso   1.000  H
  H42      1.0000 0.18890  0.67130  0.57130  Biso   1.000  H
  Zn29     1.0000 0.76793  0.87508  0.42248  Biso   1.000  Zn
  Zn30     1.0000 0.72789  0.81129  0.57980  Biso   1.000  Zn
  P43      1.0000 0.76566  0.93915  0.46814  Biso   1.000  P
  P44      1.0000 0.71089  0.84959  0.35103  Biso   1.000  P
  P45      1.0000 0.78759  0.83404  0.64037  Biso   1.000  P
  O141     1.0000 0.78731  0.96165  0.45190  Biso   1.000  O
  O142     1.0000 0.75676  0.93466  0.61350  Biso   1.000  O
  O143     1.0000 0.77665  0.91304  0.40650  Biso   1.000  O
  O144     1.0000 0.71561  0.82027  0.40070  Biso   1.000  O
  O145     1.0000 0.72757  0.87060  0.42860  Biso   1.000  O
  O146     1.0000 0.71436  0.85065  0.20190  Biso   1.000  O
  O147     1.0000 0.71454  0.77478  0.62330  Biso   1.000  O
  O148     1.0000 0.78153  0.86308  0.59500  Biso   1.000  O
  O149     1.0000 0.78958  0.83414  0.79000  Biso   1.000  O
  O150     1.0000 0.76822  0.81210  0.58300  Biso   1.000  O
  H43      1.0000 0.74040  0.95010  0.37680  Biso   1.000  H
  H44      1.0000 0.68210  0.85810  0.37530  Biso   1.000  H
  H45      1.0000 0.81110  0.82870  0.57130  Biso   1.000  H
  Zn31     1.0000 0.26793  0.37508  0.92248  Biso   1.000  Zn
  Zn32     1.0000 0.22789  0.31129  0.07980  Biso   1.000  Zn
  P46      1.0000 0.26566  0.43915  0.96814  Biso   1.000  P
  P47      1.0000 0.21089  0.34959  0.85103  Biso   1.000  P
  P48      1.0000 0.28759  0.33404  0.14037  Biso   1.000  P
  O151     1.0000 0.28731  0.46165  0.95190  Biso   1.000  O
  O152     1.0000 0.25676  0.43466  0.11350  Biso   1.000  O
  O153     1.0000 0.27665  0.41304  0.90650  Biso   1.000  O
  O154     1.0000 0.21561  0.32027  0.90070  Biso   1.000  O
  O155     1.0000 0.22757  0.37060  0.92860  Biso   1.000  O
  O156     1.0000 0.21436  0.35065  0.70190  Biso   1.000  O
  O157     1.0000 0.21454  0.27478  0.12330  Biso   1.000  O
  O158     1.0000 0.28153  0.36308  0.09500  Biso   1.000  O
  O159     1.0000 0.28958  0.33414  0.29000  Biso   1.000  O
  O160     1.0000 0.26822  0.31210  0.08300  Biso   1.000  O
  H46      1.0000 0.24040  0.45010  0.87680  Biso   1.000  H
  H47      1.0000 0.18210  0.35810  0.87530  Biso   1.000  H
  H48      1.0000 0.31110  0.32870  0.07130  Biso   1.000  H
  Zn33     1.0000 0.62508  0.51793  0.67248  Biso   1.000  Zn
  Zn34     1.0000 0.56129  0.47789  0.82980  Biso   1.000  Zn
  P49      1.0000 0.68915  0.51566  0.71814  Biso   1.000  P
  P50      1.0000 0.59959  0.46089  0.60103  Biso   1.000  P
  P51      1.0000 0.58404  0.53759  0.89037  Biso   1.000  P
  O161     1.0000 0.71165  0.53731  0.70190  Biso   1.000  O
  O162     1.0000 0.68466  0.50676  0.86350  Biso   1.000  O
  O163     1.0000 0.66304  0.52665  0.65650  Biso   1.000  O
  O164     1.0000 0.57027  0.46561  0.65070  Biso   1.000  O
  O165     1.0000 0.62060  0.47757  0.67860  Biso   1.000  O
  O166     1.0000 0.60065  0.46436  0.45190  Biso   1.000  O
  O167     1.0000 0.52478  0.46454  0.87330  Biso   1.000  O
  O168     1.0000 0.61308  0.53153  0.84500  Biso   1.000  O
  O169     1.0000 0.58414  0.53958  0.04000  Biso   1.000  O
  O170     1.0000 0.56210  0.51822  0.83300  Biso   1.000  O
  H49      1.0000 0.70010  0.49040  0.62680  Biso   1.000  H
  H50      1.0000 0.60810  0.43210  0.62530  Biso   1.000  H
  H51      1.0000 0.57870  0.56110  0.82130  Biso   1.000  H
  Zn35     1.0000 0.12508  0.01793  0.17248  Biso   1.000  Zn
  Zn36     1.0000 0.06129  0.97789  0.32980  Biso   1.000  Zn
  P52      1.0000 0.18915  0.01566  0.21814  Biso   1.000  P
  P53      1.0000 0.09959  0.96089  0.10103  Biso   1.000  P
  P54      1.0000 0.08404  0.03759  0.39037  Biso   1.000  P
  O171     1.0000 0.21165  0.03731  0.20190  Biso   1.000  O
  O172     1.0000 0.18466  0.00676  0.36350  Biso   1.000  O
  O173     1.0000 0.16304  0.02665  0.15650  Biso   1.000  O
  O174     1.0000 0.07027  0.96561  0.15070  Biso   1.000  O
  O175     1.0000 0.12060  0.97757  0.17860  Biso   1.000  O
  O176     1.0000 0.10065  0.96436  0.95190  Biso   1.000  O
  O177     1.0000 0.02478  0.96454  0.37330  Biso   1.000  O
  O178     1.0000 0.11308  0.03153  0.34500  Biso   1.000  O
  O179     1.0000 0.08414  0.03958  0.54000  Biso   1.000  O
  O180     1.0000 0.06210  0.01822  0.33300  Biso   1.000  O
  H52      1.0000 0.20010  0.99040  0.12680  Biso   1.000  H
  H53      1.0000 0.10810  0.93210  0.12530  Biso   1.000  H
  H54      1.0000 0.07870  0.06110  0.32130  Biso   1.000  H
  Zn37     1.0000 0.87492  0.48207  0.17248  Biso   1.000  Zn
  Zn38     1.0000 0.93871  0.52211  0.32980  Biso   1.000  Zn
  P55      1.0000 0.81085  0.48434  0.21814  Biso   1.000  P
  P56      1.0000 0.90041  0.53911  0.10103  Biso   1.000  P
  P57      1.0000 0.91596  0.46241  0.39037  Biso   1.000  P
  O181     1.0000 0.78835  0.46269  0.20190  Biso   1.000  O
  O182     1.0000 0.81534  0.49324  0.36350  Biso   1.000  O
  O183     1.0000 0.83696  0.47335  0.15650  Biso   1.000  O
  O184     1.0000 0.92973  0.53439  0.15070  Biso   1.000  O
  O185     1.0000 0.87940  0.52243  0.17860  Biso   1.000  O
  O186     1.0000 0.89935  0.53564  0.95190  Biso   1.000  O
  O187     1.0000 0.97522  0.53546  0.37330  Biso   1.000  O
  O188     1.0000 0.88692  0.46847  0.34500  Biso   1.000  O
  O189     1.0000 0.91586  0.46042  0.54000  Biso   1.000  O
  O190     1.0000 0.93790  0.48178  0.33300  Biso   1.000  O
  H55      1.0000 0.79990  0.50960  0.12680  Biso   1.000  H
  H56      1.0000 0.89190  0.56790  0.12530  Biso   1.000  H
  H57      1.0000 0.92130  0.43890  0.32130  Biso   1.000  H
  Zn39     1.0000 0.37492  0.98207  0.67248  Biso   1.000  Zn
  Zn40     1.0000 0.43871  0.02211  0.82980  Biso   1.000  Zn
  P58      1.0000 0.31085  0.98434  0.71814  Biso   1.000  P
  P59      1.0000 0.40041  0.03911  0.60103  Biso   1.000  P
  P60      1.0000 0.41596  0.96241  0.89037  Biso   1.000  P
  O191     1.0000 0.28835  0.96269  0.70190  Biso   1.000  O
  O192     1.0000 0.31534  0.99324  0.86350  Biso   1.000  O
  O193     1.0000 0.33696  0.97335  0.65650  Biso   1.000  O
  O194     1.0000 0.42973  0.03439  0.65070  Biso   1.000  O
  O195     1.0000 0.37940  0.02243  0.67860  Biso   1.000  O
  O196     1.0000 0.39935  0.03564  0.45190  Biso   1.000  O
  O197     1.0000 0.47522  0.03546  0.87330  Biso   1.000  O
  O198     1.0000 0.38692  0.96847  0.84500  Biso   1.000  O
  O199     1.0000 0.41586  0.96042  0.04000  Biso   1.000  O
  O200     1.0000 0.43790  0.98178  0.83300  Biso   1.000  O
  H58      1.0000 0.29990  0.00960  0.62680  Biso   1.000  H
  H59      1.0000 0.39190  0.06790  0.62530  Biso   1.000  H
  H60      1.0000 0.42130  0.93890  0.82130  Biso   1.000  H
  Zn41     1.0000 0.23207  0.87508  0.42248  Biso   1.000  Zn
  Zn42     1.0000 0.27211  0.81129  0.57980  Biso   1.000  Zn
  P61      1.0000 0.23434  0.93915  0.46814  Biso   1.000  P
  P62      1.0000 0.28911  0.84959  0.35103  Biso   1.000  P
  P63      1.0000 0.21241  0.83404  0.64037  Biso   1.000  P
  O201     1.0000 0.21269  0.96165  0.45190  Biso   1.000  O
  O202     1.0000 0.24324  0.93466  0.61350  Biso   1.000  O
  O203     1.0000 0.22335  0.91304  0.40650  Biso   1.000  O
  O204     1.0000 0.28439  0.82027  0.40070  Biso   1.000  O
  O205     1.0000 0.27243  0.87060  0.42860  Biso   1.000  O
  O206     1.0000 0.28564  0.85065  0.20190  Biso   1.000  O
  O207     1.0000 0.28546  0.77478  0.62330  Biso   1.000  O
  O208     1.0000 0.21847  0.86308  0.59500  Biso   1.000  O
  O209     1.0000 0.21042  0.83414  0.79000  Biso   1.000  O
  O210     1.0000 0.23178  0.81210  0.58300  Biso   1.000  O
  H61      1.0000 0.25960  0.95010  0.37680  Biso   1.000  H
  H62      1.0000 0.31790  0.85810  0.37530  Biso   1.000  H
  H63      1.0000 0.18890  0.82870  0.57130  Biso   1.000  H
  Zn43     1.0000 0.73207  0.37508  0.92248  Biso   1.000  Zn
  Zn44     1.0000 0.77211  0.31129  0.07980  Biso   1.000  Zn
  P64      1.0000 0.73434  0.43915  0.96814  Biso   1.000  P
  P65      1.0000 0.78911  0.34959  0.85103  Biso   1.000  P
  P66      1.0000 0.71241  0.33404  0.14037  Biso   1.000  P
  O211     1.0000 0.71269  0.46165  0.95190  Biso   1.000  O
  O212     1.0000 0.74324  0.43466  0.11350  Biso   1.000  O
  O213     1.0000 0.72335  0.41304  0.90650  Biso   1.000  O
  O214     1.0000 0.78439  0.32027  0.90070  Biso   1.000  O
  O215     1.0000 0.77243  0.37060  0.92860  Biso   1.000  O
  O216     1.0000 0.78564  0.35065  0.70190  Biso   1.000  O
  O217     1.0000 0.78546  0.27478  0.12330  Biso   1.000  O
  O218     1.0000 0.71847  0.36308  0.09500  Biso   1.000  O
  O219     1.0000 0.71042  0.33414  0.29000  Biso   1.000  O
  O220     1.0000 0.73178  0.31210  0.08300  Biso   1.000  O
  H64      1.0000 0.75960  0.45010  0.87680  Biso   1.000  H
  H65      1.0000 0.81790  0.35810  0.87530  Biso   1.000  H
  H66      1.0000 0.68890  0.32870  0.07130  Biso   1.000  H
  Zn45     1.0000 0.26793  0.12492  0.92248  Biso   1.000  Zn
  Zn46     1.0000 0.22789  0.18871  0.07980  Biso   1.000  Zn
  P67      1.0000 0.26566  0.06085  0.96814  Biso   1.000  P
  P68      1.0000 0.21089  0.15041  0.85103  Biso   1.000  P
  P69      1.0000 0.28759  0.16596  0.14037  Biso   1.000  P
  O221     1.0000 0.28731  0.03835  0.95190  Biso   1.000  O
  O222     1.0000 0.25676  0.06534  0.11350  Biso   1.000  O
  O223     1.0000 0.27665  0.08696  0.90650  Biso   1.000  O
  O224     1.0000 0.21561  0.17973  0.90070  Biso   1.000  O
  O225     1.0000 0.22757  0.12940  0.92860  Biso   1.000  O
  O226     1.0000 0.21436  0.14935  0.70190  Biso   1.000  O
  O227     1.0000 0.21454  0.22522  0.12330  Biso   1.000  O
  O228     1.0000 0.28153  0.13692  0.09500  Biso   1.000  O
  O229     1.0000 0.28958  0.16586  0.29000  Biso   1.000  O
  O230     1.0000 0.26822  0.18790  0.08300  Biso   1.000  O
  H67      1.0000 0.24040  0.04990  0.87680  Biso   1.000  H
  H68      1.0000 0.18210  0.14190  0.87530  Biso   1.000  H
  H69      1.0000 0.31110  0.17130  0.07130  Biso   1.000  H
  Zn47     1.0000 0.76793  0.62492  0.42248  Biso   1.000  Zn
  Zn48     1.0000 0.72789  0.68871  0.57980  Biso   1.000  Zn
  P70      1.0000 0.76566  0.56085  0.46814  Biso   1.000  P
  P71      1.0000 0.71089  0.65041  0.35103  Biso   1.000  P
  P72      1.0000 0.78759  0.66596  0.64037  Biso   1.000  P
  O231     1.0000 0.78731  0.53835  0.45190  Biso   1.000  O
  O232     1.0000 0.75676  0.56534  0.61350  Biso   1.000  O
  O233     1.0000 0.77665  0.58696  0.40650  Biso   1.000  O
  O234     1.0000 0.71561  0.67973  0.40070  Biso   1.000  O
  O235     1.0000 0.72757  0.62940  0.42860  Biso   1.000  O
  O236     1.0000 0.71436  0.64935  0.20190  Biso   1.000  O
  O237     1.0000 0.71454  0.72522  0.62330  Biso   1.000  O
  O238     1.0000 0.78153  0.63692  0.59500  Biso   1.000  O
  O239     1.0000 0.78958  0.66586  0.79000  Biso   1.000  O
  O240     1.0000 0.76822  0.68790  0.58300  Biso   1.000  O
  H70      1.0000 0.74040  0.54990  0.37680  Biso   1.000  H
  H71      1.0000 0.68210  0.64190  0.37530  Biso   1.000  H
  H72      1.0000 0.81110  0.67130  0.57130  Biso   1.000  H
  Zn49     1.0000 0.87492  0.51793  0.82752  Biso   1.000  Zn
  Zn50     1.0000 0.93871  0.47789  0.67020  Biso   1.000  Zn
  P73      1.0000 0.81085  0.51566  0.78186  Biso   1.000  P
  P74      1.0000 0.90041  0.46089  0.89897  Biso   1.000  P
  P75      1.0000 0.91596  0.53759  0.60963  Biso   1.000  P
  O241     1.0000 0.78835  0.53731  0.79810  Biso   1.000  O
  O242     1.0000 0.81534  0.50676  0.63650  Biso   1.000  O
  O243     1.0000 0.83696  0.52665  0.84350  Biso   1.000  O
  O244     1.0000 0.92973  0.46561  0.84930  Biso   1.000  O
  O245     1.0000 0.87940  0.47757  0.82140  Biso   1.000  O
  O246     1.0000 0.89935  0.46436  0.04810  Biso   1.000  O
  O247     1.0000 0.97522  0.46454  0.62670  Biso   1.000  O
  O248     1.0000 0.88692  0.53153  0.65500  Biso   1.000  O
  O249     1.0000 0.91586  0.53958  0.46000  Biso   1.000  O
  O250     1.0000 0.93790  0.51822  0.66700  Biso   1.000  O
  H73      1.0000 0.79990  0.49040  0.87320  Biso   1.000  H
  H74      1.0000 0.89190  0.43210  0.87470  Biso   1.000  H
  H75      1.0000 0.92130  0.56110  0.67870  Biso   1.000  H
  Zn51     1.0000 0.37492  0.01793  0.32752  Biso   1.000  Zn
  Zn52     1.0000 0.43871  0.97789  0.17020  Biso   1.000  Zn
  P76      1.0000 0.31085  0.01566  0.28186  Biso   1.000  P
  P77      1.0000 0.40041  0.96089  0.39897  Biso   1.000  P
  P78      1.0000 0.41596  0.03759  0.10963  Biso   1.000  P
  O251     1.0000 0.28835  0.03731  0.29810  Biso   1.000  O
  O252     1.0000 0.31534  0.00676  0.13650  Biso   1.000  O
  O253     1.0000 0.33696  0.02665  0.34350  Biso   1.000  O
  O254     1.0000 0.42973  0.96561  0.34930  Biso   1.000  O
  O255     1.0000 0.37940  0.97757  0.32140  Biso   1.000  O
  O256     1.0000 0.39935  0.96436  0.54810  Biso   1.000  O
  O257     1.0000 0.47522  0.96454  0.12670  Biso   1.000  O
  O258     1.0000 0.38692  0.03153  0.15500  Biso   1.000  O
  O259     1.0000 0.41586  0.03958  0.96000  Biso   1.000  O
  O260     1.0000 0.43790  0.01822  0.16700  Biso   1.000  O
  H76      1.0000 0.29990  0.99040  0.37320  Biso   1.000  H
  H77      1.0000 0.39190  0.93210  0.37470  Biso   1.000  H
  H78      1.0000 0.42130  0.06110  0.17870  Biso   1.000  H
  Zn53     1.0000 0.62508  0.48207  0.32752  Biso   1.000  Zn
  Zn54     1.0000 0.56129  0.52211  0.17020  Biso   1.000  Zn
  P79      1.0000 0.68915  0.48434  0.28186  Biso   1.000  P
  P80      1.0000 0.59959  0.53911  0.39897  Biso   1.000  P
  P81      1.0000 0.58404  0.46241  0.10963  Biso   1.000  P
  O261     1.0000 0.71165  0.46269  0.29810  Biso   1.000  O
  O262     1.0000 0.68466  0.49324  0.13650  Biso   1.000  O
  O263     1.0000 0.66304  0.47335  0.34350  Biso   1.000  O
  O264     1.0000 0.57027  0.53439  0.34930  Biso   1.000  O
  O265     1.0000 0.62060  0.52243  0.32140  Biso   1.000  O
  O266     1.0000 0.60065  0.53564  0.54810  Biso   1.000  O
  O267     1.0000 0.52478  0.53546  0.12670  Biso   1.000  O
  O268     1.0000 0.61308  0.46847  0.15500  Biso   1.000  O
  O269     1.0000 0.58414  0.46042  0.96000  Biso   1.000  O
  O270     1.0000 0.56210  0.48178  0.16700  Biso   1.000  O
  H79      1.0000 0.70010  0.50960  0.37320  Biso   1.000  H
  H80      1.0000 0.60810  0.56790  0.37470  Biso   1.000  H
  H81      1.0000 0.57870  0.43890  0.17870  Biso   1.000  H
  Zn55     1.0000 0.12508  0.98207  0.82752  Biso   1.000  Zn
  Zn56     1.0000 0.06129  0.02211  0.67020  Biso   1.000  Zn
  P82      1.0000 0.18915  0.98434  0.78186  Biso   1.000  P
  P83      1.0000 0.09959  0.03911  0.89897  Biso   1.000  P
  P84      1.0000 0.08404  0.96241  0.60963  Biso   1.000  P
  O271     1.0000 0.21165  0.96269  0.79810  Biso   1.000  O
  O272     1.0000 0.18466  0.99324  0.63650  Biso   1.000  O
  O273     1.0000 0.16304  0.97335  0.84350  Biso   1.000  O
  O274     1.0000 0.07027  0.03439  0.84930  Biso   1.000  O
  O275     1.0000 0.12060  0.02243  0.82140  Biso   1.000  O
  O276     1.0000 0.10065  0.03564  0.04810  Biso   1.000  O
  O277     1.0000 0.02478  0.03546  0.62670  Biso   1.000  O
  O278     1.0000 0.11308  0.96847  0.65500  Biso   1.000  O
  O279     1.0000 0.08414  0.96042  0.46000  Biso   1.000  O
  O280     1.0000 0.06210  0.98178  0.66700  Biso   1.000  O
  H82      1.0000 0.20010  0.00960  0.87320  Biso   1.000  H
  H83      1.0000 0.10810  0.06790  0.87470  Biso   1.000  H
  H84      1.0000 0.07870  0.93890  0.67870  Biso   1.000  H
  Zn57     1.0000 0.26793  0.87508  0.07752  Biso   1.000  Zn
  Zn58     1.0000 0.22789  0.81129  0.92020  Biso   1.000  Zn
  P85      1.0000 0.26566  0.93915  0.03186  Biso   1.000  P
  P86      1.0000 0.21089  0.84959  0.14897  Biso   1.000  P
  P87      1.0000 0.28759  0.83404  0.85963  Biso   1.000  P
  O281     1.0000 0.28731  0.96165  0.04810  Biso   1.000  O
  O282     1.0000 0.25676  0.93466  0.88650  Biso   1.000  O
  O283     1.0000 0.27665  0.91304  0.09350  Biso   1.000  O
  O284     1.0000 0.21561  0.82027  0.09930  Biso   1.000  O
  O285     1.0000 0.22757  0.87060  0.07140  Biso   1.000  O
  O286     1.0000 0.21436  0.85065  0.29810  Biso   1.000  O
  O287     1.0000 0.21454  0.77478  0.87670  Biso   1.000  O
  O288     1.0000 0.28153  0.86308  0.90500  Biso   1.000  O
  O289     1.0000 0.28958  0.83414  0.71000  Biso   1.000  O
  O290     1.0000 0.26822  0.81210  0.91700  Biso   1.000  O
  H85      1.0000 0.24040  0.95010  0.12320  Biso   1.000  H
  H86      1.0000 0.18210  0.85810  0.12470  Biso   1.000  H
  H87      1.0000 0.31110  0.82870  0.92870  Biso   1.000  H
  Zn59     1.0000 0.76793  0.37508  0.57752  Biso   1.000  Zn
  Zn60     1.0000 0.72789  0.31129  0.42020  Biso   1.000  Zn
  P88      1.0000 0.76566  0.43915  0.53186  Biso   1.000  P
  P89      1.0000 0.71089  0.34959  0.64897  Biso   1.000  P
  P90      1.0000 0.78759  0.33404  0.35963  Biso   1.000  P
  O291     1.0000 0.78731  0.46165  0.54810  Biso   1.000  O
  O292     1.0000 0.75676  0.43466  0.38650  Biso   1.000  O
  O293     1.0000 0.77665  0.41304  0.59350  Biso   1.000  O
  O294     1.0000 0.71561  0.32027  0.59930  Biso   1.000  O
  O295     1.0000 0.72757  0.37060  0.57140  Biso   1.000  O
  O296     1.0000 0.71436  0.35065  0.79810  Biso   1.000  O
  O297     1.0000 0.71454  0.27478  0.37670  Biso   1.000  O
  O298     1.0000 0.78153  0.36308  0.40500  Biso   1.000  O
  O299     1.0000 0.78958  0.33414  0.21000  Biso   1.000  O
  O300     1.0000 0.76822  0.31210  0.41700  Biso   1.000  O
  H88      1.0000 0.74040  0.45010  0.62320  Biso   1.000  H
  H89      1.0000 0.68210  0.35810  0.62470  Biso   1.000  H
  H90      1.0000 0.81110  0.32870  0.42870  Biso   1.000  H
  Zn61     1.0000 0.23207  0.12492  0.57752  Biso   1.000  Zn
  Zn62     1.0000 0.27211  0.18871  0.42020  Biso   1.000  Zn
  P91      1.0000 0.23434  0.06085  0.53186  Biso   1.000  P
  P92      1.0000 0.28911  0.15041  0.64897  Biso   1.000  P
  P93      1.0000 0.21241  0.16596  0.35963  Biso   1.000  P
  O301     1.0000 0.21269  0.03835  0.54810  Biso   1.000  O
  O302     1.0000 0.24324  0.06534  0.38650  Biso   1.000  O
  O303     1.0000 0.22335  0.08696  0.59350  Biso   1.000  O
  O304     1.0000 0.28439  0.17973  0.59930  Biso   1.000  O
  O305     1.0000 0.27243  0.12940  0.57140  Biso   1.000  O
  O306     1.0000 0.28564  0.14935  0.79810  Biso   1.000  O
  O307     1.0000 0.28546  0.22522  0.37670  Biso   1.000  O
  O308     1.0000 0.21847  0.13692  0.40500  Biso   1.000  O
  O309     1.0000 0.21042  0.16586  0.21000  Biso   1.000  O
  O310     1.0000 0.23178  0.18790  0.41700  Biso   1.000  O
  H91      1.0000 0.25960  0.04990  0.62320  Biso   1.000  H
  H92      1.0000 0.31790  0.14190  0.62470  Biso   1.000  H
  H93      1.0000 0.18890  0.17130  0.42870  Biso   1.000  H
  Zn63     1.0000 0.73207  0.62492  0.07752  Biso   1.000  Zn
  Zn64     1.0000 0.77211  0.68871  0.92020  Biso   1.000  Zn
  P94      1.0000 0.73434  0.56085  0.03186  Biso   1.000  P
  P95      1.0000 0.78911  0.65041  0.14897  Biso   1.000  P
  P96      1.0000 0.71241  0.66596  0.85963  Biso   1.000  P
  O311     1.0000 0.71269  0.53835  0.04810  Biso   1.000  O
  O312     1.0000 0.74324  0.56534  0.88650  Biso   1.000  O
  O313     1.0000 0.72335  0.58696  0.09350  Biso   1.000  O
  O314     1.0000 0.78439  0.67973  0.09930  Biso   1.000  O
  O315     1.0000 0.77243  0.62940  0.07140  Biso   1.000  O
  O316     1.0000 0.78564  0.64935  0.29810  Biso   1.000  O
  O317     1.0000 0.78546  0.72522  0.87670  Biso   1.000  O
  O318     1.0000 0.71847  0.63692  0.90500  Biso   1.000  O
  O319     1.0000 0.71042  0.66586  0.71000  Biso   1.000  O
  O320     1.0000 0.73178  0.68790  0.91700  Biso   1.000  O
  H94      1.0000 0.75960  0.54990  0.12320  Biso   1.000  H
  H95      1.0000 0.81790  0.64190  0.12470  Biso   1.000  H
  H96      1.0000 0.68890  0.67130  0.92870  Biso   1.000  H
  Ga1      1.0000 0.25000  0.46290  0.25000  Biso   1.000  Ga
  Ga2      1.0000 0.75000  0.96290  0.75000  Biso   1.000  Ga
  Ga3      1.0000 0.25000  0.53710  0.75000  Biso   1.000  Ga
  Ga4      1.0000 0.75000  0.03710  0.25000  Biso   1.000  Ga
  Ga5      1.0000 0.78710  0.00000  0.50000  Biso   1.000  Ga
  Ga6      1.0000 0.28710  0.50000  0.00000  Biso   1.000  Ga
  Ga7      1.0000 0.71290  0.00000  0.00000  Biso   1.000  Ga
  Ga8      1.0000 0.21290  0.50000  0.50000  Biso   1.000  Ga
  Ga9      1.0000 0.75000  0.53710  0.75000  Biso   1.000  Ga
  Ga10     1.0000 0.25000  0.03710  0.25000  Biso   1.000  Ga
  Ga11     1.0000 0.75000  0.46290  0.25000  Biso   1.000  Ga
  Ga12     1.0000 0.25000  0.96290  0.75000  Biso   1.000  Ga
  Ga13     1.0000 0.21290  0.00000  0.50000  Biso   1.000  Ga
  Ga14     1.0000 0.71290  0.50000  0.00000  Biso   1.000  Ga
  Ga15     1.0000 0.28710  0.00000  0.00000  Biso   1.000  Ga
  Ga16     1.0000 0.78710  0.50000  0.50000  Biso   1.000  Ga
  Zn65     1.0000 0.50000  0.50000  0.50000  Biso   1.000  Zn
  Zn66     1.0000 0.00000  0.00000  0.00000  Biso   1.000  Zn
  Zn67     1.0000 0.00000  0.50000  0.00000  Biso   1.000  Zn
  Zn68     1.0000 0.50000  0.00000  0.50000  Biso   1.000  Zn
  Zn69     1.0000 0.75000  0.25000  0.75000  Biso   1.000  Zn
  Zn70     1.0000 0.75000  0.75000  0.25000  Biso   1.000  Zn
  Zn71     1.0000 0.25000  0.75000  0.25000  Biso   1.000  Zn
  Zn72     1.0000 0.25000  0.25000  0.75000  Biso   1.000  Zn
  P97      1.0000 0.50000  0.53480  0.21509  Biso   1.000  P
  O321     1.0000 0.50000  0.51043  0.30890  Biso   1.000  O
  H97      1.0000 0.50000  0.55770  0.28810  Biso   1.000  H
  P98      1.0000 0.00000  0.03480  0.71509  Biso   1.000  P
  O322     1.0000 0.00000  0.01043  0.80890  Biso   1.000  O
  H98      1.0000 0.00000  0.05770  0.78810  Biso   1.000  H
  P99      1.0000 0.00000  0.46520  0.71509  Biso   1.000  P
  O323     1.0000 0.00000  0.48957  0.80890  Biso   1.000  O
  H99      1.0000 0.00000  0.44230  0.78810  Biso   1.000  H
  P100     1.0000 0.50000  0.96520  0.21509  Biso   1.000  P
  O324     1.0000 0.50000  0.98957  0.30890  Biso   1.000  O
  H100     1.0000 0.50000  0.94230  0.28810  Biso   1.000  H
  P101     1.0000 0.71520  0.25000  0.46509  Biso   1.000  P
  O325     1.0000 0.73957  0.25000  0.55890  Biso   1.000  O
  H101     1.0000 0.69230  0.25000  0.53810  Biso   1.000  H
  P102     1.0000 0.78480  0.75000  0.96509  Biso   1.000  P
  O326     1.0000 0.76043  0.75000  0.05890  Biso   1.000  O
  H102     1.0000 0.80770  0.75000  0.03810  Biso   1.000  H
  P103     1.0000 0.00000  0.53480  0.28491  Biso   1.000  P
  O327     1.0000 0.00000  0.51043  0.19110  Biso   1.000  O
  H103     1.0000 0.00000  0.55770  0.21190  Biso   1.000  H
  P104     1.0000 0.50000  0.03480  0.78491  Biso   1.000  P
  O328     1.0000 0.50000  0.01043  0.69110  Biso   1.000  O
  H104     1.0000 0.50000  0.05770  0.71190  Biso   1.000  H
  P105     1.0000 0.50000  0.46520  0.78491  Biso   1.000  P
  O329     1.0000 0.50000  0.48957  0.69110  Biso   1.000  O
  H105     1.0000 0.50000  0.44230  0.71190  Biso   1.000  H
  P106     1.0000 0.00000  0.96520  0.28491  Biso   1.000  P
  O330     1.0000 0.00000  0.98957  0.19110  Biso   1.000  O
  H106     1.0000 0.00000  0.94230  0.21190  Biso   1.000  H
  P107     1.0000 0.78480  0.25000  0.03491  Biso   1.000  P
  O331     1.0000 0.76043  0.25000  0.94110  Biso   1.000  O
  H107     1.0000 0.80770  0.25000  0.96190  Biso   1.000  H
  P108     1.0000 0.71520  0.75000  0.53491  Biso   1.000  P
  O332     1.0000 0.73957  0.75000  0.44110  Biso   1.000  O
  H108     1.0000 0.69230  0.75000  0.46190  Biso   1.000  H
  P109     1.0000 0.28480  0.75000  0.53491  Biso   1.000  P
  O333     1.0000 0.26043  0.75000  0.44110  Biso   1.000  O
  H109     1.0000 0.30770  0.75000  0.46190  Biso   1.000  H
  P110     1.0000 0.21520  0.25000  0.03491  Biso   1.000  P
  O334     1.0000 0.23957  0.25000  0.94110  Biso   1.000  O
  H110     1.0000 0.19230  0.25000  0.96190  Biso   1.000  H
  P111     1.0000 0.21520  0.75000  0.96509  Biso   1.000  P
  O335     1.0000 0.23957  0.75000  0.05890  Biso   1.000  O
  H111     1.0000 0.19230  0.75000  0.03810  Biso   1.000  H
  P112     1.0000 0.28480  0.25000  0.46509  Biso   1.000  P
  O336     1.0000 0.26043  0.25000  0.55890  Biso   1.000  O
  H112     1.0000 0.30770  0.25000  0.53810  Biso   1.000  H
  F1       1.0000 0.24265  0.49265  0.37500  Biso   1.000  F
  F2       1.0000 0.25735  0.50735  0.87500  Biso   1.000  F
  F3       1.0000 0.75735  0.99265  0.62500  Biso   1.000  F
  F4       1.0000 0.74265  0.00735  0.12500  Biso   1.000  F
  F5       1.0000 0.25735  0.49265  0.12500  Biso   1.000  F
  F6       1.0000 0.24265  0.50735  0.62500  Biso   1.000  F
  F7       1.0000 0.74265  0.99265  0.87500  Biso   1.000  F
  F8       1.0000 0.75735  0.00735  0.37500  Biso   1.000  F
  F9       1.0000 0.75735  0.50735  0.62500  Biso   1.000  F
  F10      1.0000 0.74265  0.49265  0.12500  Biso   1.000  F
  F11      1.0000 0.24265  0.99265  0.62500  Biso   1.000  F
  F12      1.0000 0.24265  0.00735  0.37500  Biso   1.000  F
  F13      1.0000 0.25735  0.99265  0.87500  Biso   1.000  F
  F14      1.0000 0.74265  0.50735  0.87500  Biso   1.000  F
  F15      1.0000 0.75735  0.49265  0.37500  Biso   1.000  F
  F16      1.0000 0.25735  0.00735  0.12500  Biso   1.000  F
