data_image0
_cell_length_a       48.561
_cell_length_b       66.34
_cell_length_c       10.0376
_cell_angle_alpha    90
_cell_angle_beta     90
_cell_angle_gamma    90

_symmetry_space_group_name_H-M    "P 1"
_symmetry_int_tables_number       1

loop_
  _symmetry_equiv_pos_as_xyz
  'x, y, z'

loop_
  _atom_site_label
  _atom_site_occupancy
  _atom_site_fract_x
  _atom_site_fract_y
  _atom_site_fract_z
  _atom_site_thermal_displace_type
  _atom_site_B_iso_or_equiv
  _atom_site_type_symbol
  Zn1      1.0000 0.23168  0.09141  0.42275  Biso   1.000  Zn
  Zn2      1.0000 0.43877  0.98381  0.82937  Biso   1.000  Zn
  Zn3      1.0000 0.22796  0.13807  0.92008  Biso   1.000  Zn
  Zn4      1.0000 0.22929  0.22749  0.91317  Biso   1.000  Zn
  Zn5      1.0000 0.37485  0.01320  0.67287  Biso   1.000  Zn
  P1       1.0000 0.31087  0.01145  0.71953  Biso   1.000  P
  P2       1.0000 0.23438  0.04455  0.46981  Biso   1.000  P
  P3       1.0000 0.40008  0.97160  0.60135  Biso   1.000  P
  P4       1.0000 0.21145  0.10988  0.14673  Biso   1.000  P
  P5       1.0000 0.21266  0.12150  0.64127  Biso   1.000  P
  P6       1.0000 0.21584  0.18298  0.96133  Biso   1.000  P
  P7       1.0000 0.41600  0.02724  0.89053  Biso   1.000  P
  P8       1.0000 0.21222  0.25536  0.14220  Biso   1.000  P
  O1       1.0000 0.28847  0.02702  0.70200  Biso   1.000  O
  O2       1.0000 0.33699  0.01961  0.66130  Biso   1.000  O
  O3       1.0000 0.31506  0.00487  0.86410  Biso   1.000  O
  O4       1.0000 0.21318  0.02813  0.45180  Biso   1.000  O
  O5       1.0000 0.24340  0.04756  0.61570  Biso   1.000  O
  O6       1.0000 0.22291  0.06368  0.41080  Biso   1.000  O
  O7       1.0000 0.37921  0.98372  0.67800  Biso   1.000  O
  O8       1.0000 0.42944  0.97496  0.65030  Biso   1.000  O
  O9       1.0000 0.39896  0.97400  0.45410  Biso   1.000  O
  O10      1.0000 0.21558  0.13126  0.10010  Biso   1.000  O
  O11      1.0000 0.21488  0.10928  0.29450  Biso   1.000  O
  O12      1.0000 0.22791  0.09456  0.07080  Biso   1.000  O
  O13      1.0000 0.21843  0.10033  0.59450  Biso   1.000  O
  O14      1.0000 0.21129  0.12111  0.79100  Biso   1.000  O
  O15      1.0000 0.23207  0.13757  0.58200  Biso   1.000  O
  O16      1.0000 0.23956  0.18287  0.05580  Biso   1.000  O
  O17      1.0000 0.21494  0.16479  0.87570  Biso   1.000  O
  O18      1.0000 0.21607  0.20094  0.87120  Biso   1.000  O
  O19      1.0000 0.38720  0.02252  0.84500  Biso   1.000  O
  O20      1.0000 0.41607  0.02850  0.03940  Biso   1.000  O
  O21      1.0000 0.43773  0.01314  0.83380  Biso   1.000  O
  O22      1.0000 0.23099  0.27181  0.08660  Biso   1.000  O
  O23      1.0000 0.21141  0.25450  0.29130  Biso   1.000  O
  O24      1.0000 0.21793  0.23448  0.09050  Biso   1.000  O
  O25      1.0000 0.47545  0.97464  0.87360  Biso   1.000  O
  F1       1.0000 0.24285  0.00516  0.62640  Biso   1.000  F
  H1       1.0000 0.30120  0.99550  0.64250  Biso   1.000  H
  H2       1.0000 0.25790  0.03930  0.39240  Biso   1.000  H
  H3       1.0000 0.39600  0.95390  0.63010  Biso   1.000  H
  H4       1.0000 0.18980  0.10660  0.12530  Biso   1.000  H
  H5       1.0000 0.19910  0.18340  0.01310  Biso   1.000  H
  H6       1.0000 0.18850  0.12700  0.60380  Biso   1.000  H
  H7       1.0000 0.42000  0.04510  0.83950  Biso   1.000  H
  H8       1.0000 0.19320  0.25770  0.11280  Biso   1.000  H
  Zn6      1.0000 0.73168  0.59141  0.42275  Biso   1.000  Zn
  Zn7      1.0000 0.93877  0.48381  0.82937  Biso   1.000  Zn
  Zn8      1.0000 0.72796  0.63807  0.92008  Biso   1.000  Zn
  Zn9      1.0000 0.72929  0.72749  0.91317  Biso   1.000  Zn
  Zn10     1.0000 0.87485  0.51320  0.67287  Biso   1.000  Zn
  P9       1.0000 0.81087  0.51145  0.71953  Biso   1.000  P
  P10      1.0000 0.73438  0.54455  0.46981  Biso   1.000  P
  P11      1.0000 0.90008  0.47160  0.60135  Biso   1.000  P
  P12      1.0000 0.71145  0.60988  0.14673  Biso   1.000  P
  P13      1.0000 0.71266  0.62150  0.64127  Biso   1.000  P
  P14      1.0000 0.71584  0.68298  0.96133  Biso   1.000  P
  P15      1.0000 0.91600  0.52724  0.89053  Biso   1.000  P
  P16      1.0000 0.71222  0.75536  0.14220  Biso   1.000  P
  O26      1.0000 0.78847  0.52702  0.70200  Biso   1.000  O
  O27      1.0000 0.83699  0.51961  0.66130  Biso   1.000  O
  O28      1.0000 0.81506  0.50487  0.86410  Biso   1.000  O
  O29      1.0000 0.71318  0.52813  0.45180  Biso   1.000  O
  O30      1.0000 0.74340  0.54756  0.61570  Biso   1.000  O
  O31      1.0000 0.72291  0.56368  0.41080  Biso   1.000  O
  O32      1.0000 0.87921  0.48372  0.67800  Biso   1.000  O
  O33      1.0000 0.92944  0.47496  0.65030  Biso   1.000  O
  O34      1.0000 0.89896  0.47400  0.45410  Biso   1.000  O
  O35      1.0000 0.71558  0.63126  0.10010  Biso   1.000  O
  O36      1.0000 0.71488  0.60928  0.29450  Biso   1.000  O
  O37      1.0000 0.72791  0.59456  0.07080  Biso   1.000  O
  O38      1.0000 0.71843  0.60033  0.59450  Biso   1.000  O
  O39      1.0000 0.71129  0.62111  0.79100  Biso   1.000  O
  O40      1.0000 0.73207  0.63757  0.58200  Biso   1.000  O
  O41      1.0000 0.73956  0.68287  0.05580  Biso   1.000  O
  O42      1.0000 0.71494  0.66479  0.87570  Biso   1.000  O
  O43      1.0000 0.71607  0.70094  0.87120  Biso   1.000  O
  O44      1.0000 0.88720  0.52252  0.84500  Biso   1.000  O
  O45      1.0000 0.91607  0.52850  0.03940  Biso   1.000  O
  O46      1.0000 0.93773  0.51314  0.83380  Biso   1.000  O
  O47      1.0000 0.73099  0.77181  0.08660  Biso   1.000  O
  O48      1.0000 0.71141  0.75450  0.29130  Biso   1.000  O
  O49      1.0000 0.71793  0.73448  0.09050  Biso   1.000  O
  O50      1.0000 0.97545  0.47464  0.87360  Biso   1.000  O
  F2       1.0000 0.74285  0.50516  0.62640  Biso   1.000  F
  H9       1.0000 0.80120  0.49550  0.64250  Biso   1.000  H
  H10      1.0000 0.75790  0.53930  0.39240  Biso   1.000  H
  H11      1.0000 0.89600  0.45390  0.63010  Biso   1.000  H
  H12      1.0000 0.68980  0.60660  0.12530  Biso   1.000  H
  H13      1.0000 0.69910  0.68340  0.01310  Biso   1.000  H
  H14      1.0000 0.68850  0.62700  0.60380  Biso   1.000  H
  H15      1.0000 0.92000  0.54510  0.83950  Biso   1.000  H
  H16      1.0000 0.69320  0.75770  0.11280  Biso   1.000  H
  Zn11     1.0000 0.76832  0.40859  0.92275  Biso   1.000  Zn
  Zn12     1.0000 0.56123  0.51619  0.32937  Biso   1.000  Zn
  Zn13     1.0000 0.77204  0.36193  0.42008  Biso   1.000  Zn
  Zn14     1.0000 0.77071  0.27251  0.41317  Biso   1.000  Zn
  Zn15     1.0000 0.62515  0.48680  0.17287  Biso   1.000  Zn
  P17      1.0000 0.68913  0.48855  0.21953  Biso   1.000  P
  P18      1.0000 0.76562  0.45545  0.96981  Biso   1.000  P
  P19      1.0000 0.59992  0.52840  0.10135  Biso   1.000  P
  P20      1.0000 0.78855  0.39012  0.64673  Biso   1.000  P
  P21      1.0000 0.78734  0.37850  0.14127  Biso   1.000  P
  P22      1.0000 0.78416  0.31702  0.46133  Biso   1.000  P
  P23      1.0000 0.58400  0.47276  0.39053  Biso   1.000  P
  P24      1.0000 0.78778  0.24464  0.64220  Biso   1.000  P
  O51      1.0000 0.71153  0.47298  0.20200  Biso   1.000  O
  O52      1.0000 0.66301  0.48039  0.16130  Biso   1.000  O
  O53      1.0000 0.68494  0.49513  0.36410  Biso   1.000  O
  O54      1.0000 0.78682  0.47187  0.95180  Biso   1.000  O
  O55      1.0000 0.75660  0.45244  0.11570  Biso   1.000  O
  O56      1.0000 0.77709  0.43632  0.91080  Biso   1.000  O
  O57      1.0000 0.62079  0.51628  0.17800  Biso   1.000  O
  O58      1.0000 0.57056  0.52504  0.15030  Biso   1.000  O
  O59      1.0000 0.60104  0.52600  0.95410  Biso   1.000  O
  O60      1.0000 0.78442  0.36874  0.60010  Biso   1.000  O
  O61      1.0000 0.78512  0.39072  0.79450  Biso   1.000  O
  O62      1.0000 0.77209  0.40544  0.57080  Biso   1.000  O
  O63      1.0000 0.78157  0.39967  0.09450  Biso   1.000  O
  O64      1.0000 0.78871  0.37889  0.29100  Biso   1.000  O
  O65      1.0000 0.76793  0.36243  0.08200  Biso   1.000  O
  O66      1.0000 0.76044  0.31713  0.55580  Biso   1.000  O
  O67      1.0000 0.78506  0.33521  0.37570  Biso   1.000  O
  O68      1.0000 0.78393  0.29906  0.37120  Biso   1.000  O
  O69      1.0000 0.61280  0.47748  0.34500  Biso   1.000  O
  O70      1.0000 0.58393  0.47150  0.53940  Biso   1.000  O
  O71      1.0000 0.56227  0.48686  0.33380  Biso   1.000  O
  O72      1.0000 0.76901  0.22819  0.58660  Biso   1.000  O
  O73      1.0000 0.78859  0.24550  0.79130  Biso   1.000  O
  O74      1.0000 0.78207  0.26552  0.59050  Biso   1.000  O
  O75      1.0000 0.52455  0.52536  0.37360  Biso   1.000  O
  F3       1.0000 0.75715  0.49484  0.12640  Biso   1.000  F
  H17      1.0000 0.69880  0.50450  0.14250  Biso   1.000  H
  H18      1.0000 0.74210  0.46070  0.89240  Biso   1.000  H
  H19      1.0000 0.60400  0.54610  0.13010  Biso   1.000  H
  H20      1.0000 0.81020  0.39340  0.62530  Biso   1.000  H
  H21      1.0000 0.80090  0.31660  0.51310  Biso   1.000  H
  H22      1.0000 0.81150  0.37300  0.10380  Biso   1.000  H
  H23      1.0000 0.58000  0.45490  0.33950  Biso   1.000  H
  H24      1.0000 0.80680  0.24230  0.61280  Biso   1.000  H
  Zn16     1.0000 0.26832  0.90859  0.92275  Biso   1.000  Zn
  Zn17     1.0000 0.06123  0.01619  0.32937  Biso   1.000  Zn
  Zn18     1.0000 0.27204  0.86193  0.42008  Biso   1.000  Zn
  Zn19     1.0000 0.27071  0.77251  0.41317  Biso   1.000  Zn
  Zn20     1.0000 0.12515  0.98680  0.17287  Biso   1.000  Zn
  P25      1.0000 0.18913  0.98855  0.21953  Biso   1.000  P
  P26      1.0000 0.26562  0.95545  0.96981  Biso   1.000  P
  P27      1.0000 0.09992  0.02840  0.10135  Biso   1.000  P
  P28      1.0000 0.28855  0.89012  0.64673  Biso   1.000  P
  P29      1.0000 0.28734  0.87850  0.14127  Biso   1.000  P
  P30      1.0000 0.28416  0.81702  0.46133  Biso   1.000  P
  P31      1.0000 0.08400  0.97276  0.39053  Biso   1.000  P
  P32      1.0000 0.28778  0.74464  0.64220  Biso   1.000  P
  O76      1.0000 0.21153  0.97298  0.20200  Biso   1.000  O
  O77      1.0000 0.16301  0.98039  0.16130  Biso   1.000  O
  O78      1.0000 0.18494  0.99513  0.36410  Biso   1.000  O
  O79      1.0000 0.28682  0.97187  0.95180  Biso   1.000  O
  O80      1.0000 0.25660  0.95244  0.11570  Biso   1.000  O
  O81      1.0000 0.27709  0.93632  0.91080  Biso   1.000  O
  O82      1.0000 0.12079  0.01628  0.17800  Biso   1.000  O
  O83      1.0000 0.07056  0.02504  0.15030  Biso   1.000  O
  O84      1.0000 0.10104  0.02600  0.95410  Biso   1.000  O
  O85      1.0000 0.28442  0.86874  0.60010  Biso   1.000  O
  O86      1.0000 0.28512  0.89072  0.79450  Biso   1.000  O
  O87      1.0000 0.27209  0.90544  0.57080  Biso   1.000  O
  O88      1.0000 0.28157  0.89967  0.09450  Biso   1.000  O
  O89      1.0000 0.28871  0.87889  0.29100  Biso   1.000  O
  O90      1.0000 0.26793  0.86243  0.08200  Biso   1.000  O
  O91      1.0000 0.26044  0.81713  0.55580  Biso   1.000  O
  O92      1.0000 0.28506  0.83521  0.37570  Biso   1.000  O
  O93      1.0000 0.28393  0.79906  0.37120  Biso   1.000  O
  O94      1.0000 0.11280  0.97748  0.34500  Biso   1.000  O
  O95      1.0000 0.08393  0.97150  0.53940  Biso   1.000  O
  O96      1.0000 0.06227  0.98686  0.33380  Biso   1.000  O
  O97      1.0000 0.26901  0.72819  0.58660  Biso   1.000  O
  O98      1.0000 0.28859  0.74550  0.79130  Biso   1.000  O
  O99      1.0000 0.28207  0.76552  0.59050  Biso   1.000  O
  O100     1.0000 0.02455  0.02536  0.37360  Biso   1.000  O
  F4       1.0000 0.25715  0.99484  0.12640  Biso   1.000  F
  H25      1.0000 0.19880  0.00450  0.14250  Biso   1.000  H
  H26      1.0000 0.24210  0.96070  0.89240  Biso   1.000  H
  H27      1.0000 0.10400  0.04610  0.13010  Biso   1.000  H
  H28      1.0000 0.31020  0.89340  0.62530  Biso   1.000  H
  H29      1.0000 0.30090  0.81660  0.51310  Biso   1.000  H
  H30      1.0000 0.31150  0.87300  0.10380  Biso   1.000  H
  H31      1.0000 0.08000  0.95490  0.33950  Biso   1.000  H
  H32      1.0000 0.30680  0.74230  0.61280  Biso   1.000  H
  Zn21     1.0000 0.76832  0.59141  0.07725  Biso   1.000  Zn
  Zn22     1.0000 0.56123  0.48381  0.67063  Biso   1.000  Zn
  Zn23     1.0000 0.77204  0.63807  0.57992  Biso   1.000  Zn
  Zn24     1.0000 0.77071  0.72749  0.58683  Biso   1.000  Zn
  Zn25     1.0000 0.62515  0.51320  0.82713  Biso   1.000  Zn
  P33      1.0000 0.68913  0.51145  0.78047  Biso   1.000  P
  P34      1.0000 0.76562  0.54455  0.03019  Biso   1.000  P
  P35      1.0000 0.59992  0.47160  0.89865  Biso   1.000  P
  P36      1.0000 0.78855  0.60988  0.35327  Biso   1.000  P
  P37      1.0000 0.78734  0.62150  0.85873  Biso   1.000  P
  P38      1.0000 0.78416  0.68298  0.53867  Biso   1.000  P
  P39      1.0000 0.58400  0.52724  0.60947  Biso   1.000  P
  P40      1.0000 0.78778  0.75536  0.35780  Biso   1.000  P
  O101     1.0000 0.71153  0.52702  0.79800  Biso   1.000  O
  O102     1.0000 0.66301  0.51961  0.83870  Biso   1.000  O
  O103     1.0000 0.68494  0.50487  0.63590  Biso   1.000  O
  O104     1.0000 0.78682  0.52813  0.04820  Biso   1.000  O
  O105     1.0000 0.75660  0.54756  0.88430  Biso   1.000  O
  O106     1.0000 0.77709  0.56368  0.08920  Biso   1.000  O
  O107     1.0000 0.62079  0.48372  0.82200  Biso   1.000  O
  O108     1.0000 0.57056  0.47496  0.84970  Biso   1.000  O
  O109     1.0000 0.60104  0.47400  0.04590  Biso   1.000  O
  O110     1.0000 0.78442  0.63126  0.39990  Biso   1.000  O
  O111     1.0000 0.78512  0.60928  0.20550  Biso   1.000  O
  O112     1.0000 0.77209  0.59456  0.42920  Biso   1.000  O
  O113     1.0000 0.78157  0.60033  0.90550  Biso   1.000  O
  O114     1.0000 0.78871  0.62111  0.70900  Biso   1.000  O
  O115     1.0000 0.76793  0.63757  0.91800  Biso   1.000  O
  O116     1.0000 0.76044  0.68287  0.44420  Biso   1.000  O
  O117     1.0000 0.78506  0.66479  0.62430  Biso   1.000  O
  O118     1.0000 0.78393  0.70094  0.62880  Biso   1.000  O
  O119     1.0000 0.61280  0.52252  0.65500  Biso   1.000  O
  O120     1.0000 0.58393  0.52850  0.46060  Biso   1.000  O
  O121     1.0000 0.56227  0.51314  0.66620  Biso   1.000  O
  O122     1.0000 0.76901  0.77181  0.41340  Biso   1.000  O
  O123     1.0000 0.78859  0.75450  0.20870  Biso   1.000  O
  O124     1.0000 0.78207  0.73448  0.40950  Biso   1.000  O
  O125     1.0000 0.52455  0.47464  0.62640  Biso   1.000  O
  F5       1.0000 0.75715  0.50516  0.87360  Biso   1.000  F
  H33      1.0000 0.69880  0.49550  0.85750  Biso   1.000  H
  H34      1.0000 0.74210  0.53930  0.10760  Biso   1.000  H
  H35      1.0000 0.60400  0.45390  0.86990  Biso   1.000  H
  H36      1.0000 0.81020  0.60660  0.37470  Biso   1.000  H
  H37      1.0000 0.80090  0.68340  0.48690  Biso   1.000  H
  H38      1.0000 0.81150  0.62700  0.89620  Biso   1.000  H
  H39      1.0000 0.58000  0.54510  0.66050  Biso   1.000  H
  H40      1.0000 0.80680  0.75770  0.38720  Biso   1.000  H
  Zn26     1.0000 0.26832  0.09141  0.07725  Biso   1.000  Zn
  Zn27     1.0000 0.06123  0.98381  0.67063  Biso   1.000  Zn
  Zn28     1.0000 0.27204  0.13807  0.57992  Biso   1.000  Zn
  Zn29     1.0000 0.27071  0.22749  0.58683  Biso   1.000  Zn
  Zn30     1.0000 0.12515  0.01320  0.82713  Biso   1.000  Zn
  P41      1.0000 0.18913  0.01145  0.78047  Biso   1.000  P
  P42      1.0000 0.26562  0.04455  0.03019  Biso   1.000  P
  P43      1.0000 0.09992  0.97160  0.89865  Biso   1.000  P
  P44      1.0000 0.28855  0.10988  0.35327  Biso   1.000  P
  P45      1.0000 0.28734  0.12150  0.85873  Biso   1.000  P
  P46      1.0000 0.28416  0.18298  0.53867  Biso   1.000  P
  P47      1.0000 0.08400  0.02724  0.60947  Biso   1.000  P
  P48      1.0000 0.28778  0.25536  0.35780  Biso   1.000  P
  O126     1.0000 0.21153  0.02702  0.79800  Biso   1.000  O
  O127     1.0000 0.16301  0.01961  0.83870  Biso   1.000  O
  O128     1.0000 0.18494  0.00487  0.63590  Biso   1.000  O
  O129     1.0000 0.28682  0.02813  0.04820  Biso   1.000  O
  O130     1.0000 0.25660  0.04756  0.88430  Biso   1.000  O
  O131     1.0000 0.27709  0.06368  0.08920  Biso   1.000  O
  O132     1.0000 0.12079  0.98372  0.82200  Biso   1.000  O
  O133     1.0000 0.07056  0.97496  0.84970  Biso   1.000  O
  O134     1.0000 0.10104  0.97400  0.04590  Biso   1.000  O
  O135     1.0000 0.28442  0.13126  0.39990  Biso   1.000  O
  O136     1.0000 0.28512  0.10928  0.20550  Biso   1.000  O
  O137     1.0000 0.27209  0.09456  0.42920  Biso   1.000  O
  O138     1.0000 0.28157  0.10033  0.90550  Biso   1.000  O
  O139     1.0000 0.28871  0.12111  0.70900  Biso   1.000  O
  O140     1.0000 0.26793  0.13757  0.91800  Biso   1.000  O
  O141     1.0000 0.26044  0.18287  0.44420  Biso   1.000  O
  O142     1.0000 0.28506  0.16479  0.62430  Biso   1.000  O
  O143     1.0000 0.28393  0.20094  0.62880  Biso   1.000  O
  O144     1.0000 0.11280  0.02252  0.65500  Biso   1.000  O
  O145     1.0000 0.08393  0.02850  0.46060  Biso   1.000  O
  O146     1.0000 0.06227  0.01314  0.66620  Biso   1.000  O
  O147     1.0000 0.26901  0.27181  0.41340  Biso   1.000  O
  O148     1.0000 0.28859  0.25450  0.20870  Biso   1.000  O
  O149     1.0000 0.28207  0.23448  0.40950  Biso   1.000  O
  O150     1.0000 0.02455  0.97464  0.62640  Biso   1.000  O
  F6       1.0000 0.25715  0.00516  0.87360  Biso   1.000  F
  H41      1.0000 0.19880  0.99550  0.85750  Biso   1.000  H
  H42      1.0000 0.24210  0.03930  0.10760  Biso   1.000  H
  H43      1.0000 0.10400  0.95390  0.86990  Biso   1.000  H
  H44      1.0000 0.31020  0.10660  0.37470  Biso   1.000  H
  H45      1.0000 0.30090  0.18340  0.48690  Biso   1.000  H
  H46      1.0000 0.31150  0.12700  0.89620  Biso   1.000  H
  H47      1.0000 0.08000  0.04510  0.66050  Biso   1.000  H
  H48      1.0000 0.30680  0.25770  0.38720  Biso   1.000  H
  Zn31     1.0000 0.23168  0.90859  0.57725  Biso   1.000  Zn
  Zn32     1.0000 0.43877  0.01619  0.17063  Biso   1.000  Zn
  Zn33     1.0000 0.22796  0.86193  0.07992  Biso   1.000  Zn
  Zn34     1.0000 0.22929  0.77251  0.08683  Biso   1.000  Zn
  Zn35     1.0000 0.37485  0.98680  0.32713  Biso   1.000  Zn
  P49      1.0000 0.31087  0.98855  0.28047  Biso   1.000  P
  P50      1.0000 0.23438  0.95545  0.53019  Biso   1.000  P
  P51      1.0000 0.40008  0.02840  0.39865  Biso   1.000  P
  P52      1.0000 0.21145  0.89012  0.85327  Biso   1.000  P
  P53      1.0000 0.21266  0.87850  0.35873  Biso   1.000  P
  P54      1.0000 0.21584  0.81702  0.03867  Biso   1.000  P
  P55      1.0000 0.41600  0.97276  0.10947  Biso   1.000  P
  P56      1.0000 0.21222  0.74464  0.85780  Biso   1.000  P
  O151     1.0000 0.28847  0.97298  0.29800  Biso   1.000  O
  O152     1.0000 0.33699  0.98039  0.33870  Biso   1.000  O
  O153     1.0000 0.31506  0.99513  0.13590  Biso   1.000  O
  O154     1.0000 0.21318  0.97187  0.54820  Biso   1.000  O
  O155     1.0000 0.24340  0.95244  0.38430  Biso   1.000  O
  O156     1.0000 0.22291  0.93632  0.58920  Biso   1.000  O
  O157     1.0000 0.37921  0.01628  0.32200  Biso   1.000  O
  O158     1.0000 0.42944  0.02504  0.34970  Biso   1.000  O
  O159     1.0000 0.39896  0.02600  0.54590  Biso   1.000  O
  O160     1.0000 0.21558  0.86874  0.89990  Biso   1.000  O
  O161     1.0000 0.21488  0.89072  0.70550  Biso   1.000  O
  O162     1.0000 0.22791  0.90544  0.92920  Biso   1.000  O
  O163     1.0000 0.21843  0.89967  0.40550  Biso   1.000  O
  O164     1.0000 0.21129  0.87889  0.20900  Biso   1.000  O
  O165     1.0000 0.23207  0.86243  0.41800  Biso   1.000  O
  O166     1.0000 0.23956  0.81713  0.94420  Biso   1.000  O
  O167     1.0000 0.21494  0.83521  0.12430  Biso   1.000  O
  O168     1.0000 0.21607  0.79906  0.12880  Biso   1.000  O
  O169     1.0000 0.38720  0.97748  0.15500  Biso   1.000  O
  O170     1.0000 0.41607  0.97150  0.96060  Biso   1.000  O
  O171     1.0000 0.43773  0.98686  0.16620  Biso   1.000  O
  O172     1.0000 0.23099  0.72819  0.91340  Biso   1.000  O
  O173     1.0000 0.21141  0.74550  0.70870  Biso   1.000  O
  O174     1.0000 0.21793  0.76552  0.90950  Biso   1.000  O
  O175     1.0000 0.47545  0.02536  0.12640  Biso   1.000  O
  F7       1.0000 0.24285  0.99484  0.37360  Biso   1.000  F
  H49      1.0000 0.30120  0.00450  0.35750  Biso   1.000  H
  H50      1.0000 0.25790  0.96070  0.60760  Biso   1.000  H
  H51      1.0000 0.39600  0.04610  0.36990  Biso   1.000  H
  H52      1.0000 0.18980  0.89340  0.87470  Biso   1.000  H
  H53      1.0000 0.19910  0.81660  0.98690  Biso   1.000  H
  H54      1.0000 0.18850  0.87300  0.39620  Biso   1.000  H
  H55      1.0000 0.42000  0.95490  0.16050  Biso   1.000  H
  H56      1.0000 0.19320  0.74230  0.88720  Biso   1.000  H
  Zn36     1.0000 0.73168  0.40859  0.57725  Biso   1.000  Zn
  Zn37     1.0000 0.93877  0.51619  0.17063  Biso   1.000  Zn
  Zn38     1.0000 0.72796  0.36193  0.07992  Biso   1.000  Zn
  Zn39     1.0000 0.72929  0.27251  0.08683  Biso   1.000  Zn
  Zn40     1.0000 0.87485  0.48680  0.32713  Biso   1.000  Zn
  P57      1.0000 0.81087  0.48855  0.28047  Biso   1.000  P
  P58      1.0000 0.73438  0.45545  0.53019  Biso   1.000  P
  P59      1.0000 0.90008  0.52840  0.39865  Biso   1.000  P
  P60      1.0000 0.71145  0.39012  0.85327  Biso   1.000  P
  P61      1.0000 0.71266  0.37850  0.35873  Biso   1.000  P
  P62      1.0000 0.71584  0.31702  0.03867  Biso   1.000  P
  P63      1.0000 0.91600  0.47276  0.10947  Biso   1.000  P
  P64      1.0000 0.71222  0.24464  0.85780  Biso   1.000  P
  O176     1.0000 0.78847  0.47298  0.29800  Biso   1.000  O
  O177     1.0000 0.83699  0.48039  0.33870  Biso   1.000  O
  O178     1.0000 0.81506  0.49513  0.13590  Biso   1.000  O
  O179     1.0000 0.71318  0.47187  0.54820  Biso   1.000  O
  O180     1.0000 0.74340  0.45244  0.38430  Biso   1.000  O
  O181     1.0000 0.72291  0.43632  0.58920  Biso   1.000  O
  O182     1.0000 0.87921  0.51628  0.32200  Biso   1.000  O
  O183     1.0000 0.92944  0.52504  0.34970  Biso   1.000  O
  O184     1.0000 0.89896  0.52600  0.54590  Biso   1.000  O
  O185     1.0000 0.71558  0.36874  0.89990  Biso   1.000  O
  O186     1.0000 0.71488  0.39072  0.70550  Biso   1.000  O
  O187     1.0000 0.72791  0.40544  0.92920  Biso   1.000  O
  O188     1.0000 0.71843  0.39967  0.40550  Biso   1.000  O
  O189     1.0000 0.71129  0.37889  0.20900  Biso   1.000  O
  O190     1.0000 0.73207  0.36243  0.41800  Biso   1.000  O
  O191     1.0000 0.73956  0.31713  0.94420  Biso   1.000  O
  O192     1.0000 0.71494  0.33521  0.12430  Biso   1.000  O
  O193     1.0000 0.71607  0.29906  0.12880  Biso   1.000  O
  O194     1.0000 0.88720  0.47748  0.15500  Biso   1.000  O
  O195     1.0000 0.91607  0.47150  0.96060  Biso   1.000  O
  O196     1.0000 0.93773  0.48686  0.16620  Biso   1.000  O
  O197     1.0000 0.73099  0.22819  0.91340  Biso   1.000  O
  O198     1.0000 0.71141  0.24550  0.70870  Biso   1.000  O
  O199     1.0000 0.71793  0.26552  0.90950  Biso   1.000  O
  O200     1.0000 0.97545  0.52536  0.12640  Biso   1.000  O
  F8       1.0000 0.74285  0.49484  0.37360  Biso   1.000  F
  H57      1.0000 0.80120  0.50450  0.35750  Biso   1.000  H
  H58      1.0000 0.75790  0.46070  0.60760  Biso   1.000  H
  H59      1.0000 0.89600  0.54610  0.36990  Biso   1.000  H
  H60      1.0000 0.68980  0.39340  0.87470  Biso   1.000  H
  H61      1.0000 0.69910  0.31660  0.98690  Biso   1.000  H
  H62      1.0000 0.68850  0.37300  0.39620  Biso   1.000  H
  H63      1.0000 0.92000  0.45490  0.16050  Biso   1.000  H
  H64      1.0000 0.69320  0.24230  0.88720  Biso   1.000  H
  Zn41     1.0000 0.76832  0.90859  0.57725  Biso   1.000  Zn
  Zn42     1.0000 0.56123  0.01619  0.17063  Biso   1.000  Zn
  Zn43     1.0000 0.77204  0.86193  0.07992  Biso   1.000  Zn
  Zn44     1.0000 0.77071  0.77251  0.08683  Biso   1.000  Zn
  Zn45     1.0000 0.62515  0.98680  0.32713  Biso   1.000  Zn
  P65      1.0000 0.68913  0.98855  0.28047  Biso   1.000  P
  P66      1.0000 0.76562  0.95545  0.53019  Biso   1.000  P
  P67      1.0000 0.59992  0.02840  0.39865  Biso   1.000  P
  P68      1.0000 0.78855  0.89012  0.85327  Biso   1.000  P
  P69      1.0000 0.78734  0.87850  0.35873  Biso   1.000  P
  P70      1.0000 0.78416  0.81702  0.03867  Biso   1.000  P
  P71      1.0000 0.58400  0.97276  0.10947  Biso   1.000  P
  P72      1.0000 0.78778  0.74464  0.85780  Biso   1.000  P
  O201     1.0000 0.71153  0.97298  0.29800  Biso   1.000  O
  O202     1.0000 0.66301  0.98039  0.33870  Biso   1.000  O
  O203     1.0000 0.68494  0.99513  0.13590  Biso   1.000  O
  O204     1.0000 0.78682  0.97187  0.54820  Biso   1.000  O
  O205     1.0000 0.75660  0.95244  0.38430  Biso   1.000  O
  O206     1.0000 0.77709  0.93632  0.58920  Biso   1.000  O
  O207     1.0000 0.62079  0.01628  0.32200  Biso   1.000  O
  O208     1.0000 0.57056  0.02504  0.34970  Biso   1.000  O
  O209     1.0000 0.60104  0.02600  0.54590  Biso   1.000  O
  O210     1.0000 0.78442  0.86874  0.89990  Biso   1.000  O
  O211     1.0000 0.78512  0.89072  0.70550  Biso   1.000  O
  O212     1.0000 0.77209  0.90544  0.92920  Biso   1.000  O
  O213     1.0000 0.78157  0.89967  0.40550  Biso   1.000  O
  O214     1.0000 0.78871  0.87889  0.20900  Biso   1.000  O
  O215     1.0000 0.76793  0.86243  0.41800  Biso   1.000  O
  O216     1.0000 0.76044  0.81713  0.94420  Biso   1.000  O
  O217     1.0000 0.78506  0.83521  0.12430  Biso   1.000  O
  O218     1.0000 0.78393  0.79906  0.12880  Biso   1.000  O
  O219     1.0000 0.61280  0.97748  0.15500  Biso   1.000  O
  O220     1.0000 0.58393  0.97150  0.96060  Biso   1.000  O
  O221     1.0000 0.56227  0.98686  0.16620  Biso   1.000  O
  O222     1.0000 0.76901  0.72819  0.91340  Biso   1.000  O
  O223     1.0000 0.78859  0.74550  0.70870  Biso   1.000  O
  O224     1.0000 0.78207  0.76552  0.90950  Biso   1.000  O
  O225     1.0000 0.52455  0.02536  0.12640  Biso   1.000  O
  F9       1.0000 0.75715  0.99484  0.37360  Biso   1.000  F
  H65      1.0000 0.69880  0.00450  0.35750  Biso   1.000  H
  H66      1.0000 0.74210  0.96070  0.60760  Biso   1.000  H
  H67      1.0000 0.60400  0.04610  0.36990  Biso   1.000  H
  H68      1.0000 0.81020  0.89340  0.87470  Biso   1.000  H
  H69      1.0000 0.80090  0.81660  0.98690  Biso   1.000  H
  H70      1.0000 0.81150  0.87300  0.39620  Biso   1.000  H
  H71      1.0000 0.58000  0.95490  0.16050  Biso   1.000  H
  H72      1.0000 0.80680  0.74230  0.88720  Biso   1.000  H
  Zn46     1.0000 0.26832  0.40859  0.57725  Biso   1.000  Zn
  Zn47     1.0000 0.06123  0.51619  0.17063  Biso   1.000  Zn
  Zn48     1.0000 0.27204  0.36193  0.07992  Biso   1.000  Zn
  Zn49     1.0000 0.27071  0.27251  0.08683  Biso   1.000  Zn
  Zn50     1.0000 0.12515  0.48680  0.32713  Biso   1.000  Zn
  P73      1.0000 0.18913  0.48855  0.28047  Biso   1.000  P
  P74      1.0000 0.26562  0.45545  0.53019  Biso   1.000  P
  P75      1.0000 0.09992  0.52840  0.39865  Biso   1.000  P
  P76      1.0000 0.28855  0.39012  0.85327  Biso   1.000  P
  P77      1.0000 0.28734  0.37850  0.35873  Biso   1.000  P
  P78      1.0000 0.28416  0.31702  0.03867  Biso   1.000  P
  P79      1.0000 0.08400  0.47276  0.10947  Biso   1.000  P
  P80      1.0000 0.28778  0.24464  0.85780  Biso   1.000  P
  O226     1.0000 0.21153  0.47298  0.29800  Biso   1.000  O
  O227     1.0000 0.16301  0.48039  0.33870  Biso   1.000  O
  O228     1.0000 0.18494  0.49513  0.13590  Biso   1.000  O
  O229     1.0000 0.28682  0.47187  0.54820  Biso   1.000  O
  O230     1.0000 0.25660  0.45244  0.38430  Biso   1.000  O
  O231     1.0000 0.27709  0.43632  0.58920  Biso   1.000  O
  O232     1.0000 0.12079  0.51628  0.32200  Biso   1.000  O
  O233     1.0000 0.07056  0.52504  0.34970  Biso   1.000  O
  O234     1.0000 0.10104  0.52600  0.54590  Biso   1.000  O
  O235     1.0000 0.28442  0.36874  0.89990  Biso   1.000  O
  O236     1.0000 0.28512  0.39072  0.70550  Biso   1.000  O
  O237     1.0000 0.27209  0.40544  0.92920  Biso   1.000  O
  O238     1.0000 0.28157  0.39967  0.40550  Biso   1.000  O
  O239     1.0000 0.28871  0.37889  0.20900  Biso   1.000  O
  O240     1.0000 0.26793  0.36243  0.41800  Biso   1.000  O
  O241     1.0000 0.26044  0.31713  0.94420  Biso   1.000  O
  O242     1.0000 0.28506  0.33521  0.12430  Biso   1.000  O
  O243     1.0000 0.28393  0.29906  0.12880  Biso   1.000  O
  O244     1.0000 0.11280  0.47748  0.15500  Biso   1.000  O
  O245     1.0000 0.08393  0.47150  0.96060  Biso   1.000  O
  O246     1.0000 0.06227  0.48686  0.16620  Biso   1.000  O
  O247     1.0000 0.26901  0.22819  0.91340  Biso   1.000  O
  O248     1.0000 0.28859  0.24550  0.70870  Biso   1.000  O
  O249     1.0000 0.28207  0.26552  0.90950  Biso   1.000  O
  O250     1.0000 0.02455  0.52536  0.12640  Biso   1.000  O
  F10      1.0000 0.25715  0.49484  0.37360  Biso   1.000  F
  H73      1.0000 0.19880  0.50450  0.35750  Biso   1.000  H
  H74      1.0000 0.24210  0.46070  0.60760  Biso   1.000  H
  H75      1.0000 0.10400  0.54610  0.36990  Biso   1.000  H
  H76      1.0000 0.31020  0.39340  0.87470  Biso   1.000  H
  H77      1.0000 0.30090  0.31660  0.98690  Biso   1.000  H
  H78      1.0000 0.31150  0.37300  0.39620  Biso   1.000  H
  H79      1.0000 0.08000  0.45490  0.16050  Biso   1.000  H
  H80      1.0000 0.30680  0.24230  0.88720  Biso   1.000  H
  Zn51     1.0000 0.23168  0.59141  0.07725  Biso   1.000  Zn
  Zn52     1.0000 0.43877  0.48381  0.67063  Biso   1.000  Zn
  Zn53     1.0000 0.22796  0.63807  0.57992  Biso   1.000  Zn
  Zn54     1.0000 0.22929  0.72749  0.58683  Biso   1.000  Zn
  Zn55     1.0000 0.37485  0.51320  0.82713  Biso   1.000  Zn
  P81      1.0000 0.31087  0.51145  0.78047  Biso   1.000  P
  P82      1.0000 0.23438  0.54455  0.03019  Biso   1.000  P
  P83      1.0000 0.40008  0.47160  0.89865  Biso   1.000  P
  P84      1.0000 0.21145  0.60988  0.35327  Biso   1.000  P
  P85      1.0000 0.21266  0.62150  0.85873  Biso   1.000  P
  P86      1.0000 0.21584  0.68298  0.53867  Biso   1.000  P
  P87      1.0000 0.41600  0.52724  0.60947  Biso   1.000  P
  P88      1.0000 0.21222  0.75536  0.35780  Biso   1.000  P
  O251     1.0000 0.28847  0.52702  0.79800  Biso   1.000  O
  O252     1.0000 0.33699  0.51961  0.83870  Biso   1.000  O
  O253     1.0000 0.31506  0.50487  0.63590  Biso   1.000  O
  O254     1.0000 0.21318  0.52813  0.04820  Biso   1.000  O
  O255     1.0000 0.24340  0.54756  0.88430  Biso   1.000  O
  O256     1.0000 0.22291  0.56368  0.08920  Biso   1.000  O
  O257     1.0000 0.37921  0.48372  0.82200  Biso   1.000  O
  O258     1.0000 0.42944  0.47496  0.84970  Biso   1.000  O
  O259     1.0000 0.39896  0.47400  0.04590  Biso   1.000  O
  O260     1.0000 0.21558  0.63126  0.39990  Biso   1.000  O
  O261     1.0000 0.21488  0.60928  0.20550  Biso   1.000  O
  O262     1.0000 0.22791  0.59456  0.42920  Biso   1.000  O
  O263     1.0000 0.21843  0.60033  0.90550  Biso   1.000  O
  O264     1.0000 0.21129  0.62111  0.70900  Biso   1.000  O
  O265     1.0000 0.23207  0.63757  0.91800  Biso   1.000  O
  O266     1.0000 0.23956  0.68287  0.44420  Biso   1.000  O
  O267     1.0000 0.21494  0.66479  0.62430  Biso   1.000  O
  O268     1.0000 0.21607  0.70094  0.62880  Biso   1.000  O
  O269     1.0000 0.38720  0.52252  0.65500  Biso   1.000  O
  O270     1.0000 0.41607  0.52850  0.46060  Biso   1.000  O
  O271     1.0000 0.43773  0.51314  0.66620  Biso   1.000  O
  O272     1.0000 0.23099  0.77181  0.41340  Biso   1.000  O
  O273     1.0000 0.21141  0.75450  0.20870  Biso   1.000  O
  O274     1.0000 0.21793  0.73448  0.40950  Biso   1.000  O
  O275     1.0000 0.47545  0.47464  0.62640  Biso   1.000  O
  F11      1.0000 0.24285  0.50516  0.87360  Biso   1.000  F
  H81      1.0000 0.30120  0.49550  0.85750  Biso   1.000  H
  H82      1.0000 0.25790  0.53930  0.10760  Biso   1.000  H
  H83      1.0000 0.39600  0.45390  0.86990  Biso   1.000  H
  H84      1.0000 0.18980  0.60660  0.37470  Biso   1.000  H
  H85      1.0000 0.19910  0.68340  0.48690  Biso   1.000  H
  H86      1.0000 0.18850  0.62700  0.89620  Biso   1.000  H
  H87      1.0000 0.42000  0.54510  0.66050  Biso   1.000  H
  H88      1.0000 0.19320  0.75770  0.38720  Biso   1.000  H
  Zn56     1.0000 0.73168  0.09141  0.07725  Biso   1.000  Zn
  Zn57     1.0000 0.93877  0.98381  0.67063  Biso   1.000  Zn
  Zn58     1.0000 0.72796  0.13807  0.57992  Biso   1.000  Zn
  Zn59     1.0000 0.72929  0.22749  0.58683  Biso   1.000  Zn
  Zn60     1.0000 0.87485  0.01320  0.82713  Biso   1.000  Zn
  P89      1.0000 0.81087  0.01145  0.78047  Biso   1.000  P
  P90      1.0000 0.73438  0.04455  0.03019  Biso   1.000  P
  P91      1.0000 0.90008  0.97160  0.89865  Biso   1.000  P
  P92      1.0000 0.71145  0.10988  0.35327  Biso   1.000  P
  P93      1.0000 0.71266  0.12150  0.85873  Biso   1.000  P
  P94      1.0000 0.71584  0.18298  0.53867  Biso   1.000  P
  P95      1.0000 0.91600  0.02724  0.60947  Biso   1.000  P
  P96      1.0000 0.71222  0.25536  0.35780  Biso   1.000  P
  O276     1.0000 0.78847  0.02702  0.79800  Biso   1.000  O
  O277     1.0000 0.83699  0.01961  0.83870  Biso   1.000  O
  O278     1.0000 0.81506  0.00487  0.63590  Biso   1.000  O
  O279     1.0000 0.71318  0.02813  0.04820  Biso   1.000  O
  O280     1.0000 0.74340  0.04756  0.88430  Biso   1.000  O
  O281     1.0000 0.72291  0.06368  0.08920  Biso   1.000  O
  O282     1.0000 0.87921  0.98372  0.82200  Biso   1.000  O
  O283     1.0000 0.92944  0.97496  0.84970  Biso   1.000  O
  O284     1.0000 0.89896  0.97400  0.04590  Biso   1.000  O
  O285     1.0000 0.71558  0.13126  0.39990  Biso   1.000  O
  O286     1.0000 0.71488  0.10928  0.20550  Biso   1.000  O
  O287     1.0000 0.72791  0.09456  0.42920  Biso   1.000  O
  O288     1.0000 0.71843  0.10033  0.90550  Biso   1.000  O
  O289     1.0000 0.71129  0.12111  0.70900  Biso   1.000  O
  O290     1.0000 0.73207  0.13757  0.91800  Biso   1.000  O
  O291     1.0000 0.73956  0.18287  0.44420  Biso   1.000  O
  O292     1.0000 0.71494  0.16479  0.62430  Biso   1.000  O
  O293     1.0000 0.71607  0.20094  0.62880  Biso   1.000  O
  O294     1.0000 0.88720  0.02252  0.65500  Biso   1.000  O
  O295     1.0000 0.91607  0.02850  0.46060  Biso   1.000  O
  O296     1.0000 0.93773  0.01314  0.66620  Biso   1.000  O
  O297     1.0000 0.73099  0.27181  0.41340  Biso   1.000  O
  O298     1.0000 0.71141  0.25450  0.20870  Biso   1.000  O
  O299     1.0000 0.71793  0.23448  0.40950  Biso   1.000  O
  O300     1.0000 0.97545  0.97464  0.62640  Biso   1.000  O
  F12      1.0000 0.74285  0.00516  0.87360  Biso   1.000  F
  H89      1.0000 0.80120  0.99550  0.85750  Biso   1.000  H
  H90      1.0000 0.75790  0.03930  0.10760  Biso   1.000  H
  H91      1.0000 0.89600  0.95390  0.86990  Biso   1.000  H
  H92      1.0000 0.68980  0.10660  0.37470  Biso   1.000  H
  H93      1.0000 0.69910  0.18340  0.48690  Biso   1.000  H
  H94      1.0000 0.68850  0.12700  0.89620  Biso   1.000  H
  H95      1.0000 0.92000  0.04510  0.66050  Biso   1.000  H
  H96      1.0000 0.69320  0.25770  0.38720  Biso   1.000  H
  Zn61     1.0000 0.23168  0.40859  0.92275  Biso   1.000  Zn
  Zn62     1.0000 0.43877  0.51619  0.32937  Biso   1.000  Zn
  Zn63     1.0000 0.22796  0.36193  0.42008  Biso   1.000  Zn
  Zn64     1.0000 0.22929  0.27251  0.41317  Biso   1.000  Zn
  Zn65     1.0000 0.37485  0.48680  0.17287  Biso   1.000  Zn
  P97      1.0000 0.31087  0.48855  0.21953  Biso   1.000  P
  P98      1.0000 0.23438  0.45545  0.96981  Biso   1.000  P
  P99      1.0000 0.40008  0.52840  0.10135  Biso   1.000  P
  P100     1.0000 0.21145  0.39012  0.64673  Biso   1.000  P
  P101     1.0000 0.21266  0.37850  0.14127  Biso   1.000  P
  P102     1.0000 0.21584  0.31702  0.46133  Biso   1.000  P
  P103     1.0000 0.41600  0.47276  0.39053  Biso   1.000  P
  P104     1.0000 0.21222  0.24464  0.64220  Biso   1.000  P
  O301     1.0000 0.28847  0.47298  0.20200  Biso   1.000  O
  O302     1.0000 0.33699  0.48039  0.16130  Biso   1.000  O
  O303     1.0000 0.31506  0.49513  0.36410  Biso   1.000  O
  O304     1.0000 0.21318  0.47187  0.95180  Biso   1.000  O
  O305     1.0000 0.24340  0.45244  0.11570  Biso   1.000  O
  O306     1.0000 0.22291  0.43632  0.91080  Biso   1.000  O
  O307     1.0000 0.37921  0.51628  0.17800  Biso   1.000  O
  O308     1.0000 0.42944  0.52504  0.15030  Biso   1.000  O
  O309     1.0000 0.39896  0.52600  0.95410  Biso   1.000  O
  O310     1.0000 0.21558  0.36874  0.60010  Biso   1.000  O
  O311     1.0000 0.21488  0.39072  0.79450  Biso   1.000  O
  O312     1.0000 0.22791  0.40544  0.57080  Biso   1.000  O
  O313     1.0000 0.21843  0.39967  0.09450  Biso   1.000  O
  O314     1.0000 0.21129  0.37889  0.29100  Biso   1.000  O
  O315     1.0000 0.23207  0.36243  0.08200  Biso   1.000  O
  O316     1.0000 0.23956  0.31713  0.55580  Biso   1.000  O
  O317     1.0000 0.21494  0.33521  0.37570  Biso   1.000  O
  O318     1.0000 0.21607  0.29906  0.37120  Biso   1.000  O
  O319     1.0000 0.38720  0.47748  0.34500  Biso   1.000  O
  O320     1.0000 0.41607  0.47150  0.53940  Biso   1.000  O
  O321     1.0000 0.43773  0.48686  0.33380  Biso   1.000  O
  O322     1.0000 0.23099  0.22819  0.58660  Biso   1.000  O
  O323     1.0000 0.21141  0.24550  0.79130  Biso   1.000  O
  O324     1.0000 0.21793  0.26552  0.59050  Biso   1.000  O
  O325     1.0000 0.47545  0.52536  0.37360  Biso   1.000  O
  F13      1.0000 0.24285  0.49484  0.12640  Biso   1.000  F
  H97      1.0000 0.30120  0.50450  0.14250  Biso   1.000  H
  H98      1.0000 0.25790  0.46070  0.89240  Biso   1.000  H
  H99      1.0000 0.39600  0.54610  0.13010  Biso   1.000  H
  H100     1.0000 0.18980  0.39340  0.62530  Biso   1.000  H
  H101     1.0000 0.19910  0.31660  0.51310  Biso   1.000  H
  H102     1.0000 0.18850  0.37300  0.10380  Biso   1.000  H
  H103     1.0000 0.42000  0.45490  0.33950  Biso   1.000  H
  H104     1.0000 0.19320  0.24230  0.61280  Biso   1.000  H
  Zn66     1.0000 0.73168  0.90859  0.92275  Biso   1.000  Zn
  Zn67     1.0000 0.93877  0.01619  0.32937  Biso   1.000  Zn
  Zn68     1.0000 0.72796  0.86193  0.42008  Biso   1.000  Zn
  Zn69     1.0000 0.72929  0.77251  0.41317  Biso   1.000  Zn
  Zn70     1.0000 0.87485  0.98680  0.17287  Biso   1.000  Zn
  P105     1.0000 0.81087  0.98855  0.21953  Biso   1.000  P
  P106     1.0000 0.73438  0.95545  0.96981  Biso   1.000  P
  P107     1.0000 0.90008  0.02840  0.10135  Biso   1.000  P
  P108     1.0000 0.71145  0.89012  0.64673  Biso   1.000  P
  P109     1.0000 0.71266  0.87850  0.14127  Biso   1.000  P
  P110     1.0000 0.71584  0.81702  0.46133  Biso   1.000  P
  P111     1.0000 0.91600  0.97276  0.39053  Biso   1.000  P
  P112     1.0000 0.71222  0.74464  0.64220  Biso   1.000  P
  O326     1.0000 0.78847  0.97298  0.20200  Biso   1.000  O
  O327     1.0000 0.83699  0.98039  0.16130  Biso   1.000  O
  O328     1.0000 0.81506  0.99513  0.36410  Biso   1.000  O
  O329     1.0000 0.71318  0.97187  0.95180  Biso   1.000  O
  O330     1.0000 0.74340  0.95244  0.11570  Biso   1.000  O
  O331     1.0000 0.72291  0.93632  0.91080  Biso   1.000  O
  O332     1.0000 0.87921  0.01628  0.17800  Biso   1.000  O
  O333     1.0000 0.92944  0.02504  0.15030  Biso   1.000  O
  O334     1.0000 0.89896  0.02600  0.95410  Biso   1.000  O
  O335     1.0000 0.71558  0.86874  0.60010  Biso   1.000  O
  O336     1.0000 0.71488  0.89072  0.79450  Biso   1.000  O
  O337     1.0000 0.72791  0.90544  0.57080  Biso   1.000  O
  O338     1.0000 0.71843  0.89967  0.09450  Biso   1.000  O
  O339     1.0000 0.71129  0.87889  0.29100  Biso   1.000  O
  O340     1.0000 0.73207  0.86243  0.08200  Biso   1.000  O
  O341     1.0000 0.73956  0.81713  0.55580  Biso   1.000  O
  O342     1.0000 0.71494  0.83521  0.37570  Biso   1.000  O
  O343     1.0000 0.71607  0.79906  0.37120  Biso   1.000  O
  O344     1.0000 0.88720  0.97748  0.34500  Biso   1.000  O
  O345     1.0000 0.91607  0.97150  0.53940  Biso   1.000  O
  O346     1.0000 0.93773  0.98686  0.33380  Biso   1.000  O
  O347     1.0000 0.73099  0.72819  0.58660  Biso   1.000  O
  O348     1.0000 0.71141  0.74550  0.79130  Biso   1.000  O
  O349     1.0000 0.71793  0.76552  0.59050  Biso   1.000  O
  O350     1.0000 0.97545  0.02536  0.37360  Biso   1.000  O
  F14      1.0000 0.74285  0.99484  0.12640  Biso   1.000  F
  H105     1.0000 0.80120  0.00450  0.14250  Biso   1.000  H
  H106     1.0000 0.75790  0.96070  0.89240  Biso   1.000  H
  H107     1.0000 0.89600  0.04610  0.13010  Biso   1.000  H
  H108     1.0000 0.68980  0.89340  0.62530  Biso   1.000  H
  H109     1.0000 0.69910  0.81660  0.51310  Biso   1.000  H
  H110     1.0000 0.68850  0.87300  0.10380  Biso   1.000  H
  H111     1.0000 0.92000  0.95490  0.33950  Biso   1.000  H
  H112     1.0000 0.69320  0.74230  0.61280  Biso   1.000  H
  Zn71     1.0000 0.76832  0.09141  0.42275  Biso   1.000  Zn
  Zn72     1.0000 0.56123  0.98381  0.82937  Biso   1.000  Zn
  Zn73     1.0000 0.77204  0.13807  0.92008  Biso   1.000  Zn
  Zn74     1.0000 0.77071  0.22749  0.91317  Biso   1.000  Zn
  Zn75     1.0000 0.62515  0.01320  0.67287  Biso   1.000  Zn
  P113     1.0000 0.68913  0.01145  0.71953  Biso   1.000  P
  P114     1.0000 0.76562  0.04455  0.46981  Biso   1.000  P
  P115     1.0000 0.59992  0.97160  0.60135  Biso   1.000  P
  P116     1.0000 0.78855  0.10988  0.14673  Biso   1.000  P
  P117     1.0000 0.78734  0.12150  0.64127  Biso   1.000  P
  P118     1.0000 0.78416  0.18298  0.96133  Biso   1.000  P
  P119     1.0000 0.58400  0.02724  0.89053  Biso   1.000  P
  P120     1.0000 0.78778  0.25536  0.14220  Biso   1.000  P
  O351     1.0000 0.71153  0.02702  0.70200  Biso   1.000  O
  O352     1.0000 0.66301  0.01961  0.66130  Biso   1.000  O
  O353     1.0000 0.68494  0.00487  0.86410  Biso   1.000  O
  O354     1.0000 0.78682  0.02813  0.45180  Biso   1.000  O
  O355     1.0000 0.75660  0.04756  0.61570  Biso   1.000  O
  O356     1.0000 0.77709  0.06368  0.41080  Biso   1.000  O
  O357     1.0000 0.62079  0.98372  0.67800  Biso   1.000  O
  O358     1.0000 0.57056  0.97496  0.65030  Biso   1.000  O
  O359     1.0000 0.60104  0.97400  0.45410  Biso   1.000  O
  O360     1.0000 0.78442  0.13126  0.10010  Biso   1.000  O
  O361     1.0000 0.78512  0.10928  0.29450  Biso   1.000  O
  O362     1.0000 0.77209  0.09456  0.07080  Biso   1.000  O
  O363     1.0000 0.78157  0.10033  0.59450  Biso   1.000  O
  O364     1.0000 0.78871  0.12111  0.79100  Biso   1.000  O
  O365     1.0000 0.76793  0.13757  0.58200  Biso   1.000  O
  O366     1.0000 0.76044  0.18287  0.05580  Biso   1.000  O
  O367     1.0000 0.78506  0.16479  0.87570  Biso   1.000  O
  O368     1.0000 0.78393  0.20094  0.87120  Biso   1.000  O
  O369     1.0000 0.61280  0.02252  0.84500  Biso   1.000  O
  O370     1.0000 0.58393  0.02850  0.03940  Biso   1.000  O
  O371     1.0000 0.56227  0.01314  0.83380  Biso   1.000  O
  O372     1.0000 0.76901  0.27181  0.08660  Biso   1.000  O
  O373     1.0000 0.78859  0.25450  0.29130  Biso   1.000  O
  O374     1.0000 0.78207  0.23448  0.09050  Biso   1.000  O
  O375     1.0000 0.52455  0.97464  0.87360  Biso   1.000  O
  F15      1.0000 0.75715  0.00516  0.62640  Biso   1.000  F
  H113     1.0000 0.69880  0.99550  0.64250  Biso   1.000  H
  H114     1.0000 0.74210  0.03930  0.39240  Biso   1.000  H
  H115     1.0000 0.60400  0.95390  0.63010  Biso   1.000  H
  H116     1.0000 0.81020  0.10660  0.12530  Biso   1.000  H
  H117     1.0000 0.80090  0.18340  0.01310  Biso   1.000  H
  H118     1.0000 0.81150  0.12700  0.60380  Biso   1.000  H
  H119     1.0000 0.58000  0.04510  0.83950  Biso   1.000  H
  H120     1.0000 0.80680  0.25770  0.11280  Biso   1.000  H
  Zn76     1.0000 0.26832  0.59141  0.42275  Biso   1.000  Zn
  Zn77     1.0000 0.06123  0.48381  0.82937  Biso   1.000  Zn
  Zn78     1.0000 0.27204  0.63807  0.92008  Biso   1.000  Zn
  Zn79     1.0000 0.27071  0.72749  0.91317  Biso   1.000  Zn
  Zn80     1.0000 0.12515  0.51320  0.67287  Biso   1.000  Zn
  P121     1.0000 0.18913  0.51145  0.71953  Biso   1.000  P
  P122     1.0000 0.26562  0.54455  0.46981  Biso   1.000  P
  P123     1.0000 0.09992  0.47160  0.60135  Biso   1.000  P
  P124     1.0000 0.28855  0.60988  0.14673  Biso   1.000  P
  P125     1.0000 0.28734  0.62150  0.64127  Biso   1.000  P
  P126     1.0000 0.28416  0.68298  0.96133  Biso   1.000  P
  P127     1.0000 0.08400  0.52724  0.89053  Biso   1.000  P
  P128     1.0000 0.28778  0.75536  0.14220  Biso   1.000  P
  O376     1.0000 0.21153  0.52702  0.70200  Biso   1.000  O
  O377     1.0000 0.16301  0.51961  0.66130  Biso   1.000  O
  O378     1.0000 0.18494  0.50487  0.86410  Biso   1.000  O
  O379     1.0000 0.28682  0.52813  0.45180  Biso   1.000  O
  O380     1.0000 0.25660  0.54756  0.61570  Biso   1.000  O
  O381     1.0000 0.27709  0.56368  0.41080  Biso   1.000  O
  O382     1.0000 0.12079  0.48372  0.67800  Biso   1.000  O
  O383     1.0000 0.07056  0.47496  0.65030  Biso   1.000  O
  O384     1.0000 0.10104  0.47400  0.45410  Biso   1.000  O
  O385     1.0000 0.28442  0.63126  0.10010  Biso   1.000  O
  O386     1.0000 0.28512  0.60928  0.29450  Biso   1.000  O
  O387     1.0000 0.27209  0.59456  0.07080  Biso   1.000  O
  O388     1.0000 0.28157  0.60033  0.59450  Biso   1.000  O
  O389     1.0000 0.28871  0.62111  0.79100  Biso   1.000  O
  O390     1.0000 0.26793  0.63757  0.58200  Biso   1.000  O
  O391     1.0000 0.26044  0.68287  0.05580  Biso   1.000  O
  O392     1.0000 0.28506  0.66479  0.87570  Biso   1.000  O
  O393     1.0000 0.28393  0.70094  0.87120  Biso   1.000  O
  O394     1.0000 0.11280  0.52252  0.84500  Biso   1.000  O
  O395     1.0000 0.08393  0.52850  0.03940  Biso   1.000  O
  O396     1.0000 0.06227  0.51314  0.83380  Biso   1.000  O
  O397     1.0000 0.26901  0.77181  0.08660  Biso   1.000  O
  O398     1.0000 0.28859  0.75450  0.29130  Biso   1.000  O
  O399     1.0000 0.28207  0.73448  0.09050  Biso   1.000  O
  O400     1.0000 0.02455  0.47464  0.87360  Biso   1.000  O
  F16      1.0000 0.25715  0.50516  0.62640  Biso   1.000  F
  H121     1.0000 0.19880  0.49550  0.64250  Biso   1.000  H
  H122     1.0000 0.24210  0.53930  0.39240  Biso   1.000  H
  H123     1.0000 0.10400  0.45390  0.63010  Biso   1.000  H
  H124     1.0000 0.31020  0.60660  0.12530  Biso   1.000  H
  H125     1.0000 0.30090  0.68340  0.01310  Biso   1.000  H
  H126     1.0000 0.31150  0.62700  0.60380  Biso   1.000  H
  H127     1.0000 0.08000  0.54510  0.83950  Biso   1.000  H
  H128     1.0000 0.30680  0.75770  0.11280  Biso   1.000  H
  Ga1      1.0000 0.25000  0.02684  0.75000  Biso   1.000  Ga
  Ga2      1.0000 0.75000  0.47316  0.25000  Biso   1.000  Ga
  Ga3      1.0000 0.75000  0.52684  0.75000  Biso   1.000  Ga
  Ga4      1.0000 0.25000  0.97316  0.25000  Biso   1.000  Ga
  Ga5      1.0000 0.75000  0.97316  0.25000  Biso   1.000  Ga
  Ga6      1.0000 0.25000  0.52684  0.75000  Biso   1.000  Ga
  Ga7      1.0000 0.25000  0.47316  0.25000  Biso   1.000  Ga
  Ga8      1.0000 0.75000  0.02684  0.75000  Biso   1.000  Ga
  Ga9      1.0000 0.21326  0.00000  0.50000  Biso   1.000  Ga
  Ga10     1.0000 0.71326  0.50000  0.50000  Biso   1.000  Ga
  Ga11     1.0000 0.78674  0.50000  0.00000  Biso   1.000  Ga
  Ga12     1.0000 0.28674  0.00000  0.00000  Biso   1.000  Ga
  Ga13     1.0000 0.78674  0.00000  0.50000  Biso   1.000  Ga
  Ga14     1.0000 0.28674  0.50000  0.50000  Biso   1.000  Ga
  Ga15     1.0000 0.21326  0.50000  0.00000  Biso   1.000  Ga
  Ga16     1.0000 0.71326  0.00000  0.00000  Biso   1.000  Ga
  Zn81     1.0000 0.50000  0.00000  0.50000  Biso   1.000  Zn
  Zn82     1.0000 0.00000  0.50000  0.50000  Biso   1.000  Zn
  Zn83     1.0000 0.50000  0.50000  0.00000  Biso   1.000  Zn
  Zn84     1.0000 0.00000  0.00000  0.00000  Biso   1.000  Zn
  Zn85     1.0000 0.25000  0.18263  0.25000  Biso   1.000  Zn
  Zn86     1.0000 0.75000  0.31737  0.75000  Biso   1.000  Zn
  Zn87     1.0000 0.75000  0.68263  0.25000  Biso   1.000  Zn
  Zn88     1.0000 0.25000  0.81737  0.75000  Biso   1.000  Zn
  Zn89     1.0000 0.75000  0.81737  0.75000  Biso   1.000  Zn
  Zn90     1.0000 0.25000  0.68263  0.25000  Biso   1.000  Zn
  Zn91     1.0000 0.25000  0.31737  0.75000  Biso   1.000  Zn
  Zn92     1.0000 0.75000  0.18263  0.25000  Biso   1.000  Zn
  P129     1.0000 0.50000  0.97474  0.78539  Biso   1.000  P
  O401     1.0000 0.50000  0.99201  0.69060  Biso   1.000  O
  H129     1.0000 0.50000  0.95810  0.72670  Biso   1.000  H
  P130     1.0000 0.00000  0.47474  0.78539  Biso   1.000  P
  O402     1.0000 0.00000  0.49201  0.69060  Biso   1.000  O
  H130     1.0000 0.00000  0.45810  0.72670  Biso   1.000  H
  P131     1.0000 0.50000  0.52526  0.28539  Biso   1.000  P
  O403     1.0000 0.50000  0.50799  0.19060  Biso   1.000  O
  H131     1.0000 0.50000  0.54190  0.22670  Biso   1.000  H
  P132     1.0000 0.00000  0.02526  0.28539  Biso   1.000  P
  O404     1.0000 0.00000  0.00799  0.19060  Biso   1.000  O
  H132     1.0000 0.00000  0.04190  0.22670  Biso   1.000  H
  P133     1.0000 0.50000  0.47474  0.71461  Biso   1.000  P
  O405     1.0000 0.50000  0.49201  0.80940  Biso   1.000  O
  H133     1.0000 0.50000  0.45810  0.77330  Biso   1.000  H
  P134     1.0000 0.00000  0.97474  0.71461  Biso   1.000  P
  O406     1.0000 0.00000  0.99201  0.80940  Biso   1.000  O
  H134     1.0000 0.00000  0.95810  0.77330  Biso   1.000  H
  P135     1.0000 0.50000  0.02526  0.21461  Biso   1.000  P
  O407     1.0000 0.50000  0.00799  0.30940  Biso   1.000  O
  H135     1.0000 0.50000  0.04190  0.27330  Biso   1.000  H
  P136     1.0000 0.00000  0.52526  0.21461  Biso   1.000  P
  O408     1.0000 0.00000  0.50799  0.30940  Biso   1.000  O
  H136     1.0000 0.00000  0.54190  0.27330  Biso   1.000  H
