data_image0
_cell_length_a       66.313
_cell_length_b       66.313
_cell_length_c       9.982
_cell_angle_alpha    90
_cell_angle_beta     90
_cell_angle_gamma    90

_symmetry_space_group_name_H-M    "P 1"
_symmetry_int_tables_number       1

loop_
  _symmetry_equiv_pos_as_xyz
  'x, y, z'

loop_
  _atom_site_label
  _atom_site_occupancy
  _atom_site_fract_x
  _atom_site_fract_y
  _atom_site_fract_z
  _atom_site_thermal_displace_type
  _atom_site_B_iso_or_equiv
  _atom_site_type_symbol
  Zn1      1.0000 0.15851  0.01317  0.92352  Biso   1.000  Zn
  Zn2      1.0000 0.11199  0.98368  0.07870  Biso   1.000  Zn
  Zn3      1.0000 0.02239  0.98485  0.08630  Biso   1.000  Zn
  P1       1.0000 0.14009  0.97159  0.85150  Biso   1.000  P
  P2       1.0000 0.12857  0.02737  0.14350  Biso   1.000  P
  P3       1.0000 0.20540  0.01156  0.97140  Biso   1.000  P
  P4       1.0000 0.06687  0.97547  0.03470  Biso   1.000  P
  P5       1.0000 0.00546  0.02771  0.14610  Biso   1.000  P
  O1       1.0000 0.15554  0.98374  0.92590  Biso   1.000  O
  O2       1.0000 0.11838  0.97487  0.90190  Biso   1.000  O
  O3       1.0000 0.14047  0.97418  0.70440  Biso   1.000  O
  O4       1.0000 0.14983  0.02181  0.09260  Biso   1.000  O
  O5       1.0000 0.11240  0.01256  0.08080  Biso   1.000  O
  O6       1.0000 0.12814  0.02820  0.29440  Biso   1.000  O
  O7       1.0000 0.22197  0.02723  0.95660  Biso   1.000  O
  O8       1.0000 0.20245  0.00492  0.11790  Biso   1.000  O
  O9       1.0000 0.18615  0.01942  0.91410  Biso   1.000  O
  O10      1.0000 0.06711  0.99225  0.93770  Biso   1.000  O
  O11      1.0000 0.04952  0.97520  0.11810  Biso   1.000  O
  O12      1.0000 0.08490  0.97467  0.11520  Biso   1.000  O
  O13      1.0000 0.02191  0.01400  0.08650  Biso   1.000  O
  O14      1.0000 0.98403  0.02270  0.08640  Biso   1.000  O
  O15      1.0000 0.00555  0.02750  0.29280  Biso   1.000  O
  H1       1.0000 0.14630  0.95120  0.86940  Biso   1.000  H
  H2       1.0000 0.12390  0.04760  0.09340  Biso   1.000  H
  H3       1.0000 0.21070  0.99720  0.87070  Biso   1.000  H
  H4       1.0000 0.06620  0.95940  0.93830  Biso   1.000  H
  H5       1.0000 0.01010  0.04200  0.06180  Biso   1.000  H
  Zn4      1.0000 0.65851  0.51317  0.42352  Biso   1.000  Zn
  Zn5      1.0000 0.61199  0.48368  0.57870  Biso   1.000  Zn
  Zn6      1.0000 0.52239  0.48485  0.58630  Biso   1.000  Zn
  P6       1.0000 0.64009  0.47159  0.35150  Biso   1.000  P
  P7       1.0000 0.62857  0.52737  0.64350  Biso   1.000  P
  P8       1.0000 0.70540  0.51156  0.47140  Biso   1.000  P
  P9       1.0000 0.56687  0.47547  0.53470  Biso   1.000  P
  P10      1.0000 0.50546  0.52771  0.64610  Biso   1.000  P
  O16      1.0000 0.65554  0.48374  0.42590  Biso   1.000  O
  O17      1.0000 0.61838  0.47487  0.40190  Biso   1.000  O
  O18      1.0000 0.64047  0.47418  0.20440  Biso   1.000  O
  O19      1.0000 0.64983  0.52181  0.59260  Biso   1.000  O
  O20      1.0000 0.61240  0.51256  0.58080  Biso   1.000  O
  O21      1.0000 0.62814  0.52820  0.79440  Biso   1.000  O
  O22      1.0000 0.72197  0.52723  0.45660  Biso   1.000  O
  O23      1.0000 0.70245  0.50492  0.61790  Biso   1.000  O
  O24      1.0000 0.68615  0.51942  0.41410  Biso   1.000  O
  O25      1.0000 0.56711  0.49225  0.43770  Biso   1.000  O
  O26      1.0000 0.54952  0.47520  0.61810  Biso   1.000  O
  O27      1.0000 0.58490  0.47467  0.61520  Biso   1.000  O
  O28      1.0000 0.52191  0.51400  0.58650  Biso   1.000  O
  O29      1.0000 0.48403  0.52270  0.58640  Biso   1.000  O
  O30      1.0000 0.50555  0.52750  0.79280  Biso   1.000  O
  H6       1.0000 0.64630  0.45120  0.36940  Biso   1.000  H
  H7       1.0000 0.62390  0.54760  0.59340  Biso   1.000  H
  H8       1.0000 0.71070  0.49720  0.37070  Biso   1.000  H
  H9       1.0000 0.56620  0.45940  0.43830  Biso   1.000  H
  H10      1.0000 0.51010  0.54200  0.56180  Biso   1.000  H
  Zn7      1.0000 0.34149  0.98683  0.42352  Biso   1.000  Zn
  Zn8      1.0000 0.38801  0.01632  0.57870  Biso   1.000  Zn
  Zn9      1.0000 0.47761  0.01515  0.58630  Biso   1.000  Zn
  P11      1.0000 0.35991  0.02841  0.35150  Biso   1.000  P
  P12      1.0000 0.37143  0.97263  0.64350  Biso   1.000  P
  P13      1.0000 0.29460  0.98844  0.47140  Biso   1.000  P
  P14      1.0000 0.43313  0.02453  0.53470  Biso   1.000  P
  P15      1.0000 0.49454  0.97229  0.64610  Biso   1.000  P
  O31      1.0000 0.34446  0.01626  0.42590  Biso   1.000  O
  O32      1.0000 0.38162  0.02513  0.40190  Biso   1.000  O
  O33      1.0000 0.35953  0.02582  0.20440  Biso   1.000  O
  O34      1.0000 0.35017  0.97819  0.59260  Biso   1.000  O
  O35      1.0000 0.38760  0.98744  0.58080  Biso   1.000  O
  O36      1.0000 0.37186  0.97180  0.79440  Biso   1.000  O
  O37      1.0000 0.27803  0.97277  0.45660  Biso   1.000  O
  O38      1.0000 0.29755  0.99508  0.61790  Biso   1.000  O
  O39      1.0000 0.31385  0.98058  0.41410  Biso   1.000  O
  O40      1.0000 0.43289  0.00775  0.43770  Biso   1.000  O
  O41      1.0000 0.45048  0.02480  0.61810  Biso   1.000  O
  O42      1.0000 0.41510  0.02533  0.61520  Biso   1.000  O
  O43      1.0000 0.47809  0.98600  0.58650  Biso   1.000  O
  O44      1.0000 0.51597  0.97730  0.58640  Biso   1.000  O
  O45      1.0000 0.49445  0.97250  0.79280  Biso   1.000  O
  H11      1.0000 0.35370  0.04880  0.36940  Biso   1.000  H
  H12      1.0000 0.37610  0.95240  0.59340  Biso   1.000  H
  H13      1.0000 0.28930  0.00280  0.37070  Biso   1.000  H
  H14      1.0000 0.43380  0.04060  0.43830  Biso   1.000  H
  H15      1.0000 0.48990  0.95800  0.56180  Biso   1.000  H
  Zn10     1.0000 0.84149  0.48683  0.92352  Biso   1.000  Zn
  Zn11     1.0000 0.88801  0.51632  0.07870  Biso   1.000  Zn
  Zn12     1.0000 0.97761  0.51515  0.08630  Biso   1.000  Zn
  P16      1.0000 0.85991  0.52841  0.85150  Biso   1.000  P
  P17      1.0000 0.87143  0.47263  0.14350  Biso   1.000  P
  P18      1.0000 0.79460  0.48844  0.97140  Biso   1.000  P
  P19      1.0000 0.93313  0.52453  0.03470  Biso   1.000  P
  P20      1.0000 0.99454  0.47229  0.14610  Biso   1.000  P
  O46      1.0000 0.84446  0.51626  0.92590  Biso   1.000  O
  O47      1.0000 0.88162  0.52513  0.90190  Biso   1.000  O
  O48      1.0000 0.85953  0.52582  0.70440  Biso   1.000  O
  O49      1.0000 0.85017  0.47819  0.09260  Biso   1.000  O
  O50      1.0000 0.88760  0.48744  0.08080  Biso   1.000  O
  O51      1.0000 0.87186  0.47180  0.29440  Biso   1.000  O
  O52      1.0000 0.77803  0.47277  0.95660  Biso   1.000  O
  O53      1.0000 0.79755  0.49508  0.11790  Biso   1.000  O
  O54      1.0000 0.81385  0.48058  0.91410  Biso   1.000  O
  O55      1.0000 0.93289  0.50775  0.93770  Biso   1.000  O
  O56      1.0000 0.95048  0.52480  0.11810  Biso   1.000  O
  O57      1.0000 0.91510  0.52533  0.11520  Biso   1.000  O
  O58      1.0000 0.97809  0.48600  0.08650  Biso   1.000  O
  O59      1.0000 0.01597  0.47730  0.08640  Biso   1.000  O
  O60      1.0000 0.99445  0.47250  0.29280  Biso   1.000  O
  H16      1.0000 0.85370  0.54880  0.86940  Biso   1.000  H
  H17      1.0000 0.87610  0.45240  0.09340  Biso   1.000  H
  H18      1.0000 0.78930  0.50280  0.87070  Biso   1.000  H
  H19      1.0000 0.93380  0.54060  0.93830  Biso   1.000  H
  H20      1.0000 0.98990  0.45800  0.06180  Biso   1.000  H
  Zn13     1.0000 0.23683  0.90851  0.17352  Biso   1.000  Zn
  Zn14     1.0000 0.26632  0.86199  0.32870  Biso   1.000  Zn
  Zn15     1.0000 0.26515  0.77239  0.33630  Biso   1.000  Zn
  P21      1.0000 0.27841  0.89009  0.10150  Biso   1.000  P
  P22      1.0000 0.22263  0.87857  0.39350  Biso   1.000  P
  P23      1.0000 0.23844  0.95540  0.22140  Biso   1.000  P
  P24      1.0000 0.27453  0.81687  0.28470  Biso   1.000  P
  P25      1.0000 0.22229  0.75546  0.39610  Biso   1.000  P
  O61      1.0000 0.26626  0.90554  0.17590  Biso   1.000  O
  O62      1.0000 0.27513  0.86838  0.15190  Biso   1.000  O
  O63      1.0000 0.27582  0.89047  0.95440  Biso   1.000  O
  O64      1.0000 0.22819  0.89983  0.34260  Biso   1.000  O
  O65      1.0000 0.23744  0.86240  0.33080  Biso   1.000  O
  O66      1.0000 0.22180  0.87814  0.54440  Biso   1.000  O
  O67      1.0000 0.22277  0.97197  0.20660  Biso   1.000  O
  O68      1.0000 0.24508  0.95245  0.36790  Biso   1.000  O
  O69      1.0000 0.23058  0.93615  0.16410  Biso   1.000  O
  O70      1.0000 0.25775  0.81711  0.18770  Biso   1.000  O
  O71      1.0000 0.27480  0.79952  0.36810  Biso   1.000  O
  O72      1.0000 0.27533  0.83490  0.36520  Biso   1.000  O
  O73      1.0000 0.23600  0.77191  0.33650  Biso   1.000  O
  O74      1.0000 0.22730  0.73403  0.33640  Biso   1.000  O
  O75      1.0000 0.22250  0.75555  0.54280  Biso   1.000  O
  H21      1.0000 0.29880  0.89630  0.11940  Biso   1.000  H
  H22      1.0000 0.20240  0.87390  0.34340  Biso   1.000  H
  H23      1.0000 0.25280  0.96070  0.12070  Biso   1.000  H
  H24      1.0000 0.29060  0.81620  0.18830  Biso   1.000  H
  H25      1.0000 0.20800  0.76010  0.31180  Biso   1.000  H
  Zn16     1.0000 0.73683  0.40851  0.67352  Biso   1.000  Zn
  Zn17     1.0000 0.76632  0.36199  0.82870  Biso   1.000  Zn
  Zn18     1.0000 0.76515  0.27239  0.83630  Biso   1.000  Zn
  P26      1.0000 0.77841  0.39009  0.60150  Biso   1.000  P
  P27      1.0000 0.72263  0.37857  0.89350  Biso   1.000  P
  P28      1.0000 0.73844  0.45540  0.72140  Biso   1.000  P
  P29      1.0000 0.77453  0.31687  0.78470  Biso   1.000  P
  P30      1.0000 0.72229  0.25546  0.89610  Biso   1.000  P
  O76      1.0000 0.76626  0.40554  0.67590  Biso   1.000  O
  O77      1.0000 0.77513  0.36838  0.65190  Biso   1.000  O
  O78      1.0000 0.77582  0.39047  0.45440  Biso   1.000  O
  O79      1.0000 0.72819  0.39983  0.84260  Biso   1.000  O
  O80      1.0000 0.73744  0.36240  0.83080  Biso   1.000  O
  O81      1.0000 0.72180  0.37814  0.04440  Biso   1.000  O
  O82      1.0000 0.72277  0.47197  0.70660  Biso   1.000  O
  O83      1.0000 0.74508  0.45245  0.86790  Biso   1.000  O
  O84      1.0000 0.73058  0.43615  0.66410  Biso   1.000  O
  O85      1.0000 0.75775  0.31711  0.68770  Biso   1.000  O
  O86      1.0000 0.77480  0.29952  0.86810  Biso   1.000  O
  O87      1.0000 0.77533  0.33490  0.86520  Biso   1.000  O
  O88      1.0000 0.73600  0.27191  0.83650  Biso   1.000  O
  O89      1.0000 0.72730  0.23403  0.83640  Biso   1.000  O
  O90      1.0000 0.72250  0.25555  0.04280  Biso   1.000  O
  H26      1.0000 0.79880  0.39630  0.61940  Biso   1.000  H
  H27      1.0000 0.70240  0.37390  0.84340  Biso   1.000  H
  H28      1.0000 0.75280  0.46070  0.62070  Biso   1.000  H
  H29      1.0000 0.79060  0.31620  0.68830  Biso   1.000  H
  H30      1.0000 0.70800  0.26010  0.81180  Biso   1.000  H
  Zn19     1.0000 0.26317  0.09149  0.67352  Biso   1.000  Zn
  Zn20     1.0000 0.23368  0.13801  0.82870  Biso   1.000  Zn
  Zn21     1.0000 0.23485  0.22761  0.83630  Biso   1.000  Zn
  P31      1.0000 0.22159  0.10991  0.60150  Biso   1.000  P
  P32      1.0000 0.27737  0.12143  0.89350  Biso   1.000  P
  P33      1.0000 0.26156  0.04460  0.72140  Biso   1.000  P
  P34      1.0000 0.22547  0.18313  0.78470  Biso   1.000  P
  P35      1.0000 0.27771  0.24454  0.89610  Biso   1.000  P
  O91      1.0000 0.23374  0.09446  0.67590  Biso   1.000  O
  O92      1.0000 0.22487  0.13162  0.65190  Biso   1.000  O
  O93      1.0000 0.22418  0.10953  0.45440  Biso   1.000  O
  O94      1.0000 0.27181  0.10017  0.84260  Biso   1.000  O
  O95      1.0000 0.26256  0.13760  0.83080  Biso   1.000  O
  O96      1.0000 0.27820  0.12186  0.04440  Biso   1.000  O
  O97      1.0000 0.27723  0.02803  0.70660  Biso   1.000  O
  O98      1.0000 0.25492  0.04755  0.86790  Biso   1.000  O
  O99      1.0000 0.26942  0.06385  0.66410  Biso   1.000  O
  O100     1.0000 0.24225  0.18289  0.68770  Biso   1.000  O
  O101     1.0000 0.22520  0.20048  0.86810  Biso   1.000  O
  O102     1.0000 0.22467  0.16510  0.86520  Biso   1.000  O
  O103     1.0000 0.26400  0.22809  0.83650  Biso   1.000  O
  O104     1.0000 0.27270  0.26597  0.83640  Biso   1.000  O
  O105     1.0000 0.27750  0.24445  0.04280  Biso   1.000  O
  H31      1.0000 0.20120  0.10370  0.61940  Biso   1.000  H
  H32      1.0000 0.29760  0.12610  0.84340  Biso   1.000  H
  H33      1.0000 0.24720  0.03930  0.62070  Biso   1.000  H
  H34      1.0000 0.20940  0.18380  0.68830  Biso   1.000  H
  H35      1.0000 0.29200  0.23990  0.81180  Biso   1.000  H
  Zn22     1.0000 0.76317  0.59149  0.17352  Biso   1.000  Zn
  Zn23     1.0000 0.73368  0.63801  0.32870  Biso   1.000  Zn
  Zn24     1.0000 0.73485  0.72761  0.33630  Biso   1.000  Zn
  P36      1.0000 0.72159  0.60991  0.10150  Biso   1.000  P
  P37      1.0000 0.77737  0.62143  0.39350  Biso   1.000  P
  P38      1.0000 0.76156  0.54460  0.22140  Biso   1.000  P
  P39      1.0000 0.72547  0.68313  0.28470  Biso   1.000  P
  P40      1.0000 0.77771  0.74454  0.39610  Biso   1.000  P
  O106     1.0000 0.73374  0.59446  0.17590  Biso   1.000  O
  O107     1.0000 0.72487  0.63162  0.15190  Biso   1.000  O
  O108     1.0000 0.72418  0.60953  0.95440  Biso   1.000  O
  O109     1.0000 0.77181  0.60017  0.34260  Biso   1.000  O
  O110     1.0000 0.76256  0.63760  0.33080  Biso   1.000  O
  O111     1.0000 0.77820  0.62186  0.54440  Biso   1.000  O
  O112     1.0000 0.77723  0.52803  0.20660  Biso   1.000  O
  O113     1.0000 0.75492  0.54755  0.36790  Biso   1.000  O
  O114     1.0000 0.76942  0.56385  0.16410  Biso   1.000  O
  O115     1.0000 0.74225  0.68289  0.18770  Biso   1.000  O
  O116     1.0000 0.72520  0.70048  0.36810  Biso   1.000  O
  O117     1.0000 0.72467  0.66510  0.36520  Biso   1.000  O
  O118     1.0000 0.76400  0.72809  0.33650  Biso   1.000  O
  O119     1.0000 0.77270  0.76597  0.33640  Biso   1.000  O
  O120     1.0000 0.77750  0.74445  0.54280  Biso   1.000  O
  H36      1.0000 0.70120  0.60370  0.11940  Biso   1.000  H
  H37      1.0000 0.79760  0.62610  0.34340  Biso   1.000  H
  H38      1.0000 0.74720  0.53930  0.12070  Biso   1.000  H
  H39      1.0000 0.70940  0.68380  0.18830  Biso   1.000  H
  H40      1.0000 0.79200  0.73990  0.31180  Biso   1.000  H
  Zn25     1.0000 0.34149  0.01317  0.07648  Biso   1.000  Zn
  Zn26     1.0000 0.38801  0.98368  0.92130  Biso   1.000  Zn
  Zn27     1.0000 0.47761  0.98485  0.91370  Biso   1.000  Zn
  P41      1.0000 0.35991  0.97159  0.14850  Biso   1.000  P
  P42      1.0000 0.37143  0.02737  0.85650  Biso   1.000  P
  P43      1.0000 0.29460  0.01156  0.02860  Biso   1.000  P
  P44      1.0000 0.43313  0.97547  0.96530  Biso   1.000  P
  P45      1.0000 0.49454  0.02771  0.85390  Biso   1.000  P
  O121     1.0000 0.34446  0.98374  0.07410  Biso   1.000  O
  O122     1.0000 0.38162  0.97487  0.09810  Biso   1.000  O
  O123     1.0000 0.35953  0.97418  0.29560  Biso   1.000  O
  O124     1.0000 0.35017  0.02181  0.90740  Biso   1.000  O
  O125     1.0000 0.38760  0.01256  0.91920  Biso   1.000  O
  O126     1.0000 0.37186  0.02820  0.70560  Biso   1.000  O
  O127     1.0000 0.27803  0.02723  0.04340  Biso   1.000  O
  O128     1.0000 0.29755  0.00492  0.88210  Biso   1.000  O
  O129     1.0000 0.31385  0.01942  0.08590  Biso   1.000  O
  O130     1.0000 0.43289  0.99225  0.06230  Biso   1.000  O
  O131     1.0000 0.45048  0.97520  0.88190  Biso   1.000  O
  O132     1.0000 0.41510  0.97467  0.88480  Biso   1.000  O
  O133     1.0000 0.47809  0.01400  0.91350  Biso   1.000  O
  O134     1.0000 0.51597  0.02270  0.91360  Biso   1.000  O
  O135     1.0000 0.49445  0.02750  0.70720  Biso   1.000  O
  H41      1.0000 0.35370  0.95120  0.13060  Biso   1.000  H
  H42      1.0000 0.37610  0.04760  0.90660  Biso   1.000  H
  H43      1.0000 0.28930  0.99720  0.12930  Biso   1.000  H
  H44      1.0000 0.43380  0.95940  0.06170  Biso   1.000  H
  H45      1.0000 0.48990  0.04200  0.93820  Biso   1.000  H
  Zn28     1.0000 0.84149  0.51317  0.57648  Biso   1.000  Zn
  Zn29     1.0000 0.88801  0.48368  0.42130  Biso   1.000  Zn
  Zn30     1.0000 0.97761  0.48485  0.41370  Biso   1.000  Zn
  P46      1.0000 0.85991  0.47159  0.64850  Biso   1.000  P
  P47      1.0000 0.87143  0.52737  0.35650  Biso   1.000  P
  P48      1.0000 0.79460  0.51156  0.52860  Biso   1.000  P
  P49      1.0000 0.93313  0.47547  0.46530  Biso   1.000  P
  P50      1.0000 0.99454  0.52771  0.35390  Biso   1.000  P
  O136     1.0000 0.84446  0.48374  0.57410  Biso   1.000  O
  O137     1.0000 0.88162  0.47487  0.59810  Biso   1.000  O
  O138     1.0000 0.85953  0.47418  0.79560  Biso   1.000  O
  O139     1.0000 0.85017  0.52181  0.40740  Biso   1.000  O
  O140     1.0000 0.88760  0.51256  0.41920  Biso   1.000  O
  O141     1.0000 0.87186  0.52820  0.20560  Biso   1.000  O
  O142     1.0000 0.77803  0.52723  0.54340  Biso   1.000  O
  O143     1.0000 0.79755  0.50492  0.38210  Biso   1.000  O
  O144     1.0000 0.81385  0.51942  0.58590  Biso   1.000  O
  O145     1.0000 0.93289  0.49225  0.56230  Biso   1.000  O
  O146     1.0000 0.95048  0.47520  0.38190  Biso   1.000  O
  O147     1.0000 0.91510  0.47467  0.38480  Biso   1.000  O
  O148     1.0000 0.97809  0.51400  0.41350  Biso   1.000  O
  O149     1.0000 0.01597  0.52270  0.41360  Biso   1.000  O
  O150     1.0000 0.99445  0.52750  0.20720  Biso   1.000  O
  H46      1.0000 0.85370  0.45120  0.63060  Biso   1.000  H
  H47      1.0000 0.87610  0.54760  0.40660  Biso   1.000  H
  H48      1.0000 0.78930  0.49720  0.62930  Biso   1.000  H
  H49      1.0000 0.93380  0.45940  0.56170  Biso   1.000  H
  H50      1.0000 0.98990  0.54200  0.43820  Biso   1.000  H
  Zn31     1.0000 0.15851  0.98683  0.57648  Biso   1.000  Zn
  Zn32     1.0000 0.11199  0.01632  0.42130  Biso   1.000  Zn
  Zn33     1.0000 0.02239  0.01515  0.41370  Biso   1.000  Zn
  P51      1.0000 0.14009  0.02841  0.64850  Biso   1.000  P
  P52      1.0000 0.12857  0.97263  0.35650  Biso   1.000  P
  P53      1.0000 0.20540  0.98844  0.52860  Biso   1.000  P
  P54      1.0000 0.06687  0.02453  0.46530  Biso   1.000  P
  P55      1.0000 0.00546  0.97229  0.35390  Biso   1.000  P
  O151     1.0000 0.15554  0.01626  0.57410  Biso   1.000  O
  O152     1.0000 0.11838  0.02513  0.59810  Biso   1.000  O
  O153     1.0000 0.14047  0.02582  0.79560  Biso   1.000  O
  O154     1.0000 0.14983  0.97819  0.40740  Biso   1.000  O
  O155     1.0000 0.11240  0.98744  0.41920  Biso   1.000  O
  O156     1.0000 0.12814  0.97180  0.20560  Biso   1.000  O
  O157     1.0000 0.22197  0.97277  0.54340  Biso   1.000  O
  O158     1.0000 0.20245  0.99508  0.38210  Biso   1.000  O
  O159     1.0000 0.18615  0.98058  0.58590  Biso   1.000  O
  O160     1.0000 0.06711  0.00775  0.56230  Biso   1.000  O
  O161     1.0000 0.04952  0.02480  0.38190  Biso   1.000  O
  O162     1.0000 0.08490  0.02533  0.38480  Biso   1.000  O
  O163     1.0000 0.02191  0.98600  0.41350  Biso   1.000  O
  O164     1.0000 0.98403  0.97730  0.41360  Biso   1.000  O
  O165     1.0000 0.00555  0.97250  0.20720  Biso   1.000  O
  H51      1.0000 0.14630  0.04880  0.63060  Biso   1.000  H
  H52      1.0000 0.12390  0.95240  0.40660  Biso   1.000  H
  H53      1.0000 0.21070  0.00280  0.62930  Biso   1.000  H
  H54      1.0000 0.06620  0.04060  0.56170  Biso   1.000  H
  H55      1.0000 0.01010  0.95800  0.43820  Biso   1.000  H
  Zn34     1.0000 0.65851  0.48683  0.07648  Biso   1.000  Zn
  Zn35     1.0000 0.61199  0.51632  0.92130  Biso   1.000  Zn
  Zn36     1.0000 0.52239  0.51515  0.91370  Biso   1.000  Zn
  P56      1.0000 0.64009  0.52841  0.14850  Biso   1.000  P
  P57      1.0000 0.62857  0.47263  0.85650  Biso   1.000  P
  P58      1.0000 0.70540  0.48844  0.02860  Biso   1.000  P
  P59      1.0000 0.56687  0.52453  0.96530  Biso   1.000  P
  P60      1.0000 0.50546  0.47229  0.85390  Biso   1.000  P
  O166     1.0000 0.65554  0.51626  0.07410  Biso   1.000  O
  O167     1.0000 0.61838  0.52513  0.09810  Biso   1.000  O
  O168     1.0000 0.64047  0.52582  0.29560  Biso   1.000  O
  O169     1.0000 0.64983  0.47819  0.90740  Biso   1.000  O
  O170     1.0000 0.61240  0.48744  0.91920  Biso   1.000  O
  O171     1.0000 0.62814  0.47180  0.70560  Biso   1.000  O
  O172     1.0000 0.72197  0.47277  0.04340  Biso   1.000  O
  O173     1.0000 0.70245  0.49508  0.88210  Biso   1.000  O
  O174     1.0000 0.68615  0.48058  0.08590  Biso   1.000  O
  O175     1.0000 0.56711  0.50775  0.06230  Biso   1.000  O
  O176     1.0000 0.54952  0.52480  0.88190  Biso   1.000  O
  O177     1.0000 0.58490  0.52533  0.88480  Biso   1.000  O
  O178     1.0000 0.52191  0.48600  0.91350  Biso   1.000  O
  O179     1.0000 0.48403  0.47730  0.91360  Biso   1.000  O
  O180     1.0000 0.50555  0.47250  0.70720  Biso   1.000  O
  H56      1.0000 0.64630  0.54880  0.13060  Biso   1.000  H
  H57      1.0000 0.62390  0.45240  0.90660  Biso   1.000  H
  H58      1.0000 0.71070  0.50280  0.12930  Biso   1.000  H
  H59      1.0000 0.56620  0.54060  0.06170  Biso   1.000  H
  H60      1.0000 0.51010  0.45800  0.93820  Biso   1.000  H
  Zn37     1.0000 0.26317  0.90851  0.82648  Biso   1.000  Zn
  Zn38     1.0000 0.23368  0.86199  0.67130  Biso   1.000  Zn
  Zn39     1.0000 0.23485  0.77239  0.66370  Biso   1.000  Zn
  P61      1.0000 0.22159  0.89009  0.89850  Biso   1.000  P
  P62      1.0000 0.27737  0.87857  0.60650  Biso   1.000  P
  P63      1.0000 0.26156  0.95540  0.77860  Biso   1.000  P
  P64      1.0000 0.22547  0.81687  0.71530  Biso   1.000  P
  P65      1.0000 0.27771  0.75546  0.60390  Biso   1.000  P
  O181     1.0000 0.23374  0.90554  0.82410  Biso   1.000  O
  O182     1.0000 0.22487  0.86838  0.84810  Biso   1.000  O
  O183     1.0000 0.22418  0.89047  0.04560  Biso   1.000  O
  O184     1.0000 0.27181  0.89983  0.65740  Biso   1.000  O
  O185     1.0000 0.26256  0.86240  0.66920  Biso   1.000  O
  O186     1.0000 0.27820  0.87814  0.45560  Biso   1.000  O
  O187     1.0000 0.27723  0.97197  0.79340  Biso   1.000  O
  O188     1.0000 0.25492  0.95245  0.63210  Biso   1.000  O
  O189     1.0000 0.26942  0.93615  0.83590  Biso   1.000  O
  O190     1.0000 0.24225  0.81711  0.81230  Biso   1.000  O
  O191     1.0000 0.22520  0.79952  0.63190  Biso   1.000  O
  O192     1.0000 0.22467  0.83490  0.63480  Biso   1.000  O
  O193     1.0000 0.26400  0.77191  0.66350  Biso   1.000  O
  O194     1.0000 0.27270  0.73403  0.66360  Biso   1.000  O
  O195     1.0000 0.27750  0.75555  0.45720  Biso   1.000  O
  H61      1.0000 0.20120  0.89630  0.88060  Biso   1.000  H
  H62      1.0000 0.29760  0.87390  0.65660  Biso   1.000  H
  H63      1.0000 0.24720  0.96070  0.87930  Biso   1.000  H
  H64      1.0000 0.20940  0.81620  0.81170  Biso   1.000  H
  H65      1.0000 0.29200  0.76010  0.68820  Biso   1.000  H
  Zn40     1.0000 0.76317  0.40851  0.32648  Biso   1.000  Zn
  Zn41     1.0000 0.73368  0.36199  0.17130  Biso   1.000  Zn
  Zn42     1.0000 0.73485  0.27239  0.16370  Biso   1.000  Zn
  P66      1.0000 0.72159  0.39009  0.39850  Biso   1.000  P
  P67      1.0000 0.77737  0.37857  0.10650  Biso   1.000  P
  P68      1.0000 0.76156  0.45540  0.27860  Biso   1.000  P
  P69      1.0000 0.72547  0.31687  0.21530  Biso   1.000  P
  P70      1.0000 0.77771  0.25546  0.10390  Biso   1.000  P
  O196     1.0000 0.73374  0.40554  0.32410  Biso   1.000  O
  O197     1.0000 0.72487  0.36838  0.34810  Biso   1.000  O
  O198     1.0000 0.72418  0.39047  0.54560  Biso   1.000  O
  O199     1.0000 0.77181  0.39983  0.15740  Biso   1.000  O
  O200     1.0000 0.76256  0.36240  0.16920  Biso   1.000  O
  O201     1.0000 0.77820  0.37814  0.95560  Biso   1.000  O
  O202     1.0000 0.77723  0.47197  0.29340  Biso   1.000  O
  O203     1.0000 0.75492  0.45245  0.13210  Biso   1.000  O
  O204     1.0000 0.76942  0.43615  0.33590  Biso   1.000  O
  O205     1.0000 0.74225  0.31711  0.31230  Biso   1.000  O
  O206     1.0000 0.72520  0.29952  0.13190  Biso   1.000  O
  O207     1.0000 0.72467  0.33490  0.13480  Biso   1.000  O
  O208     1.0000 0.76400  0.27191  0.16350  Biso   1.000  O
  O209     1.0000 0.77270  0.23403  0.16360  Biso   1.000  O
  O210     1.0000 0.77750  0.25555  0.95720  Biso   1.000  O
  H66      1.0000 0.70120  0.39630  0.38060  Biso   1.000  H
  H67      1.0000 0.79760  0.37390  0.15660  Biso   1.000  H
  H68      1.0000 0.74720  0.46070  0.37930  Biso   1.000  H
  H69      1.0000 0.70940  0.31620  0.31170  Biso   1.000  H
  H70      1.0000 0.79200  0.26010  0.18820  Biso   1.000  H
  Zn43     1.0000 0.23683  0.09149  0.32648  Biso   1.000  Zn
  Zn44     1.0000 0.26632  0.13801  0.17130  Biso   1.000  Zn
  Zn45     1.0000 0.26515  0.22761  0.16370  Biso   1.000  Zn
  P71      1.0000 0.27841  0.10991  0.39850  Biso   1.000  P
  P72      1.0000 0.22263  0.12143  0.10650  Biso   1.000  P
  P73      1.0000 0.23844  0.04460  0.27860  Biso   1.000  P
  P74      1.0000 0.27453  0.18313  0.21530  Biso   1.000  P
  P75      1.0000 0.22229  0.24454  0.10390  Biso   1.000  P
  O211     1.0000 0.26626  0.09446  0.32410  Biso   1.000  O
  O212     1.0000 0.27513  0.13162  0.34810  Biso   1.000  O
  O213     1.0000 0.27582  0.10953  0.54560  Biso   1.000  O
  O214     1.0000 0.22819  0.10017  0.15740  Biso   1.000  O
  O215     1.0000 0.23744  0.13760  0.16920  Biso   1.000  O
  O216     1.0000 0.22180  0.12186  0.95560  Biso   1.000  O
  O217     1.0000 0.22277  0.02803  0.29340  Biso   1.000  O
  O218     1.0000 0.24508  0.04755  0.13210  Biso   1.000  O
  O219     1.0000 0.23058  0.06385  0.33590  Biso   1.000  O
  O220     1.0000 0.25775  0.18289  0.31230  Biso   1.000  O
  O221     1.0000 0.27480  0.20048  0.13190  Biso   1.000  O
  O222     1.0000 0.27533  0.16510  0.13480  Biso   1.000  O
  O223     1.0000 0.23600  0.22809  0.16350  Biso   1.000  O
  O224     1.0000 0.22730  0.26597  0.16360  Biso   1.000  O
  O225     1.0000 0.22250  0.24445  0.95720  Biso   1.000  O
  H71      1.0000 0.29880  0.10370  0.38060  Biso   1.000  H
  H72      1.0000 0.20240  0.12610  0.15660  Biso   1.000  H
  H73      1.0000 0.25280  0.03930  0.37930  Biso   1.000  H
  H74      1.0000 0.29060  0.18380  0.31170  Biso   1.000  H
  H75      1.0000 0.20800  0.23990  0.18820  Biso   1.000  H
  Zn46     1.0000 0.73683  0.59149  0.82648  Biso   1.000  Zn
  Zn47     1.0000 0.76632  0.63801  0.67130  Biso   1.000  Zn
  Zn48     1.0000 0.76515  0.72761  0.66370  Biso   1.000  Zn
  P76      1.0000 0.77841  0.60991  0.89850  Biso   1.000  P
  P77      1.0000 0.72263  0.62143  0.60650  Biso   1.000  P
  P78      1.0000 0.73844  0.54460  0.77860  Biso   1.000  P
  P79      1.0000 0.77453  0.68313  0.71530  Biso   1.000  P
  P80      1.0000 0.72229  0.74454  0.60390  Biso   1.000  P
  O226     1.0000 0.76626  0.59446  0.82410  Biso   1.000  O
  O227     1.0000 0.77513  0.63162  0.84810  Biso   1.000  O
  O228     1.0000 0.77582  0.60953  0.04560  Biso   1.000  O
  O229     1.0000 0.72819  0.60017  0.65740  Biso   1.000  O
  O230     1.0000 0.73744  0.63760  0.66920  Biso   1.000  O
  O231     1.0000 0.72180  0.62186  0.45560  Biso   1.000  O
  O232     1.0000 0.72277  0.52803  0.79340  Biso   1.000  O
  O233     1.0000 0.74508  0.54755  0.63210  Biso   1.000  O
  O234     1.0000 0.73058  0.56385  0.83590  Biso   1.000  O
  O235     1.0000 0.75775  0.68289  0.81230  Biso   1.000  O
  O236     1.0000 0.77480  0.70048  0.63190  Biso   1.000  O
  O237     1.0000 0.77533  0.66510  0.63480  Biso   1.000  O
  O238     1.0000 0.73600  0.72809  0.66350  Biso   1.000  O
  O239     1.0000 0.72730  0.76597  0.66360  Biso   1.000  O
  O240     1.0000 0.72250  0.74445  0.45720  Biso   1.000  O
  H76      1.0000 0.79880  0.60370  0.88060  Biso   1.000  H
  H77      1.0000 0.70240  0.62610  0.65660  Biso   1.000  H
  H78      1.0000 0.75280  0.53930  0.87930  Biso   1.000  H
  H79      1.0000 0.79060  0.68380  0.81170  Biso   1.000  H
  H80      1.0000 0.70800  0.73990  0.68820  Biso   1.000  H
  Zn49     1.0000 0.84149  0.98683  0.07648  Biso   1.000  Zn
  Zn50     1.0000 0.88801  0.01632  0.92130  Biso   1.000  Zn
  Zn51     1.0000 0.97761  0.01515  0.91370  Biso   1.000  Zn
  P81      1.0000 0.85991  0.02841  0.14850  Biso   1.000  P
  P82      1.0000 0.87143  0.97263  0.85650  Biso   1.000  P
  P83      1.0000 0.79460  0.98844  0.02860  Biso   1.000  P
  P84      1.0000 0.93313  0.02453  0.96530  Biso   1.000  P
  P85      1.0000 0.99454  0.97229  0.85390  Biso   1.000  P
  O241     1.0000 0.84446  0.01626  0.07410  Biso   1.000  O
  O242     1.0000 0.88162  0.02513  0.09810  Biso   1.000  O
  O243     1.0000 0.85953  0.02582  0.29560  Biso   1.000  O
  O244     1.0000 0.85017  0.97819  0.90740  Biso   1.000  O
  O245     1.0000 0.88760  0.98744  0.91920  Biso   1.000  O
  O246     1.0000 0.87186  0.97180  0.70560  Biso   1.000  O
  O247     1.0000 0.77803  0.97277  0.04340  Biso   1.000  O
  O248     1.0000 0.79755  0.99508  0.88210  Biso   1.000  O
  O249     1.0000 0.81385  0.98058  0.08590  Biso   1.000  O
  O250     1.0000 0.93289  0.00775  0.06230  Biso   1.000  O
  O251     1.0000 0.95048  0.02480  0.88190  Biso   1.000  O
  O252     1.0000 0.91510  0.02533  0.88480  Biso   1.000  O
  O253     1.0000 0.97809  0.98600  0.91350  Biso   1.000  O
  O254     1.0000 0.01597  0.97730  0.91360  Biso   1.000  O
  O255     1.0000 0.99445  0.97250  0.70720  Biso   1.000  O
  H81      1.0000 0.85370  0.04880  0.13060  Biso   1.000  H
  H82      1.0000 0.87610  0.95240  0.90660  Biso   1.000  H
  H83      1.0000 0.78930  0.00280  0.12930  Biso   1.000  H
  H84      1.0000 0.93380  0.04060  0.06170  Biso   1.000  H
  H85      1.0000 0.98990  0.95800  0.93820  Biso   1.000  H
  Zn52     1.0000 0.34149  0.48683  0.57648  Biso   1.000  Zn
  Zn53     1.0000 0.38801  0.51632  0.42130  Biso   1.000  Zn
  Zn54     1.0000 0.47761  0.51515  0.41370  Biso   1.000  Zn
  P86      1.0000 0.35991  0.52841  0.64850  Biso   1.000  P
  P87      1.0000 0.37143  0.47263  0.35650  Biso   1.000  P
  P88      1.0000 0.29460  0.48844  0.52860  Biso   1.000  P
  P89      1.0000 0.43313  0.52453  0.46530  Biso   1.000  P
  P90      1.0000 0.49454  0.47229  0.35390  Biso   1.000  P
  O256     1.0000 0.34446  0.51626  0.57410  Biso   1.000  O
  O257     1.0000 0.38162  0.52513  0.59810  Biso   1.000  O
  O258     1.0000 0.35953  0.52582  0.79560  Biso   1.000  O
  O259     1.0000 0.35017  0.47819  0.40740  Biso   1.000  O
  O260     1.0000 0.38760  0.48744  0.41920  Biso   1.000  O
  O261     1.0000 0.37186  0.47180  0.20560  Biso   1.000  O
  O262     1.0000 0.27803  0.47277  0.54340  Biso   1.000  O
  O263     1.0000 0.29755  0.49508  0.38210  Biso   1.000  O
  O264     1.0000 0.31385  0.48058  0.58590  Biso   1.000  O
  O265     1.0000 0.43289  0.50775  0.56230  Biso   1.000  O
  O266     1.0000 0.45048  0.52480  0.38190  Biso   1.000  O
  O267     1.0000 0.41510  0.52533  0.38480  Biso   1.000  O
  O268     1.0000 0.47809  0.48600  0.41350  Biso   1.000  O
  O269     1.0000 0.51597  0.47730  0.41360  Biso   1.000  O
  O270     1.0000 0.49445  0.47250  0.20720  Biso   1.000  O
  H86      1.0000 0.35370  0.54880  0.63060  Biso   1.000  H
  H87      1.0000 0.37610  0.45240  0.40660  Biso   1.000  H
  H88      1.0000 0.28930  0.50280  0.62930  Biso   1.000  H
  H89      1.0000 0.43380  0.54060  0.56170  Biso   1.000  H
  H90      1.0000 0.48990  0.45800  0.43820  Biso   1.000  H
  Zn55     1.0000 0.65851  0.01317  0.57648  Biso   1.000  Zn
  Zn56     1.0000 0.61199  0.98368  0.42130  Biso   1.000  Zn
  Zn57     1.0000 0.52239  0.98485  0.41370  Biso   1.000  Zn
  P91      1.0000 0.64009  0.97159  0.64850  Biso   1.000  P
  P92      1.0000 0.62857  0.02737  0.35650  Biso   1.000  P
  P93      1.0000 0.70540  0.01156  0.52860  Biso   1.000  P
  P94      1.0000 0.56687  0.97547  0.46530  Biso   1.000  P
  P95      1.0000 0.50546  0.02771  0.35390  Biso   1.000  P
  O271     1.0000 0.65554  0.98374  0.57410  Biso   1.000  O
  O272     1.0000 0.61838  0.97487  0.59810  Biso   1.000  O
  O273     1.0000 0.64047  0.97418  0.79560  Biso   1.000  O
  O274     1.0000 0.64983  0.02181  0.40740  Biso   1.000  O
  O275     1.0000 0.61240  0.01256  0.41920  Biso   1.000  O
  O276     1.0000 0.62814  0.02820  0.20560  Biso   1.000  O
  O277     1.0000 0.72197  0.02723  0.54340  Biso   1.000  O
  O278     1.0000 0.70245  0.00492  0.38210  Biso   1.000  O
  O279     1.0000 0.68615  0.01942  0.58590  Biso   1.000  O
  O280     1.0000 0.56711  0.99225  0.56230  Biso   1.000  O
  O281     1.0000 0.54952  0.97520  0.38190  Biso   1.000  O
  O282     1.0000 0.58490  0.97467  0.38480  Biso   1.000  O
  O283     1.0000 0.52191  0.01400  0.41350  Biso   1.000  O
  O284     1.0000 0.48403  0.02270  0.41360  Biso   1.000  O
  O285     1.0000 0.50555  0.02750  0.20720  Biso   1.000  O
  H91      1.0000 0.64630  0.95120  0.63060  Biso   1.000  H
  H92      1.0000 0.62390  0.04760  0.40660  Biso   1.000  H
  H93      1.0000 0.71070  0.99720  0.62930  Biso   1.000  H
  H94      1.0000 0.56620  0.95940  0.56170  Biso   1.000  H
  H95      1.0000 0.51010  0.04200  0.43820  Biso   1.000  H
  Zn58     1.0000 0.15851  0.51317  0.07648  Biso   1.000  Zn
  Zn59     1.0000 0.11199  0.48368  0.92130  Biso   1.000  Zn
  Zn60     1.0000 0.02239  0.48485  0.91370  Biso   1.000  Zn
  P96      1.0000 0.14009  0.47159  0.14850  Biso   1.000  P
  P97      1.0000 0.12857  0.52737  0.85650  Biso   1.000  P
  P98      1.0000 0.20540  0.51156  0.02860  Biso   1.000  P
  P99      1.0000 0.06687  0.47547  0.96530  Biso   1.000  P
  P100     1.0000 0.00546  0.52771  0.85390  Biso   1.000  P
  O286     1.0000 0.15554  0.48374  0.07410  Biso   1.000  O
  O287     1.0000 0.11838  0.47487  0.09810  Biso   1.000  O
  O288     1.0000 0.14047  0.47418  0.29560  Biso   1.000  O
  O289     1.0000 0.14983  0.52181  0.90740  Biso   1.000  O
  O290     1.0000 0.11240  0.51256  0.91920  Biso   1.000  O
  O291     1.0000 0.12814  0.52820  0.70560  Biso   1.000  O
  O292     1.0000 0.22197  0.52723  0.04340  Biso   1.000  O
  O293     1.0000 0.20245  0.50492  0.88210  Biso   1.000  O
  O294     1.0000 0.18615  0.51942  0.08590  Biso   1.000  O
  O295     1.0000 0.06711  0.49225  0.06230  Biso   1.000  O
  O296     1.0000 0.04952  0.47520  0.88190  Biso   1.000  O
  O297     1.0000 0.08490  0.47467  0.88480  Biso   1.000  O
  O298     1.0000 0.02191  0.51400  0.91350  Biso   1.000  O
  O299     1.0000 0.98403  0.52270  0.91360  Biso   1.000  O
  O300     1.0000 0.00555  0.52750  0.70720  Biso   1.000  O
  H96      1.0000 0.14630  0.45120  0.13060  Biso   1.000  H
  H97      1.0000 0.12390  0.54760  0.90660  Biso   1.000  H
  H98      1.0000 0.21070  0.49720  0.12930  Biso   1.000  H
  H99      1.0000 0.06620  0.45940  0.06170  Biso   1.000  H
  H100     1.0000 0.01010  0.54200  0.93820  Biso   1.000  H
  Zn61     1.0000 0.76317  0.09149  0.82648  Biso   1.000  Zn
  Zn62     1.0000 0.73368  0.13801  0.67130  Biso   1.000  Zn
  Zn63     1.0000 0.73485  0.22761  0.66370  Biso   1.000  Zn
  P101     1.0000 0.72159  0.10991  0.89850  Biso   1.000  P
  P102     1.0000 0.77737  0.12143  0.60650  Biso   1.000  P
  P103     1.0000 0.76156  0.04460  0.77860  Biso   1.000  P
  P104     1.0000 0.72547  0.18313  0.71530  Biso   1.000  P
  P105     1.0000 0.77771  0.24454  0.60390  Biso   1.000  P
  O301     1.0000 0.73374  0.09446  0.82410  Biso   1.000  O
  O302     1.0000 0.72487  0.13162  0.84810  Biso   1.000  O
  O303     1.0000 0.72418  0.10953  0.04560  Biso   1.000  O
  O304     1.0000 0.77181  0.10017  0.65740  Biso   1.000  O
  O305     1.0000 0.76256  0.13760  0.66920  Biso   1.000  O
  O306     1.0000 0.77820  0.12186  0.45560  Biso   1.000  O
  O307     1.0000 0.77723  0.02803  0.79340  Biso   1.000  O
  O308     1.0000 0.75492  0.04755  0.63210  Biso   1.000  O
  O309     1.0000 0.76942  0.06385  0.83590  Biso   1.000  O
  O310     1.0000 0.74225  0.18289  0.81230  Biso   1.000  O
  O311     1.0000 0.72520  0.20048  0.63190  Biso   1.000  O
  O312     1.0000 0.72467  0.16510  0.63480  Biso   1.000  O
  O313     1.0000 0.76400  0.22809  0.66350  Biso   1.000  O
  O314     1.0000 0.77270  0.26597  0.66360  Biso   1.000  O
  O315     1.0000 0.77750  0.24445  0.45720  Biso   1.000  O
  H101     1.0000 0.70120  0.10370  0.88060  Biso   1.000  H
  H102     1.0000 0.79760  0.12610  0.65660  Biso   1.000  H
  H103     1.0000 0.74720  0.03930  0.87930  Biso   1.000  H
  H104     1.0000 0.70940  0.18380  0.81170  Biso   1.000  H
  H105     1.0000 0.79200  0.23990  0.68820  Biso   1.000  H
  Zn64     1.0000 0.26317  0.59149  0.32648  Biso   1.000  Zn
  Zn65     1.0000 0.23368  0.63801  0.17130  Biso   1.000  Zn
  Zn66     1.0000 0.23485  0.72761  0.16370  Biso   1.000  Zn
  P106     1.0000 0.22159  0.60991  0.39850  Biso   1.000  P
  P107     1.0000 0.27737  0.62143  0.10650  Biso   1.000  P
  P108     1.0000 0.26156  0.54460  0.27860  Biso   1.000  P
  P109     1.0000 0.22547  0.68313  0.21530  Biso   1.000  P
  P110     1.0000 0.27771  0.74454  0.10390  Biso   1.000  P
  O316     1.0000 0.23374  0.59446  0.32410  Biso   1.000  O
  O317     1.0000 0.22487  0.63162  0.34810  Biso   1.000  O
  O318     1.0000 0.22418  0.60953  0.54560  Biso   1.000  O
  O319     1.0000 0.27181  0.60017  0.15740  Biso   1.000  O
  O320     1.0000 0.26256  0.63760  0.16920  Biso   1.000  O
  O321     1.0000 0.27820  0.62186  0.95560  Biso   1.000  O
  O322     1.0000 0.27723  0.52803  0.29340  Biso   1.000  O
  O323     1.0000 0.25492  0.54755  0.13210  Biso   1.000  O
  O324     1.0000 0.26942  0.56385  0.33590  Biso   1.000  O
  O325     1.0000 0.24225  0.68289  0.31230  Biso   1.000  O
  O326     1.0000 0.22520  0.70048  0.13190  Biso   1.000  O
  O327     1.0000 0.22467  0.66510  0.13480  Biso   1.000  O
  O328     1.0000 0.26400  0.72809  0.16350  Biso   1.000  O
  O329     1.0000 0.27270  0.76597  0.16360  Biso   1.000  O
  O330     1.0000 0.27750  0.74445  0.95720  Biso   1.000  O
  H106     1.0000 0.20120  0.60370  0.38060  Biso   1.000  H
  H107     1.0000 0.29760  0.62610  0.15660  Biso   1.000  H
  H108     1.0000 0.24720  0.53930  0.37930  Biso   1.000  H
  H109     1.0000 0.20940  0.68380  0.31170  Biso   1.000  H
  H110     1.0000 0.29200  0.73990  0.18820  Biso   1.000  H
  Zn67     1.0000 0.73683  0.90851  0.32648  Biso   1.000  Zn
  Zn68     1.0000 0.76632  0.86199  0.17130  Biso   1.000  Zn
  Zn69     1.0000 0.76515  0.77239  0.16370  Biso   1.000  Zn
  P111     1.0000 0.77841  0.89009  0.39850  Biso   1.000  P
  P112     1.0000 0.72263  0.87857  0.10650  Biso   1.000  P
  P113     1.0000 0.73844  0.95540  0.27860  Biso   1.000  P
  P114     1.0000 0.77453  0.81687  0.21530  Biso   1.000  P
  P115     1.0000 0.72229  0.75546  0.10390  Biso   1.000  P
  O331     1.0000 0.76626  0.90554  0.32410  Biso   1.000  O
  O332     1.0000 0.77513  0.86838  0.34810  Biso   1.000  O
  O333     1.0000 0.77582  0.89047  0.54560  Biso   1.000  O
  O334     1.0000 0.72819  0.89983  0.15740  Biso   1.000  O
  O335     1.0000 0.73744  0.86240  0.16920  Biso   1.000  O
  O336     1.0000 0.72180  0.87814  0.95560  Biso   1.000  O
  O337     1.0000 0.72277  0.97197  0.29340  Biso   1.000  O
  O338     1.0000 0.74508  0.95245  0.13210  Biso   1.000  O
  O339     1.0000 0.73058  0.93615  0.33590  Biso   1.000  O
  O340     1.0000 0.75775  0.81711  0.31230  Biso   1.000  O
  O341     1.0000 0.77480  0.79952  0.13190  Biso   1.000  O
  O342     1.0000 0.77533  0.83490  0.13480  Biso   1.000  O
  O343     1.0000 0.73600  0.77191  0.16350  Biso   1.000  O
  O344     1.0000 0.72730  0.73403  0.16360  Biso   1.000  O
  O345     1.0000 0.72250  0.75555  0.95720  Biso   1.000  O
  H111     1.0000 0.79880  0.89630  0.38060  Biso   1.000  H
  H112     1.0000 0.70240  0.87390  0.15660  Biso   1.000  H
  H113     1.0000 0.75280  0.96070  0.37930  Biso   1.000  H
  H114     1.0000 0.79060  0.81620  0.31170  Biso   1.000  H
  H115     1.0000 0.70800  0.76010  0.18820  Biso   1.000  H
  Zn70     1.0000 0.23683  0.40851  0.82648  Biso   1.000  Zn
  Zn71     1.0000 0.26632  0.36199  0.67130  Biso   1.000  Zn
  Zn72     1.0000 0.26515  0.27239  0.66370  Biso   1.000  Zn
  P116     1.0000 0.27841  0.39009  0.89850  Biso   1.000  P
  P117     1.0000 0.22263  0.37857  0.60650  Biso   1.000  P
  P118     1.0000 0.23844  0.45540  0.77860  Biso   1.000  P
  P119     1.0000 0.27453  0.31687  0.71530  Biso   1.000  P
  P120     1.0000 0.22229  0.25546  0.60390  Biso   1.000  P
  O346     1.0000 0.26626  0.40554  0.82410  Biso   1.000  O
  O347     1.0000 0.27513  0.36838  0.84810  Biso   1.000  O
  O348     1.0000 0.27582  0.39047  0.04560  Biso   1.000  O
  O349     1.0000 0.22819  0.39983  0.65740  Biso   1.000  O
  O350     1.0000 0.23744  0.36240  0.66920  Biso   1.000  O
  O351     1.0000 0.22180  0.37814  0.45560  Biso   1.000  O
  O352     1.0000 0.22277  0.47197  0.79340  Biso   1.000  O
  O353     1.0000 0.24508  0.45245  0.63210  Biso   1.000  O
  O354     1.0000 0.23058  0.43615  0.83590  Biso   1.000  O
  O355     1.0000 0.25775  0.31711  0.81230  Biso   1.000  O
  O356     1.0000 0.27480  0.29952  0.63190  Biso   1.000  O
  O357     1.0000 0.27533  0.33490  0.63480  Biso   1.000  O
  O358     1.0000 0.23600  0.27191  0.66350  Biso   1.000  O
  O359     1.0000 0.22730  0.23403  0.66360  Biso   1.000  O
  O360     1.0000 0.22250  0.25555  0.45720  Biso   1.000  O
  H116     1.0000 0.29880  0.39630  0.88060  Biso   1.000  H
  H117     1.0000 0.20240  0.37390  0.65660  Biso   1.000  H
  H118     1.0000 0.25280  0.46070  0.87930  Biso   1.000  H
  H119     1.0000 0.29060  0.31620  0.81170  Biso   1.000  H
  H120     1.0000 0.20800  0.26010  0.68820  Biso   1.000  H
  Zn73     1.0000 0.65851  0.98683  0.92352  Biso   1.000  Zn
  Zn74     1.0000 0.61199  0.01632  0.07870  Biso   1.000  Zn
  Zn75     1.0000 0.52239  0.01515  0.08630  Biso   1.000  Zn
  P121     1.0000 0.64009  0.02841  0.85150  Biso   1.000  P
  P122     1.0000 0.62857  0.97263  0.14350  Biso   1.000  P
  P123     1.0000 0.70540  0.98844  0.97140  Biso   1.000  P
  P124     1.0000 0.56687  0.02453  0.03470  Biso   1.000  P
  P125     1.0000 0.50546  0.97229  0.14610  Biso   1.000  P
  O361     1.0000 0.65554  0.01626  0.92590  Biso   1.000  O
  O362     1.0000 0.61838  0.02513  0.90190  Biso   1.000  O
  O363     1.0000 0.64047  0.02582  0.70440  Biso   1.000  O
  O364     1.0000 0.64983  0.97819  0.09260  Biso   1.000  O
  O365     1.0000 0.61240  0.98744  0.08080  Biso   1.000  O
  O366     1.0000 0.62814  0.97180  0.29440  Biso   1.000  O
  O367     1.0000 0.72197  0.97277  0.95660  Biso   1.000  O
  O368     1.0000 0.70245  0.99508  0.11790  Biso   1.000  O
  O369     1.0000 0.68615  0.98058  0.91410  Biso   1.000  O
  O370     1.0000 0.56711  0.00775  0.93770  Biso   1.000  O
  O371     1.0000 0.54952  0.02480  0.11810  Biso   1.000  O
  O372     1.0000 0.58490  0.02533  0.11520  Biso   1.000  O
  O373     1.0000 0.52191  0.98600  0.08650  Biso   1.000  O
  O374     1.0000 0.48403  0.97730  0.08640  Biso   1.000  O
  O375     1.0000 0.50555  0.97250  0.29280  Biso   1.000  O
  H121     1.0000 0.64630  0.04880  0.86940  Biso   1.000  H
  H122     1.0000 0.62390  0.95240  0.09340  Biso   1.000  H
  H123     1.0000 0.71070  0.00280  0.87070  Biso   1.000  H
  H124     1.0000 0.56620  0.04060  0.93830  Biso   1.000  H
  H125     1.0000 0.51010  0.95800  0.06180  Biso   1.000  H
  Zn76     1.0000 0.15851  0.48683  0.42352  Biso   1.000  Zn
  Zn77     1.0000 0.11199  0.51632  0.57870  Biso   1.000  Zn
  Zn78     1.0000 0.02239  0.51515  0.58630  Biso   1.000  Zn
  P126     1.0000 0.14009  0.52841  0.35150  Biso   1.000  P
  P127     1.0000 0.12857  0.47263  0.64350  Biso   1.000  P
  P128     1.0000 0.20540  0.48844  0.47140  Biso   1.000  P
  P129     1.0000 0.06687  0.52453  0.53470  Biso   1.000  P
  P130     1.0000 0.00546  0.47229  0.64610  Biso   1.000  P
  O376     1.0000 0.15554  0.51626  0.42590  Biso   1.000  O
  O377     1.0000 0.11838  0.52513  0.40190  Biso   1.000  O
  O378     1.0000 0.14047  0.52582  0.20440  Biso   1.000  O
  O379     1.0000 0.14983  0.47819  0.59260  Biso   1.000  O
  O380     1.0000 0.11240  0.48744  0.58080  Biso   1.000  O
  O381     1.0000 0.12814  0.47180  0.79440  Biso   1.000  O
  O382     1.0000 0.22197  0.47277  0.45660  Biso   1.000  O
  O383     1.0000 0.20245  0.49508  0.61790  Biso   1.000  O
  O384     1.0000 0.18615  0.48058  0.41410  Biso   1.000  O
  O385     1.0000 0.06711  0.50775  0.43770  Biso   1.000  O
  O386     1.0000 0.04952  0.52480  0.61810  Biso   1.000  O
  O387     1.0000 0.08490  0.52533  0.61520  Biso   1.000  O
  O388     1.0000 0.02191  0.48600  0.58650  Biso   1.000  O
  O389     1.0000 0.98403  0.47730  0.58640  Biso   1.000  O
  O390     1.0000 0.00555  0.47250  0.79280  Biso   1.000  O
  H126     1.0000 0.14630  0.54880  0.36940  Biso   1.000  H
  H127     1.0000 0.12390  0.45240  0.59340  Biso   1.000  H
  H128     1.0000 0.21070  0.50280  0.37070  Biso   1.000  H
  H129     1.0000 0.06620  0.54060  0.43830  Biso   1.000  H
  H130     1.0000 0.01010  0.45800  0.56180  Biso   1.000  H
  Zn79     1.0000 0.84149  0.01317  0.42352  Biso   1.000  Zn
  Zn80     1.0000 0.88801  0.98368  0.57870  Biso   1.000  Zn
  Zn81     1.0000 0.97761  0.98485  0.58630  Biso   1.000  Zn
  P131     1.0000 0.85991  0.97159  0.35150  Biso   1.000  P
  P132     1.0000 0.87143  0.02737  0.64350  Biso   1.000  P
  P133     1.0000 0.79460  0.01156  0.47140  Biso   1.000  P
  P134     1.0000 0.93313  0.97547  0.53470  Biso   1.000  P
  P135     1.0000 0.99454  0.02771  0.64610  Biso   1.000  P
  O391     1.0000 0.84446  0.98374  0.42590  Biso   1.000  O
  O392     1.0000 0.88162  0.97487  0.40190  Biso   1.000  O
  O393     1.0000 0.85953  0.97418  0.20440  Biso   1.000  O
  O394     1.0000 0.85017  0.02181  0.59260  Biso   1.000  O
  O395     1.0000 0.88760  0.01256  0.58080  Biso   1.000  O
  O396     1.0000 0.87186  0.02820  0.79440  Biso   1.000  O
  O397     1.0000 0.77803  0.02723  0.45660  Biso   1.000  O
  O398     1.0000 0.79755  0.00492  0.61790  Biso   1.000  O
  O399     1.0000 0.81385  0.01942  0.41410  Biso   1.000  O
  O400     1.0000 0.93289  0.99225  0.43770  Biso   1.000  O
  O401     1.0000 0.95048  0.97520  0.61810  Biso   1.000  O
  O402     1.0000 0.91510  0.97467  0.61520  Biso   1.000  O
  O403     1.0000 0.97809  0.01400  0.58650  Biso   1.000  O
  O404     1.0000 0.01597  0.02270  0.58640  Biso   1.000  O
  O405     1.0000 0.99445  0.02750  0.79280  Biso   1.000  O
  H131     1.0000 0.85370  0.95120  0.36940  Biso   1.000  H
  H132     1.0000 0.87610  0.04760  0.59340  Biso   1.000  H
  H133     1.0000 0.78930  0.99720  0.37070  Biso   1.000  H
  H134     1.0000 0.93380  0.95940  0.43830  Biso   1.000  H
  H135     1.0000 0.98990  0.04200  0.56180  Biso   1.000  H
  Zn82     1.0000 0.34149  0.51317  0.92352  Biso   1.000  Zn
  Zn83     1.0000 0.38801  0.48368  0.07870  Biso   1.000  Zn
  Zn84     1.0000 0.47761  0.48485  0.08630  Biso   1.000  Zn
  P136     1.0000 0.35991  0.47159  0.85150  Biso   1.000  P
  P137     1.0000 0.37143  0.52737  0.14350  Biso   1.000  P
  P138     1.0000 0.29460  0.51156  0.97140  Biso   1.000  P
  P139     1.0000 0.43313  0.47547  0.03470  Biso   1.000  P
  P140     1.0000 0.49454  0.52771  0.14610  Biso   1.000  P
  O406     1.0000 0.34446  0.48374  0.92590  Biso   1.000  O
  O407     1.0000 0.38162  0.47487  0.90190  Biso   1.000  O
  O408     1.0000 0.35953  0.47418  0.70440  Biso   1.000  O
  O409     1.0000 0.35017  0.52181  0.09260  Biso   1.000  O
  O410     1.0000 0.38760  0.51256  0.08080  Biso   1.000  O
  O411     1.0000 0.37186  0.52820  0.29440  Biso   1.000  O
  O412     1.0000 0.27803  0.52723  0.95660  Biso   1.000  O
  O413     1.0000 0.29755  0.50492  0.11790  Biso   1.000  O
  O414     1.0000 0.31385  0.51942  0.91410  Biso   1.000  O
  O415     1.0000 0.43289  0.49225  0.93770  Biso   1.000  O
  O416     1.0000 0.45048  0.47520  0.11810  Biso   1.000  O
  O417     1.0000 0.41510  0.47467  0.11520  Biso   1.000  O
  O418     1.0000 0.47809  0.51400  0.08650  Biso   1.000  O
  O419     1.0000 0.51597  0.52270  0.08640  Biso   1.000  O
  O420     1.0000 0.49445  0.52750  0.29280  Biso   1.000  O
  H136     1.0000 0.35370  0.45120  0.86940  Biso   1.000  H
  H137     1.0000 0.37610  0.54760  0.09340  Biso   1.000  H
  H138     1.0000 0.28930  0.49720  0.87070  Biso   1.000  H
  H139     1.0000 0.43380  0.45940  0.93830  Biso   1.000  H
  H140     1.0000 0.48990  0.54200  0.06180  Biso   1.000  H
  Zn85     1.0000 0.73683  0.09149  0.17352  Biso   1.000  Zn
  Zn86     1.0000 0.76632  0.13801  0.32870  Biso   1.000  Zn
  Zn87     1.0000 0.76515  0.22761  0.33630  Biso   1.000  Zn
  P141     1.0000 0.77841  0.10991  0.10150  Biso   1.000  P
  P142     1.0000 0.72263  0.12143  0.39350  Biso   1.000  P
  P143     1.0000 0.73844  0.04460  0.22140  Biso   1.000  P
  P144     1.0000 0.77453  0.18313  0.28470  Biso   1.000  P
  P145     1.0000 0.72229  0.24454  0.39610  Biso   1.000  P
  O421     1.0000 0.76626  0.09446  0.17590  Biso   1.000  O
  O422     1.0000 0.77513  0.13162  0.15190  Biso   1.000  O
  O423     1.0000 0.77582  0.10953  0.95440  Biso   1.000  O
  O424     1.0000 0.72819  0.10017  0.34260  Biso   1.000  O
  O425     1.0000 0.73744  0.13760  0.33080  Biso   1.000  O
  O426     1.0000 0.72180  0.12186  0.54440  Biso   1.000  O
  O427     1.0000 0.72277  0.02803  0.20660  Biso   1.000  O
  O428     1.0000 0.74508  0.04755  0.36790  Biso   1.000  O
  O429     1.0000 0.73058  0.06385  0.16410  Biso   1.000  O
  O430     1.0000 0.75775  0.18289  0.18770  Biso   1.000  O
  O431     1.0000 0.77480  0.20048  0.36810  Biso   1.000  O
  O432     1.0000 0.77533  0.16510  0.36520  Biso   1.000  O
  O433     1.0000 0.73600  0.22809  0.33650  Biso   1.000  O
  O434     1.0000 0.72730  0.26597  0.33640  Biso   1.000  O
  O435     1.0000 0.72250  0.24445  0.54280  Biso   1.000  O
  H141     1.0000 0.79880  0.10370  0.11940  Biso   1.000  H
  H142     1.0000 0.70240  0.12610  0.34340  Biso   1.000  H
  H143     1.0000 0.75280  0.03930  0.12070  Biso   1.000  H
  H144     1.0000 0.79060  0.18380  0.18830  Biso   1.000  H
  H145     1.0000 0.70800  0.23990  0.31180  Biso   1.000  H
  Zn88     1.0000 0.23683  0.59149  0.67352  Biso   1.000  Zn
  Zn89     1.0000 0.26632  0.63801  0.82870  Biso   1.000  Zn
  Zn90     1.0000 0.26515  0.72761  0.83630  Biso   1.000  Zn
  P146     1.0000 0.27841  0.60991  0.60150  Biso   1.000  P
  P147     1.0000 0.22263  0.62143  0.89350  Biso   1.000  P
  P148     1.0000 0.23844  0.54460  0.72140  Biso   1.000  P
  P149     1.0000 0.27453  0.68313  0.78470  Biso   1.000  P
  P150     1.0000 0.22229  0.74454  0.89610  Biso   1.000  P
  O436     1.0000 0.26626  0.59446  0.67590  Biso   1.000  O
  O437     1.0000 0.27513  0.63162  0.65190  Biso   1.000  O
  O438     1.0000 0.27582  0.60953  0.45440  Biso   1.000  O
  O439     1.0000 0.22819  0.60017  0.84260  Biso   1.000  O
  O440     1.0000 0.23744  0.63760  0.83080  Biso   1.000  O
  O441     1.0000 0.22180  0.62186  0.04440  Biso   1.000  O
  O442     1.0000 0.22277  0.52803  0.70660  Biso   1.000  O
  O443     1.0000 0.24508  0.54755  0.86790  Biso   1.000  O
  O444     1.0000 0.23058  0.56385  0.66410  Biso   1.000  O
  O445     1.0000 0.25775  0.68289  0.68770  Biso   1.000  O
  O446     1.0000 0.27480  0.70048  0.86810  Biso   1.000  O
  O447     1.0000 0.27533  0.66510  0.86520  Biso   1.000  O
  O448     1.0000 0.23600  0.72809  0.83650  Biso   1.000  O
  O449     1.0000 0.22730  0.76597  0.83640  Biso   1.000  O
  O450     1.0000 0.22250  0.74445  0.04280  Biso   1.000  O
  H146     1.0000 0.29880  0.60370  0.61940  Biso   1.000  H
  H147     1.0000 0.20240  0.62610  0.84340  Biso   1.000  H
  H148     1.0000 0.25280  0.53930  0.62070  Biso   1.000  H
  H149     1.0000 0.29060  0.68380  0.68830  Biso   1.000  H
  H150     1.0000 0.20800  0.73990  0.81180  Biso   1.000  H
  Zn91     1.0000 0.76317  0.90851  0.67352  Biso   1.000  Zn
  Zn92     1.0000 0.73368  0.86199  0.82870  Biso   1.000  Zn
  Zn93     1.0000 0.73485  0.77239  0.83630  Biso   1.000  Zn
  P151     1.0000 0.72159  0.89009  0.60150  Biso   1.000  P
  P152     1.0000 0.77737  0.87857  0.89350  Biso   1.000  P
  P153     1.0000 0.76156  0.95540  0.72140  Biso   1.000  P
  P154     1.0000 0.72547  0.81687  0.78470  Biso   1.000  P
  P155     1.0000 0.77771  0.75546  0.89610  Biso   1.000  P
  O451     1.0000 0.73374  0.90554  0.67590  Biso   1.000  O
  O452     1.0000 0.72487  0.86838  0.65190  Biso   1.000  O
  O453     1.0000 0.72418  0.89047  0.45440  Biso   1.000  O
  O454     1.0000 0.77181  0.89983  0.84260  Biso   1.000  O
  O455     1.0000 0.76256  0.86240  0.83080  Biso   1.000  O
  O456     1.0000 0.77820  0.87814  0.04440  Biso   1.000  O
  O457     1.0000 0.77723  0.97197  0.70660  Biso   1.000  O
  O458     1.0000 0.75492  0.95245  0.86790  Biso   1.000  O
  O459     1.0000 0.76942  0.93615  0.66410  Biso   1.000  O
  O460     1.0000 0.74225  0.81711  0.68770  Biso   1.000  O
  O461     1.0000 0.72520  0.79952  0.86810  Biso   1.000  O
  O462     1.0000 0.72467  0.83490  0.86520  Biso   1.000  O
  O463     1.0000 0.76400  0.77191  0.83650  Biso   1.000  O
  O464     1.0000 0.77270  0.73403  0.83640  Biso   1.000  O
  O465     1.0000 0.77750  0.75555  0.04280  Biso   1.000  O
  H151     1.0000 0.70120  0.89630  0.61940  Biso   1.000  H
  H152     1.0000 0.79760  0.87390  0.84340  Biso   1.000  H
  H153     1.0000 0.74720  0.96070  0.62070  Biso   1.000  H
  H154     1.0000 0.70940  0.81620  0.68830  Biso   1.000  H
  H155     1.0000 0.79200  0.76010  0.81180  Biso   1.000  H
  Zn94     1.0000 0.26317  0.40851  0.17352  Biso   1.000  Zn
  Zn95     1.0000 0.23368  0.36199  0.32870  Biso   1.000  Zn
  Zn96     1.0000 0.23485  0.27239  0.33630  Biso   1.000  Zn
  P156     1.0000 0.22159  0.39009  0.10150  Biso   1.000  P
  P157     1.0000 0.27737  0.37857  0.39350  Biso   1.000  P
  P158     1.0000 0.26156  0.45540  0.22140  Biso   1.000  P
  P159     1.0000 0.22547  0.31687  0.28470  Biso   1.000  P
  P160     1.0000 0.27771  0.25546  0.39610  Biso   1.000  P
  O466     1.0000 0.23374  0.40554  0.17590  Biso   1.000  O
  O467     1.0000 0.22487  0.36838  0.15190  Biso   1.000  O
  O468     1.0000 0.22418  0.39047  0.95440  Biso   1.000  O
  O469     1.0000 0.27181  0.39983  0.34260  Biso   1.000  O
  O470     1.0000 0.26256  0.36240  0.33080  Biso   1.000  O
  O471     1.0000 0.27820  0.37814  0.54440  Biso   1.000  O
  O472     1.0000 0.27723  0.47197  0.20660  Biso   1.000  O
  O473     1.0000 0.25492  0.45245  0.36790  Biso   1.000  O
  O474     1.0000 0.26942  0.43615  0.16410  Biso   1.000  O
  O475     1.0000 0.24225  0.31711  0.18770  Biso   1.000  O
  O476     1.0000 0.22520  0.29952  0.36810  Biso   1.000  O
  O477     1.0000 0.22467  0.33490  0.36520  Biso   1.000  O
  O478     1.0000 0.26400  0.27191  0.33650  Biso   1.000  O
  O479     1.0000 0.27270  0.23403  0.33640  Biso   1.000  O
  O480     1.0000 0.27750  0.25555  0.54280  Biso   1.000  O
  H156     1.0000 0.20120  0.39630  0.11940  Biso   1.000  H
  H157     1.0000 0.29760  0.37390  0.34340  Biso   1.000  H
  H158     1.0000 0.24720  0.46070  0.12070  Biso   1.000  H
  H159     1.0000 0.20940  0.31620  0.18830  Biso   1.000  H
  H160     1.0000 0.29200  0.26010  0.31180  Biso   1.000  H
  Ga1      1.0000 0.25000  0.02700  0.00000  Biso   1.000  Ga
  Ga2      1.0000 0.75000  0.52700  0.50000  Biso   1.000  Ga
  Ga3      1.0000 0.25000  0.97300  0.50000  Biso   1.000  Ga
  Ga4      1.0000 0.75000  0.47300  0.00000  Biso   1.000  Ga
  Ga5      1.0000 0.22300  0.00000  0.25000  Biso   1.000  Ga
  Ga6      1.0000 0.72300  0.50000  0.75000  Biso   1.000  Ga
  Ga7      1.0000 0.27700  0.00000  0.75000  Biso   1.000  Ga
  Ga8      1.0000 0.77700  0.50000  0.25000  Biso   1.000  Ga
  Ga9      1.0000 0.75000  0.97300  0.00000  Biso   1.000  Ga
  Ga10     1.0000 0.25000  0.47300  0.50000  Biso   1.000  Ga
  Ga11     1.0000 0.75000  0.02700  0.50000  Biso   1.000  Ga
  Ga12     1.0000 0.25000  0.52700  0.00000  Biso   1.000  Ga
  Ga13     1.0000 0.77700  0.00000  0.75000  Biso   1.000  Ga
  Ga14     1.0000 0.27700  0.50000  0.25000  Biso   1.000  Ga
  Ga15     1.0000 0.72300  0.00000  0.25000  Biso   1.000  Ga
  Ga16     1.0000 0.22300  0.50000  0.75000  Biso   1.000  Ga
  Zn97     1.0000 0.06722  0.00000  0.75000  Biso   1.000  Zn
  Zn98     1.0000 0.56722  0.50000  0.25000  Biso   1.000  Zn
  Zn99     1.0000 0.43278  0.00000  0.25000  Biso   1.000  Zn
  Zn100    1.0000 0.93278  0.50000  0.75000  Biso   1.000  Zn
  Zn101    1.0000 0.25000  0.81722  0.00000  Biso   1.000  Zn
  Zn102    1.0000 0.75000  0.31722  0.50000  Biso   1.000  Zn
  Zn103    1.0000 0.25000  0.18278  0.50000  Biso   1.000  Zn
  Zn104    1.0000 0.75000  0.68278  0.00000  Biso   1.000  Zn
  Zn105    1.0000 0.93278  0.00000  0.25000  Biso   1.000  Zn
  Zn106    1.0000 0.43278  0.50000  0.75000  Biso   1.000  Zn
  Zn107    1.0000 0.56722  0.00000  0.75000  Biso   1.000  Zn
  Zn108    1.0000 0.06722  0.50000  0.25000  Biso   1.000  Zn
  Zn109    1.0000 0.75000  0.18278  0.00000  Biso   1.000  Zn
  Zn110    1.0000 0.25000  0.68278  0.50000  Biso   1.000  Zn
  Zn111    1.0000 0.75000  0.81722  0.50000  Biso   1.000  Zn
  Zn112    1.0000 0.25000  0.31722  0.00000  Biso   1.000  Zn
  F1       1.0000 0.24446  0.00554  0.12500  Biso   1.000  F
  F2       1.0000 0.74446  0.50554  0.62500  Biso   1.000  F
  F3       1.0000 0.25554  0.99446  0.62500  Biso   1.000  F
  F4       1.0000 0.75554  0.49446  0.12500  Biso   1.000  F
  F5       1.0000 0.24446  0.99446  0.37500  Biso   1.000  F
  F6       1.0000 0.74446  0.49446  0.87500  Biso   1.000  F
  F7       1.0000 0.25554  0.00554  0.87500  Biso   1.000  F
  F8       1.0000 0.75554  0.50554  0.37500  Biso   1.000  F
  F9       1.0000 0.75554  0.99446  0.87500  Biso   1.000  F
  F10      1.0000 0.25554  0.49446  0.37500  Biso   1.000  F
  F11      1.0000 0.74446  0.00554  0.37500  Biso   1.000  F
  F12      1.0000 0.24446  0.50554  0.87500  Biso   1.000  F
  F13      1.0000 0.75554  0.00554  0.62500  Biso   1.000  F
  F14      1.0000 0.25554  0.50554  0.12500  Biso   1.000  F
  F15      1.0000 0.74446  0.99446  0.12500  Biso   1.000  F
  F16      1.0000 0.24446  0.49446  0.62500  Biso   1.000  F
