data_image0
_cell_length_a       84.043
_cell_length_b       66.298
_cell_length_c       10.0356
_cell_angle_alpha    90
_cell_angle_beta     90
_cell_angle_gamma    90

_symmetry_space_group_name_H-M    "P 1"
_symmetry_int_tables_number       1

loop_
  _symmetry_equiv_pos_as_xyz
  'x, y, z'

loop_
  _atom_site_label
  _atom_site_occupancy
  _atom_site_fract_x
  _atom_site_fract_y
  _atom_site_fract_z
  _atom_site_thermal_displace_type
  _atom_site_B_iso_or_equiv
  _atom_site_type_symbol
  Zn1      1.0000 0.14112  0.98366  0.17131  Biso   1.000  Zn
  Zn2      1.0000 0.17780  0.98677  0.67371  Biso   1.000  Zn
  Zn3      1.0000 0.26026  0.90857  0.42416  Biso   1.000  Zn
  Zn4      1.0000 0.26300  0.86197  0.92154  Biso   1.000  Zn
  Zn5      1.0000 0.07069  0.98490  0.16360  Biso   1.000  Zn
  Zn6      1.0000 0.03514  0.98488  0.66360  Biso   1.000  Zn
  Zn7      1.0000 0.26199  0.77250  0.91410  Biso   1.000  Zn
  P1       1.0000 0.25909  0.95546  0.47350  Biso   1.000  P
  P2       1.0000 0.10566  0.97538  0.21820  Biso   1.000  P
  P3       1.0000 0.27254  0.89070  0.14810  Biso   1.000  P
  P4       1.0000 0.15423  0.97260  0.89210  Biso   1.000  P
  P5       1.0000 0.16367  0.97108  0.39740  Biso   1.000  P
  P6       1.0000 0.26965  0.81679  0.97000  Biso   1.000  P
  P7       1.0000 0.27157  0.87826  0.64290  Biso   1.000  P
  P8       1.0000 0.05761  0.97173  0.89620  Biso   1.000  P
  P9       1.0000 0.04834  0.97205  0.39440  Biso   1.000  P
  P10      1.0000 0.21485  0.98852  0.72260  Biso   1.000  P
  P11      1.0000 0.22820  0.75604  0.85910  Biso   1.000  P
  O1       1.0000 0.27149  0.97217  0.45310  Biso   1.000  O
  O2       1.0000 0.25394  0.95244  0.61930  Biso   1.000  O
  O3       1.0000 0.26561  0.93604  0.41430  Biso   1.000  O
  O4       1.0000 0.12011  0.97444  0.13450  Biso   1.000  O
  O5       1.0000 0.09190  0.97584  0.12660  Biso   1.000  O
  O6       1.0000 0.10605  0.99242  0.30780  Biso   1.000  O
  O7       1.0000 0.27076  0.89104  0.29830  Biso   1.000  O
  O8       1.0000 0.27005  0.86930  0.10010  Biso   1.000  O
  O9       1.0000 0.26275  0.90625  0.07430  Biso   1.000  O
  O10      1.0000 0.15393  0.97141  0.04290  Biso   1.000  O
  O11      1.0000 0.17047  0.97793  0.85060  Biso   1.000  O
  O12      1.0000 0.14149  0.98707  0.83660  Biso   1.000  O
  O13      1.0000 0.14672  0.97514  0.34700  Biso   1.000  O
  O14      1.0000 0.17559  0.98316  0.32860  Biso   1.000  O
  O15      1.0000 0.16417  0.97375  0.54420  Biso   1.000  O
  O16      1.0000 0.27009  0.83569  0.88470  Biso   1.000  O
  O17      1.0000 0.26901  0.79951  0.87490  Biso   1.000  O
  O18      1.0000 0.25630  0.81734  0.05660  Biso   1.000  O
  O19      1.0000 0.26750  0.89883  0.60290  Biso   1.000  O
  O20      1.0000 0.26023  0.86226  0.58550  Biso   1.000  O
  O21      1.0000 0.27268  0.87851  0.79330  Biso   1.000  O
  O22      1.0000 0.05671  0.97232  0.04240  Biso   1.000  O
  O23      1.0000 0.04080  0.97659  0.84310  Biso   1.000  O
  O24      1.0000 0.07019  0.98600  0.84280  Biso   1.000  O
  O25      1.0000 0.04878  0.97152  0.54150  Biso   1.000  O
  O26      1.0000 0.03525  0.98650  0.33840  Biso   1.000  O
  O27      1.0000 0.06469  0.97585  0.34460  Biso   1.000  O
  O28      1.0000 0.19974  0.98033  0.66360  Biso   1.000  O
  O29      1.0000 0.22792  0.97248  0.70330  Biso   1.000  O
  O30      1.0000 0.21246  0.99478  0.86750  Biso   1.000  O
  O31      1.0000 0.23918  0.77250  0.91170  Biso   1.000  O
  O32      1.0000 0.23092  0.73507  0.90630  Biso   1.000  O
  O33      1.0000 0.22782  0.75520  0.71380  Biso   1.000  O
  O34      1.0000 0.01397  0.97619  0.62800  Biso   1.000  O
  F1       1.0000 0.25406  0.99492  0.62440  Biso   1.000  F
  H1       1.0000 0.24460  0.96070  0.38510  Biso   1.000  H
  H2       1.0000 0.10430  0.95400  0.30390  Biso   1.000  H
  H3       1.0000 0.29020  0.89530  0.11560  Biso   1.000  H
  H4       1.0000 0.14970  0.94970  0.84610  Biso   1.000  H
  H5       1.0000 0.16810  0.94730  0.36540  Biso   1.000  H
  H6       1.0000 0.28730  0.87530  0.56730  Biso   1.000  H
  H7       1.0000 0.06260  0.94910  0.83930  Biso   1.000  H
  H8       1.0000 0.21320  0.76270  0.92640  Biso   1.000  H
  Zn8      1.0000 0.64112  0.48366  0.17131  Biso   1.000  Zn
  Zn9      1.0000 0.67780  0.48677  0.67371  Biso   1.000  Zn
  Zn10     1.0000 0.76026  0.40857  0.42416  Biso   1.000  Zn
  Zn11     1.0000 0.76300  0.36197  0.92154  Biso   1.000  Zn
  Zn12     1.0000 0.57069  0.48490  0.16360  Biso   1.000  Zn
  Zn13     1.0000 0.53514  0.48488  0.66360  Biso   1.000  Zn
  Zn14     1.0000 0.76199  0.27250  0.91410  Biso   1.000  Zn
  P12      1.0000 0.75909  0.45546  0.47350  Biso   1.000  P
  P13      1.0000 0.60566  0.47538  0.21820  Biso   1.000  P
  P14      1.0000 0.77254  0.39070  0.14810  Biso   1.000  P
  P15      1.0000 0.65423  0.47260  0.89210  Biso   1.000  P
  P16      1.0000 0.66367  0.47108  0.39740  Biso   1.000  P
  P17      1.0000 0.76965  0.31679  0.97000  Biso   1.000  P
  P18      1.0000 0.77157  0.37826  0.64290  Biso   1.000  P
  P19      1.0000 0.55761  0.47173  0.89620  Biso   1.000  P
  P20      1.0000 0.54834  0.47205  0.39440  Biso   1.000  P
  P21      1.0000 0.71485  0.48852  0.72260  Biso   1.000  P
  P22      1.0000 0.72820  0.25604  0.85910  Biso   1.000  P
  O35      1.0000 0.77149  0.47217  0.45310  Biso   1.000  O
  O36      1.0000 0.75394  0.45244  0.61930  Biso   1.000  O
  O37      1.0000 0.76561  0.43604  0.41430  Biso   1.000  O
  O38      1.0000 0.62011  0.47444  0.13450  Biso   1.000  O
  O39      1.0000 0.59190  0.47584  0.12660  Biso   1.000  O
  O40      1.0000 0.60605  0.49242  0.30780  Biso   1.000  O
  O41      1.0000 0.77076  0.39104  0.29830  Biso   1.000  O
  O42      1.0000 0.77005  0.36930  0.10010  Biso   1.000  O
  O43      1.0000 0.76275  0.40625  0.07430  Biso   1.000  O
  O44      1.0000 0.65393  0.47141  0.04290  Biso   1.000  O
  O45      1.0000 0.67047  0.47793  0.85060  Biso   1.000  O
  O46      1.0000 0.64149  0.48707  0.83660  Biso   1.000  O
  O47      1.0000 0.64672  0.47514  0.34700  Biso   1.000  O
  O48      1.0000 0.67559  0.48316  0.32860  Biso   1.000  O
  O49      1.0000 0.66417  0.47375  0.54420  Biso   1.000  O
  O50      1.0000 0.77009  0.33569  0.88470  Biso   1.000  O
  O51      1.0000 0.76901  0.29951  0.87490  Biso   1.000  O
  O52      1.0000 0.75630  0.31734  0.05660  Biso   1.000  O
  O53      1.0000 0.76750  0.39883  0.60290  Biso   1.000  O
  O54      1.0000 0.76023  0.36226  0.58550  Biso   1.000  O
  O55      1.0000 0.77268  0.37851  0.79330  Biso   1.000  O
  O56      1.0000 0.55671  0.47232  0.04240  Biso   1.000  O
  O57      1.0000 0.54080  0.47659  0.84310  Biso   1.000  O
  O58      1.0000 0.57019  0.48600  0.84280  Biso   1.000  O
  O59      1.0000 0.54878  0.47152  0.54150  Biso   1.000  O
  O60      1.0000 0.53525  0.48650  0.33840  Biso   1.000  O
  O61      1.0000 0.56469  0.47585  0.34460  Biso   1.000  O
  O62      1.0000 0.69974  0.48033  0.66360  Biso   1.000  O
  O63      1.0000 0.72792  0.47248  0.70330  Biso   1.000  O
  O64      1.0000 0.71246  0.49478  0.86750  Biso   1.000  O
  O65      1.0000 0.73918  0.27250  0.91170  Biso   1.000  O
  O66      1.0000 0.73092  0.23507  0.90630  Biso   1.000  O
  O67      1.0000 0.72782  0.25520  0.71380  Biso   1.000  O
  O68      1.0000 0.51397  0.47619  0.62800  Biso   1.000  O
  F2       1.0000 0.75406  0.49492  0.62440  Biso   1.000  F
  H9       1.0000 0.74460  0.46070  0.38510  Biso   1.000  H
  H10      1.0000 0.60430  0.45400  0.30390  Biso   1.000  H
  H11      1.0000 0.79020  0.39530  0.11560  Biso   1.000  H
  H12      1.0000 0.64970  0.44970  0.84610  Biso   1.000  H
  H13      1.0000 0.66810  0.44730  0.36540  Biso   1.000  H
  H14      1.0000 0.78730  0.37530  0.56730  Biso   1.000  H
  H15      1.0000 0.56260  0.44910  0.83930  Biso   1.000  H
  H16      1.0000 0.71320  0.26270  0.92640  Biso   1.000  H
  Zn15     1.0000 0.85888  0.51634  0.67131  Biso   1.000  Zn
  Zn16     1.0000 0.82220  0.51323  0.17371  Biso   1.000  Zn
  Zn17     1.0000 0.73974  0.59143  0.92416  Biso   1.000  Zn
  Zn18     1.0000 0.73700  0.63803  0.42154  Biso   1.000  Zn
  Zn19     1.0000 0.92931  0.51510  0.66360  Biso   1.000  Zn
  Zn20     1.0000 0.96486  0.51512  0.16360  Biso   1.000  Zn
  Zn21     1.0000 0.73801  0.72750  0.41410  Biso   1.000  Zn
  P23      1.0000 0.74091  0.54454  0.97350  Biso   1.000  P
  P24      1.0000 0.89434  0.52462  0.71820  Biso   1.000  P
  P25      1.0000 0.72746  0.60930  0.64810  Biso   1.000  P
  P26      1.0000 0.84577  0.52740  0.39210  Biso   1.000  P
  P27      1.0000 0.83633  0.52892  0.89740  Biso   1.000  P
  P28      1.0000 0.73035  0.68321  0.47000  Biso   1.000  P
  P29      1.0000 0.72843  0.62174  0.14290  Biso   1.000  P
  P30      1.0000 0.94239  0.52827  0.39620  Biso   1.000  P
  P31      1.0000 0.95166  0.52795  0.89440  Biso   1.000  P
  P32      1.0000 0.78515  0.51148  0.22260  Biso   1.000  P
  P33      1.0000 0.77180  0.74396  0.35910  Biso   1.000  P
  O69      1.0000 0.72851  0.52783  0.95310  Biso   1.000  O
  O70      1.0000 0.74606  0.54756  0.11930  Biso   1.000  O
  O71      1.0000 0.73439  0.56396  0.91430  Biso   1.000  O
  O72      1.0000 0.87989  0.52556  0.63450  Biso   1.000  O
  O73      1.0000 0.90810  0.52416  0.62660  Biso   1.000  O
  O74      1.0000 0.89395  0.50758  0.80780  Biso   1.000  O
  O75      1.0000 0.72924  0.60896  0.79830  Biso   1.000  O
  O76      1.0000 0.72995  0.63070  0.60010  Biso   1.000  O
  O77      1.0000 0.73725  0.59375  0.57430  Biso   1.000  O
  O78      1.0000 0.84607  0.52859  0.54290  Biso   1.000  O
  O79      1.0000 0.82953  0.52207  0.35060  Biso   1.000  O
  O80      1.0000 0.85851  0.51293  0.33660  Biso   1.000  O
  O81      1.0000 0.85328  0.52486  0.84700  Biso   1.000  O
  O82      1.0000 0.82441  0.51684  0.82860  Biso   1.000  O
  O83      1.0000 0.83583  0.52625  0.04420  Biso   1.000  O
  O84      1.0000 0.72991  0.66431  0.38470  Biso   1.000  O
  O85      1.0000 0.73099  0.70049  0.37490  Biso   1.000  O
  O86      1.0000 0.74370  0.68266  0.55660  Biso   1.000  O
  O87      1.0000 0.73250  0.60117  0.10290  Biso   1.000  O
  O88      1.0000 0.73977  0.63774  0.08550  Biso   1.000  O
  O89      1.0000 0.72732  0.62149  0.29330  Biso   1.000  O
  O90      1.0000 0.94329  0.52768  0.54240  Biso   1.000  O
  O91      1.0000 0.95920  0.52341  0.34310  Biso   1.000  O
  O92      1.0000 0.92981  0.51400  0.34280  Biso   1.000  O
  O93      1.0000 0.95122  0.52848  0.04150  Biso   1.000  O
  O94      1.0000 0.96475  0.51350  0.83840  Biso   1.000  O
  O95      1.0000 0.93531  0.52415  0.84460  Biso   1.000  O
  O96      1.0000 0.80026  0.51967  0.16360  Biso   1.000  O
  O97      1.0000 0.77208  0.52752  0.20330  Biso   1.000  O
  O98      1.0000 0.78754  0.50522  0.36750  Biso   1.000  O
  O99      1.0000 0.76082  0.72750  0.41170  Biso   1.000  O
  O100     1.0000 0.76908  0.76493  0.40630  Biso   1.000  O
  O101     1.0000 0.77218  0.74480  0.21380  Biso   1.000  O
  O102     1.0000 0.98603  0.52381  0.12800  Biso   1.000  O
  F3       1.0000 0.74594  0.50508  0.12440  Biso   1.000  F
  H17      1.0000 0.75540  0.53930  0.88510  Biso   1.000  H
  H18      1.0000 0.89570  0.54600  0.80390  Biso   1.000  H
  H19      1.0000 0.70980  0.60470  0.61560  Biso   1.000  H
  H20      1.0000 0.85030  0.55030  0.34610  Biso   1.000  H
  H21      1.0000 0.83190  0.55270  0.86540  Biso   1.000  H
  H22      1.0000 0.71270  0.62470  0.06730  Biso   1.000  H
  H23      1.0000 0.93740  0.55090  0.33930  Biso   1.000  H
  H24      1.0000 0.78680  0.73730  0.42640  Biso   1.000  H
  Zn22     1.0000 0.35888  0.01634  0.67131  Biso   1.000  Zn
  Zn23     1.0000 0.32220  0.01323  0.17371  Biso   1.000  Zn
  Zn24     1.0000 0.23974  0.09143  0.92416  Biso   1.000  Zn
  Zn25     1.0000 0.23700  0.13803  0.42154  Biso   1.000  Zn
  Zn26     1.0000 0.42931  0.01510  0.66360  Biso   1.000  Zn
  Zn27     1.0000 0.46486  0.01512  0.16360  Biso   1.000  Zn
  Zn28     1.0000 0.23801  0.22750  0.41410  Biso   1.000  Zn
  P34      1.0000 0.24091  0.04454  0.97350  Biso   1.000  P
  P35      1.0000 0.39434  0.02462  0.71820  Biso   1.000  P
  P36      1.0000 0.22746  0.10930  0.64810  Biso   1.000  P
  P37      1.0000 0.34577  0.02740  0.39210  Biso   1.000  P
  P38      1.0000 0.33633  0.02892  0.89740  Biso   1.000  P
  P39      1.0000 0.23035  0.18321  0.47000  Biso   1.000  P
  P40      1.0000 0.22843  0.12174  0.14290  Biso   1.000  P
  P41      1.0000 0.44239  0.02827  0.39620  Biso   1.000  P
  P42      1.0000 0.45166  0.02795  0.89440  Biso   1.000  P
  P43      1.0000 0.28515  0.01148  0.22260  Biso   1.000  P
  P44      1.0000 0.27180  0.24396  0.35910  Biso   1.000  P
  O103     1.0000 0.22851  0.02783  0.95310  Biso   1.000  O
  O104     1.0000 0.24606  0.04756  0.11930  Biso   1.000  O
  O105     1.0000 0.23439  0.06396  0.91430  Biso   1.000  O
  O106     1.0000 0.37989  0.02556  0.63450  Biso   1.000  O
  O107     1.0000 0.40810  0.02416  0.62660  Biso   1.000  O
  O108     1.0000 0.39395  0.00758  0.80780  Biso   1.000  O
  O109     1.0000 0.22924  0.10896  0.79830  Biso   1.000  O
  O110     1.0000 0.22995  0.13070  0.60010  Biso   1.000  O
  O111     1.0000 0.23725  0.09375  0.57430  Biso   1.000  O
  O112     1.0000 0.34607  0.02859  0.54290  Biso   1.000  O
  O113     1.0000 0.32953  0.02207  0.35060  Biso   1.000  O
  O114     1.0000 0.35851  0.01293  0.33660  Biso   1.000  O
  O115     1.0000 0.35328  0.02486  0.84700  Biso   1.000  O
  O116     1.0000 0.32441  0.01684  0.82860  Biso   1.000  O
  O117     1.0000 0.33583  0.02625  0.04420  Biso   1.000  O
  O118     1.0000 0.22991  0.16431  0.38470  Biso   1.000  O
  O119     1.0000 0.23099  0.20049  0.37490  Biso   1.000  O
  O120     1.0000 0.24370  0.18266  0.55660  Biso   1.000  O
  O121     1.0000 0.23250  0.10117  0.10290  Biso   1.000  O
  O122     1.0000 0.23977  0.13774  0.08550  Biso   1.000  O
  O123     1.0000 0.22732  0.12149  0.29330  Biso   1.000  O
  O124     1.0000 0.44329  0.02768  0.54240  Biso   1.000  O
  O125     1.0000 0.45920  0.02341  0.34310  Biso   1.000  O
  O126     1.0000 0.42981  0.01400  0.34280  Biso   1.000  O
  O127     1.0000 0.45122  0.02848  0.04150  Biso   1.000  O
  O128     1.0000 0.46475  0.01350  0.83840  Biso   1.000  O
  O129     1.0000 0.43531  0.02415  0.84460  Biso   1.000  O
  O130     1.0000 0.30026  0.01967  0.16360  Biso   1.000  O
  O131     1.0000 0.27208  0.02752  0.20330  Biso   1.000  O
  O132     1.0000 0.28754  0.00522  0.36750  Biso   1.000  O
  O133     1.0000 0.26082  0.22750  0.41170  Biso   1.000  O
  O134     1.0000 0.26908  0.26493  0.40630  Biso   1.000  O
  O135     1.0000 0.27218  0.24480  0.21380  Biso   1.000  O
  O136     1.0000 0.48603  0.02381  0.12800  Biso   1.000  O
  F4       1.0000 0.24594  0.00508  0.12440  Biso   1.000  F
  H25      1.0000 0.25540  0.03930  0.88510  Biso   1.000  H
  H26      1.0000 0.39570  0.04600  0.80390  Biso   1.000  H
  H27      1.0000 0.20980  0.10470  0.61560  Biso   1.000  H
  H28      1.0000 0.35030  0.05030  0.34610  Biso   1.000  H
  H29      1.0000 0.33190  0.05270  0.86540  Biso   1.000  H
  H30      1.0000 0.21270  0.12470  0.06730  Biso   1.000  H
  H31      1.0000 0.43740  0.05090  0.33930  Biso   1.000  H
  H32      1.0000 0.28680  0.23730  0.42640  Biso   1.000  H
  Zn29     1.0000 0.85888  0.48366  0.32869  Biso   1.000  Zn
  Zn30     1.0000 0.82220  0.48677  0.82629  Biso   1.000  Zn
  Zn31     1.0000 0.73974  0.40857  0.07584  Biso   1.000  Zn
  Zn32     1.0000 0.73700  0.36197  0.57846  Biso   1.000  Zn
  Zn33     1.0000 0.92931  0.48490  0.33640  Biso   1.000  Zn
  Zn34     1.0000 0.96486  0.48488  0.83640  Biso   1.000  Zn
  Zn35     1.0000 0.73801  0.27250  0.58590  Biso   1.000  Zn
  P45      1.0000 0.74091  0.45546  0.02650  Biso   1.000  P
  P46      1.0000 0.89434  0.47538  0.28180  Biso   1.000  P
  P47      1.0000 0.72746  0.39070  0.35190  Biso   1.000  P
  P48      1.0000 0.84577  0.47260  0.60790  Biso   1.000  P
  P49      1.0000 0.83633  0.47108  0.10260  Biso   1.000  P
  P50      1.0000 0.73035  0.31679  0.53000  Biso   1.000  P
  P51      1.0000 0.72843  0.37826  0.85710  Biso   1.000  P
  P52      1.0000 0.94239  0.47173  0.60380  Biso   1.000  P
  P53      1.0000 0.95166  0.47205  0.10560  Biso   1.000  P
  P54      1.0000 0.78515  0.48852  0.77740  Biso   1.000  P
  P55      1.0000 0.77180  0.25604  0.64090  Biso   1.000  P
  O137     1.0000 0.72851  0.47217  0.04690  Biso   1.000  O
  O138     1.0000 0.74606  0.45244  0.88070  Biso   1.000  O
  O139     1.0000 0.73439  0.43604  0.08570  Biso   1.000  O
  O140     1.0000 0.87989  0.47444  0.36550  Biso   1.000  O
  O141     1.0000 0.90810  0.47584  0.37340  Biso   1.000  O
  O142     1.0000 0.89395  0.49242  0.19220  Biso   1.000  O
  O143     1.0000 0.72924  0.39104  0.20170  Biso   1.000  O
  O144     1.0000 0.72995  0.36930  0.39990  Biso   1.000  O
  O145     1.0000 0.73725  0.40625  0.42570  Biso   1.000  O
  O146     1.0000 0.84607  0.47141  0.45710  Biso   1.000  O
  O147     1.0000 0.82953  0.47793  0.64940  Biso   1.000  O
  O148     1.0000 0.85851  0.48707  0.66340  Biso   1.000  O
  O149     1.0000 0.85328  0.47514  0.15300  Biso   1.000  O
  O150     1.0000 0.82441  0.48316  0.17140  Biso   1.000  O
  O151     1.0000 0.83583  0.47375  0.95580  Biso   1.000  O
  O152     1.0000 0.72991  0.33569  0.61530  Biso   1.000  O
  O153     1.0000 0.73099  0.29951  0.62510  Biso   1.000  O
  O154     1.0000 0.74370  0.31734  0.44340  Biso   1.000  O
  O155     1.0000 0.73250  0.39883  0.89710  Biso   1.000  O
  O156     1.0000 0.73977  0.36226  0.91450  Biso   1.000  O
  O157     1.0000 0.72732  0.37851  0.70670  Biso   1.000  O
  O158     1.0000 0.94329  0.47232  0.45760  Biso   1.000  O
  O159     1.0000 0.95920  0.47659  0.65690  Biso   1.000  O
  O160     1.0000 0.92981  0.48600  0.65720  Biso   1.000  O
  O161     1.0000 0.95122  0.47152  0.95850  Biso   1.000  O
  O162     1.0000 0.96475  0.48650  0.16160  Biso   1.000  O
  O163     1.0000 0.93531  0.47585  0.15540  Biso   1.000  O
  O164     1.0000 0.80026  0.48033  0.83640  Biso   1.000  O
  O165     1.0000 0.77208  0.47248  0.79670  Biso   1.000  O
  O166     1.0000 0.78754  0.49478  0.63250  Biso   1.000  O
  O167     1.0000 0.76082  0.27250  0.58830  Biso   1.000  O
  O168     1.0000 0.76908  0.23507  0.59370  Biso   1.000  O
  O169     1.0000 0.77218  0.25520  0.78620  Biso   1.000  O
  O170     1.0000 0.98603  0.47619  0.87200  Biso   1.000  O
  F5       1.0000 0.74594  0.49492  0.87560  Biso   1.000  F
  H33      1.0000 0.75540  0.46070  0.11490  Biso   1.000  H
  H34      1.0000 0.89570  0.45400  0.19610  Biso   1.000  H
  H35      1.0000 0.70980  0.39530  0.38440  Biso   1.000  H
  H36      1.0000 0.85030  0.44970  0.65390  Biso   1.000  H
  H37      1.0000 0.83190  0.44730  0.13460  Biso   1.000  H
  H38      1.0000 0.71270  0.37530  0.93270  Biso   1.000  H
  H39      1.0000 0.93740  0.44910  0.66070  Biso   1.000  H
  H40      1.0000 0.78680  0.26270  0.57360  Biso   1.000  H
  Zn36     1.0000 0.35888  0.98366  0.32869  Biso   1.000  Zn
  Zn37     1.0000 0.32220  0.98677  0.82629  Biso   1.000  Zn
  Zn38     1.0000 0.23974  0.90857  0.07584  Biso   1.000  Zn
  Zn39     1.0000 0.23700  0.86197  0.57846  Biso   1.000  Zn
  Zn40     1.0000 0.42931  0.98490  0.33640  Biso   1.000  Zn
  Zn41     1.0000 0.46486  0.98488  0.83640  Biso   1.000  Zn
  Zn42     1.0000 0.23801  0.77250  0.58590  Biso   1.000  Zn
  P56      1.0000 0.24091  0.95546  0.02650  Biso   1.000  P
  P57      1.0000 0.39434  0.97538  0.28180  Biso   1.000  P
  P58      1.0000 0.22746  0.89070  0.35190  Biso   1.000  P
  P59      1.0000 0.34577  0.97260  0.60790  Biso   1.000  P
  P60      1.0000 0.33633  0.97108  0.10260  Biso   1.000  P
  P61      1.0000 0.23035  0.81679  0.53000  Biso   1.000  P
  P62      1.0000 0.22843  0.87826  0.85710  Biso   1.000  P
  P63      1.0000 0.44239  0.97173  0.60380  Biso   1.000  P
  P64      1.0000 0.45166  0.97205  0.10560  Biso   1.000  P
  P65      1.0000 0.28515  0.98852  0.77740  Biso   1.000  P
  P66      1.0000 0.27180  0.75604  0.64090  Biso   1.000  P
  O171     1.0000 0.22851  0.97217  0.04690  Biso   1.000  O
  O172     1.0000 0.24606  0.95244  0.88070  Biso   1.000  O
  O173     1.0000 0.23439  0.93604  0.08570  Biso   1.000  O
  O174     1.0000 0.37989  0.97444  0.36550  Biso   1.000  O
  O175     1.0000 0.40810  0.97584  0.37340  Biso   1.000  O
  O176     1.0000 0.39395  0.99242  0.19220  Biso   1.000  O
  O177     1.0000 0.22924  0.89104  0.20170  Biso   1.000  O
  O178     1.0000 0.22995  0.86930  0.39990  Biso   1.000  O
  O179     1.0000 0.23725  0.90625  0.42570  Biso   1.000  O
  O180     1.0000 0.34607  0.97141  0.45710  Biso   1.000  O
  O181     1.0000 0.32953  0.97793  0.64940  Biso   1.000  O
  O182     1.0000 0.35851  0.98707  0.66340  Biso   1.000  O
  O183     1.0000 0.35328  0.97514  0.15300  Biso   1.000  O
  O184     1.0000 0.32441  0.98316  0.17140  Biso   1.000  O
  O185     1.0000 0.33583  0.97375  0.95580  Biso   1.000  O
  O186     1.0000 0.22991  0.83569  0.61530  Biso   1.000  O
  O187     1.0000 0.23099  0.79951  0.62510  Biso   1.000  O
  O188     1.0000 0.24370  0.81734  0.44340  Biso   1.000  O
  O189     1.0000 0.23250  0.89883  0.89710  Biso   1.000  O
  O190     1.0000 0.23977  0.86226  0.91450  Biso   1.000  O
  O191     1.0000 0.22732  0.87851  0.70670  Biso   1.000  O
  O192     1.0000 0.44329  0.97232  0.45760  Biso   1.000  O
  O193     1.0000 0.45920  0.97659  0.65690  Biso   1.000  O
  O194     1.0000 0.42981  0.98600  0.65720  Biso   1.000  O
  O195     1.0000 0.45122  0.97152  0.95850  Biso   1.000  O
  O196     1.0000 0.46475  0.98650  0.16160  Biso   1.000  O
  O197     1.0000 0.43531  0.97585  0.15540  Biso   1.000  O
  O198     1.0000 0.30026  0.98033  0.83640  Biso   1.000  O
  O199     1.0000 0.27208  0.97248  0.79670  Biso   1.000  O
  O200     1.0000 0.28754  0.99478  0.63250  Biso   1.000  O
  O201     1.0000 0.26082  0.77250  0.58830  Biso   1.000  O
  O202     1.0000 0.26908  0.73507  0.59370  Biso   1.000  O
  O203     1.0000 0.27218  0.75520  0.78620  Biso   1.000  O
  O204     1.0000 0.48603  0.97619  0.87200  Biso   1.000  O
  F6       1.0000 0.24594  0.99492  0.87560  Biso   1.000  F
  H41      1.0000 0.25540  0.96070  0.11490  Biso   1.000  H
  H42      1.0000 0.39570  0.95400  0.19610  Biso   1.000  H
  H43      1.0000 0.20980  0.89530  0.38440  Biso   1.000  H
  H44      1.0000 0.35030  0.94970  0.65390  Biso   1.000  H
  H45      1.0000 0.33190  0.94730  0.13460  Biso   1.000  H
  H46      1.0000 0.21270  0.87530  0.93270  Biso   1.000  H
  H47      1.0000 0.43740  0.94910  0.66070  Biso   1.000  H
  H48      1.0000 0.28680  0.76270  0.57360  Biso   1.000  H
  Zn43     1.0000 0.14112  0.01634  0.82869  Biso   1.000  Zn
  Zn44     1.0000 0.17780  0.01323  0.32629  Biso   1.000  Zn
  Zn45     1.0000 0.26026  0.09143  0.57584  Biso   1.000  Zn
  Zn46     1.0000 0.26300  0.13803  0.07846  Biso   1.000  Zn
  Zn47     1.0000 0.07069  0.01510  0.83640  Biso   1.000  Zn
  Zn48     1.0000 0.03514  0.01512  0.33640  Biso   1.000  Zn
  Zn49     1.0000 0.26199  0.22750  0.08590  Biso   1.000  Zn
  P67      1.0000 0.25909  0.04454  0.52650  Biso   1.000  P
  P68      1.0000 0.10566  0.02462  0.78180  Biso   1.000  P
  P69      1.0000 0.27254  0.10930  0.85190  Biso   1.000  P
  P70      1.0000 0.15423  0.02740  0.10790  Biso   1.000  P
  P71      1.0000 0.16367  0.02892  0.60260  Biso   1.000  P
  P72      1.0000 0.26965  0.18321  0.03000  Biso   1.000  P
  P73      1.0000 0.27157  0.12174  0.35710  Biso   1.000  P
  P74      1.0000 0.05761  0.02827  0.10380  Biso   1.000  P
  P75      1.0000 0.04834  0.02795  0.60560  Biso   1.000  P
  P76      1.0000 0.21485  0.01148  0.27740  Biso   1.000  P
  P77      1.0000 0.22820  0.24396  0.14090  Biso   1.000  P
  O205     1.0000 0.27149  0.02783  0.54690  Biso   1.000  O
  O206     1.0000 0.25394  0.04756  0.38070  Biso   1.000  O
  O207     1.0000 0.26561  0.06396  0.58570  Biso   1.000  O
  O208     1.0000 0.12011  0.02556  0.86550  Biso   1.000  O
  O209     1.0000 0.09190  0.02416  0.87340  Biso   1.000  O
  O210     1.0000 0.10605  0.00758  0.69220  Biso   1.000  O
  O211     1.0000 0.27076  0.10896  0.70170  Biso   1.000  O
  O212     1.0000 0.27005  0.13070  0.89990  Biso   1.000  O
  O213     1.0000 0.26275  0.09375  0.92570  Biso   1.000  O
  O214     1.0000 0.15393  0.02859  0.95710  Biso   1.000  O
  O215     1.0000 0.17047  0.02207  0.14940  Biso   1.000  O
  O216     1.0000 0.14149  0.01293  0.16340  Biso   1.000  O
  O217     1.0000 0.14672  0.02486  0.65300  Biso   1.000  O
  O218     1.0000 0.17559  0.01684  0.67140  Biso   1.000  O
  O219     1.0000 0.16417  0.02625  0.45580  Biso   1.000  O
  O220     1.0000 0.27009  0.16431  0.11530  Biso   1.000  O
  O221     1.0000 0.26901  0.20049  0.12510  Biso   1.000  O
  O222     1.0000 0.25630  0.18266  0.94340  Biso   1.000  O
  O223     1.0000 0.26750  0.10117  0.39710  Biso   1.000  O
  O224     1.0000 0.26023  0.13774  0.41450  Biso   1.000  O
  O225     1.0000 0.27268  0.12149  0.20670  Biso   1.000  O
  O226     1.0000 0.05671  0.02768  0.95760  Biso   1.000  O
  O227     1.0000 0.04080  0.02341  0.15690  Biso   1.000  O
  O228     1.0000 0.07019  0.01400  0.15720  Biso   1.000  O
  O229     1.0000 0.04878  0.02848  0.45850  Biso   1.000  O
  O230     1.0000 0.03525  0.01350  0.66160  Biso   1.000  O
  O231     1.0000 0.06469  0.02415  0.65540  Biso   1.000  O
  O232     1.0000 0.19974  0.01967  0.33640  Biso   1.000  O
  O233     1.0000 0.22792  0.02752  0.29670  Biso   1.000  O
  O234     1.0000 0.21246  0.00522  0.13250  Biso   1.000  O
  O235     1.0000 0.23918  0.22750  0.08830  Biso   1.000  O
  O236     1.0000 0.23092  0.26493  0.09370  Biso   1.000  O
  O237     1.0000 0.22782  0.24480  0.28620  Biso   1.000  O
  O238     1.0000 0.01397  0.02381  0.37200  Biso   1.000  O
  F7       1.0000 0.25406  0.00508  0.37560  Biso   1.000  F
  H49      1.0000 0.24460  0.03930  0.61490  Biso   1.000  H
  H50      1.0000 0.10430  0.04600  0.69610  Biso   1.000  H
  H51      1.0000 0.29020  0.10470  0.88440  Biso   1.000  H
  H52      1.0000 0.14970  0.05030  0.15390  Biso   1.000  H
  H53      1.0000 0.16810  0.05270  0.63460  Biso   1.000  H
  H54      1.0000 0.28730  0.12470  0.43270  Biso   1.000  H
  H55      1.0000 0.06260  0.05090  0.16070  Biso   1.000  H
  H56      1.0000 0.21320  0.23730  0.07360  Biso   1.000  H
  Zn50     1.0000 0.64112  0.51634  0.82869  Biso   1.000  Zn
  Zn51     1.0000 0.67780  0.51323  0.32629  Biso   1.000  Zn
  Zn52     1.0000 0.76026  0.59143  0.57584  Biso   1.000  Zn
  Zn53     1.0000 0.76300  0.63803  0.07846  Biso   1.000  Zn
  Zn54     1.0000 0.57069  0.51510  0.83640  Biso   1.000  Zn
  Zn55     1.0000 0.53514  0.51512  0.33640  Biso   1.000  Zn
  Zn56     1.0000 0.76199  0.72750  0.08590  Biso   1.000  Zn
  P78      1.0000 0.75909  0.54454  0.52650  Biso   1.000  P
  P79      1.0000 0.60566  0.52462  0.78180  Biso   1.000  P
  P80      1.0000 0.77254  0.60930  0.85190  Biso   1.000  P
  P81      1.0000 0.65423  0.52740  0.10790  Biso   1.000  P
  P82      1.0000 0.66367  0.52892  0.60260  Biso   1.000  P
  P83      1.0000 0.76965  0.68321  0.03000  Biso   1.000  P
  P84      1.0000 0.77157  0.62174  0.35710  Biso   1.000  P
  P85      1.0000 0.55761  0.52827  0.10380  Biso   1.000  P
  P86      1.0000 0.54834  0.52795  0.60560  Biso   1.000  P
  P87      1.0000 0.71485  0.51148  0.27740  Biso   1.000  P
  P88      1.0000 0.72820  0.74396  0.14090  Biso   1.000  P
  O239     1.0000 0.77149  0.52783  0.54690  Biso   1.000  O
  O240     1.0000 0.75394  0.54756  0.38070  Biso   1.000  O
  O241     1.0000 0.76561  0.56396  0.58570  Biso   1.000  O
  O242     1.0000 0.62011  0.52556  0.86550  Biso   1.000  O
  O243     1.0000 0.59190  0.52416  0.87340  Biso   1.000  O
  O244     1.0000 0.60605  0.50758  0.69220  Biso   1.000  O
  O245     1.0000 0.77076  0.60896  0.70170  Biso   1.000  O
  O246     1.0000 0.77005  0.63070  0.89990  Biso   1.000  O
  O247     1.0000 0.76275  0.59375  0.92570  Biso   1.000  O
  O248     1.0000 0.65393  0.52859  0.95710  Biso   1.000  O
  O249     1.0000 0.67047  0.52207  0.14940  Biso   1.000  O
  O250     1.0000 0.64149  0.51293  0.16340  Biso   1.000  O
  O251     1.0000 0.64672  0.52486  0.65300  Biso   1.000  O
  O252     1.0000 0.67559  0.51684  0.67140  Biso   1.000  O
  O253     1.0000 0.66417  0.52625  0.45580  Biso   1.000  O
  O254     1.0000 0.77009  0.66431  0.11530  Biso   1.000  O
  O255     1.0000 0.76901  0.70049  0.12510  Biso   1.000  O
  O256     1.0000 0.75630  0.68266  0.94340  Biso   1.000  O
  O257     1.0000 0.76750  0.60117  0.39710  Biso   1.000  O
  O258     1.0000 0.76023  0.63774  0.41450  Biso   1.000  O
  O259     1.0000 0.77268  0.62149  0.20670  Biso   1.000  O
  O260     1.0000 0.55671  0.52768  0.95760  Biso   1.000  O
  O261     1.0000 0.54080  0.52341  0.15690  Biso   1.000  O
  O262     1.0000 0.57019  0.51400  0.15720  Biso   1.000  O
  O263     1.0000 0.54878  0.52848  0.45850  Biso   1.000  O
  O264     1.0000 0.53525  0.51350  0.66160  Biso   1.000  O
  O265     1.0000 0.56469  0.52415  0.65540  Biso   1.000  O
  O266     1.0000 0.69974  0.51967  0.33640  Biso   1.000  O
  O267     1.0000 0.72792  0.52752  0.29670  Biso   1.000  O
  O268     1.0000 0.71246  0.50522  0.13250  Biso   1.000  O
  O269     1.0000 0.73918  0.72750  0.08830  Biso   1.000  O
  O270     1.0000 0.73092  0.76493  0.09370  Biso   1.000  O
  O271     1.0000 0.72782  0.74480  0.28620  Biso   1.000  O
  O272     1.0000 0.51397  0.52381  0.37200  Biso   1.000  O
  F8       1.0000 0.75406  0.50508  0.37560  Biso   1.000  F
  H57      1.0000 0.74460  0.53930  0.61490  Biso   1.000  H
  H58      1.0000 0.60430  0.54600  0.69610  Biso   1.000  H
  H59      1.0000 0.79020  0.60470  0.88440  Biso   1.000  H
  H60      1.0000 0.64970  0.55030  0.15390  Biso   1.000  H
  H61      1.0000 0.66810  0.55270  0.63460  Biso   1.000  H
  H62      1.0000 0.78730  0.62470  0.43270  Biso   1.000  H
  H63      1.0000 0.56260  0.55090  0.16070  Biso   1.000  H
  H64      1.0000 0.71320  0.73730  0.07360  Biso   1.000  H
  Zn57     1.0000 0.85888  0.01634  0.82869  Biso   1.000  Zn
  Zn58     1.0000 0.82220  0.01323  0.32629  Biso   1.000  Zn
  Zn59     1.0000 0.73974  0.09143  0.57584  Biso   1.000  Zn
  Zn60     1.0000 0.73700  0.13803  0.07846  Biso   1.000  Zn
  Zn61     1.0000 0.92931  0.01510  0.83640  Biso   1.000  Zn
  Zn62     1.0000 0.96486  0.01512  0.33640  Biso   1.000  Zn
  Zn63     1.0000 0.73801  0.22750  0.08590  Biso   1.000  Zn
  P89      1.0000 0.74091  0.04454  0.52650  Biso   1.000  P
  P90      1.0000 0.89434  0.02462  0.78180  Biso   1.000  P
  P91      1.0000 0.72746  0.10930  0.85190  Biso   1.000  P
  P92      1.0000 0.84577  0.02740  0.10790  Biso   1.000  P
  P93      1.0000 0.83633  0.02892  0.60260  Biso   1.000  P
  P94      1.0000 0.73035  0.18321  0.03000  Biso   1.000  P
  P95      1.0000 0.72843  0.12174  0.35710  Biso   1.000  P
  P96      1.0000 0.94239  0.02827  0.10380  Biso   1.000  P
  P97      1.0000 0.95166  0.02795  0.60560  Biso   1.000  P
  P98      1.0000 0.78515  0.01148  0.27740  Biso   1.000  P
  P99      1.0000 0.77180  0.24396  0.14090  Biso   1.000  P
  O273     1.0000 0.72851  0.02783  0.54690  Biso   1.000  O
  O274     1.0000 0.74606  0.04756  0.38070  Biso   1.000  O
  O275     1.0000 0.73439  0.06396  0.58570  Biso   1.000  O
  O276     1.0000 0.87989  0.02556  0.86550  Biso   1.000  O
  O277     1.0000 0.90810  0.02416  0.87340  Biso   1.000  O
  O278     1.0000 0.89395  0.00758  0.69220  Biso   1.000  O
  O279     1.0000 0.72924  0.10896  0.70170  Biso   1.000  O
  O280     1.0000 0.72995  0.13070  0.89990  Biso   1.000  O
  O281     1.0000 0.73725  0.09375  0.92570  Biso   1.000  O
  O282     1.0000 0.84607  0.02859  0.95710  Biso   1.000  O
  O283     1.0000 0.82953  0.02207  0.14940  Biso   1.000  O
  O284     1.0000 0.85851  0.01293  0.16340  Biso   1.000  O
  O285     1.0000 0.85328  0.02486  0.65300  Biso   1.000  O
  O286     1.0000 0.82441  0.01684  0.67140  Biso   1.000  O
  O287     1.0000 0.83583  0.02625  0.45580  Biso   1.000  O
  O288     1.0000 0.72991  0.16431  0.11530  Biso   1.000  O
  O289     1.0000 0.73099  0.20049  0.12510  Biso   1.000  O
  O290     1.0000 0.74370  0.18266  0.94340  Biso   1.000  O
  O291     1.0000 0.73250  0.10117  0.39710  Biso   1.000  O
  O292     1.0000 0.73977  0.13774  0.41450  Biso   1.000  O
  O293     1.0000 0.72732  0.12149  0.20670  Biso   1.000  O
  O294     1.0000 0.94329  0.02768  0.95760  Biso   1.000  O
  O295     1.0000 0.95920  0.02341  0.15690  Biso   1.000  O
  O296     1.0000 0.92981  0.01400  0.15720  Biso   1.000  O
  O297     1.0000 0.95122  0.02848  0.45850  Biso   1.000  O
  O298     1.0000 0.96475  0.01350  0.66160  Biso   1.000  O
  O299     1.0000 0.93531  0.02415  0.65540  Biso   1.000  O
  O300     1.0000 0.80026  0.01967  0.33640  Biso   1.000  O
  O301     1.0000 0.77208  0.02752  0.29670  Biso   1.000  O
  O302     1.0000 0.78754  0.00522  0.13250  Biso   1.000  O
  O303     1.0000 0.76082  0.22750  0.08830  Biso   1.000  O
  O304     1.0000 0.76908  0.26493  0.09370  Biso   1.000  O
  O305     1.0000 0.77218  0.24480  0.28620  Biso   1.000  O
  O306     1.0000 0.98603  0.02381  0.37200  Biso   1.000  O
  F9       1.0000 0.74594  0.00508  0.37560  Biso   1.000  F
  H65      1.0000 0.75540  0.03930  0.61490  Biso   1.000  H
  H66      1.0000 0.89570  0.04600  0.69610  Biso   1.000  H
  H67      1.0000 0.70980  0.10470  0.88440  Biso   1.000  H
  H68      1.0000 0.85030  0.05030  0.15390  Biso   1.000  H
  H69      1.0000 0.83190  0.05270  0.63460  Biso   1.000  H
  H70      1.0000 0.71270  0.12470  0.43270  Biso   1.000  H
  H71      1.0000 0.93740  0.05090  0.16070  Biso   1.000  H
  H72      1.0000 0.78680  0.23730  0.07360  Biso   1.000  H
  Zn64     1.0000 0.35888  0.51634  0.82869  Biso   1.000  Zn
  Zn65     1.0000 0.32220  0.51323  0.32629  Biso   1.000  Zn
  Zn66     1.0000 0.23974  0.59143  0.57584  Biso   1.000  Zn
  Zn67     1.0000 0.23700  0.63803  0.07846  Biso   1.000  Zn
  Zn68     1.0000 0.42931  0.51510  0.83640  Biso   1.000  Zn
  Zn69     1.0000 0.46486  0.51512  0.33640  Biso   1.000  Zn
  Zn70     1.0000 0.23801  0.72750  0.08590  Biso   1.000  Zn
  P100     1.0000 0.24091  0.54454  0.52650  Biso   1.000  P
  P101     1.0000 0.39434  0.52462  0.78180  Biso   1.000  P
  P102     1.0000 0.22746  0.60930  0.85190  Biso   1.000  P
  P103     1.0000 0.34577  0.52740  0.10790  Biso   1.000  P
  P104     1.0000 0.33633  0.52892  0.60260  Biso   1.000  P
  P105     1.0000 0.23035  0.68321  0.03000  Biso   1.000  P
  P106     1.0000 0.22843  0.62174  0.35710  Biso   1.000  P
  P107     1.0000 0.44239  0.52827  0.10380  Biso   1.000  P
  P108     1.0000 0.45166  0.52795  0.60560  Biso   1.000  P
  P109     1.0000 0.28515  0.51148  0.27740  Biso   1.000  P
  P110     1.0000 0.27180  0.74396  0.14090  Biso   1.000  P
  O307     1.0000 0.22851  0.52783  0.54690  Biso   1.000  O
  O308     1.0000 0.24606  0.54756  0.38070  Biso   1.000  O
  O309     1.0000 0.23439  0.56396  0.58570  Biso   1.000  O
  O310     1.0000 0.37989  0.52556  0.86550  Biso   1.000  O
  O311     1.0000 0.40810  0.52416  0.87340  Biso   1.000  O
  O312     1.0000 0.39395  0.50758  0.69220  Biso   1.000  O
  O313     1.0000 0.22924  0.60896  0.70170  Biso   1.000  O
  O314     1.0000 0.22995  0.63070  0.89990  Biso   1.000  O
  O315     1.0000 0.23725  0.59375  0.92570  Biso   1.000  O
  O316     1.0000 0.34607  0.52859  0.95710  Biso   1.000  O
  O317     1.0000 0.32953  0.52207  0.14940  Biso   1.000  O
  O318     1.0000 0.35851  0.51293  0.16340  Biso   1.000  O
  O319     1.0000 0.35328  0.52486  0.65300  Biso   1.000  O
  O320     1.0000 0.32441  0.51684  0.67140  Biso   1.000  O
  O321     1.0000 0.33583  0.52625  0.45580  Biso   1.000  O
  O322     1.0000 0.22991  0.66431  0.11530  Biso   1.000  O
  O323     1.0000 0.23099  0.70049  0.12510  Biso   1.000  O
  O324     1.0000 0.24370  0.68266  0.94340  Biso   1.000  O
  O325     1.0000 0.23250  0.60117  0.39710  Biso   1.000  O
  O326     1.0000 0.23977  0.63774  0.41450  Biso   1.000  O
  O327     1.0000 0.22732  0.62149  0.20670  Biso   1.000  O
  O328     1.0000 0.44329  0.52768  0.95760  Biso   1.000  O
  O329     1.0000 0.45920  0.52341  0.15690  Biso   1.000  O
  O330     1.0000 0.42981  0.51400  0.15720  Biso   1.000  O
  O331     1.0000 0.45122  0.52848  0.45850  Biso   1.000  O
  O332     1.0000 0.46475  0.51350  0.66160  Biso   1.000  O
  O333     1.0000 0.43531  0.52415  0.65540  Biso   1.000  O
  O334     1.0000 0.30026  0.51967  0.33640  Biso   1.000  O
  O335     1.0000 0.27208  0.52752  0.29670  Biso   1.000  O
  O336     1.0000 0.28754  0.50522  0.13250  Biso   1.000  O
  O337     1.0000 0.26082  0.72750  0.08830  Biso   1.000  O
  O338     1.0000 0.26908  0.76493  0.09370  Biso   1.000  O
  O339     1.0000 0.27218  0.74480  0.28620  Biso   1.000  O
  O340     1.0000 0.48603  0.52381  0.37200  Biso   1.000  O
  F10      1.0000 0.24594  0.50508  0.37560  Biso   1.000  F
  H73      1.0000 0.25540  0.53930  0.61490  Biso   1.000  H
  H74      1.0000 0.39570  0.54600  0.69610  Biso   1.000  H
  H75      1.0000 0.20980  0.60470  0.88440  Biso   1.000  H
  H76      1.0000 0.35030  0.55030  0.15390  Biso   1.000  H
  H77      1.0000 0.33190  0.55270  0.63460  Biso   1.000  H
  H78      1.0000 0.21270  0.62470  0.43270  Biso   1.000  H
  H79      1.0000 0.43740  0.55090  0.16070  Biso   1.000  H
  H80      1.0000 0.28680  0.73730  0.07360  Biso   1.000  H
  Zn71     1.0000 0.14112  0.48366  0.32869  Biso   1.000  Zn
  Zn72     1.0000 0.17780  0.48677  0.82629  Biso   1.000  Zn
  Zn73     1.0000 0.26026  0.40857  0.07584  Biso   1.000  Zn
  Zn74     1.0000 0.26300  0.36197  0.57846  Biso   1.000  Zn
  Zn75     1.0000 0.07069  0.48490  0.33640  Biso   1.000  Zn
  Zn76     1.0000 0.03514  0.48488  0.83640  Biso   1.000  Zn
  Zn77     1.0000 0.26199  0.27250  0.58590  Biso   1.000  Zn
  P111     1.0000 0.25909  0.45546  0.02650  Biso   1.000  P
  P112     1.0000 0.10566  0.47538  0.28180  Biso   1.000  P
  P113     1.0000 0.27254  0.39070  0.35190  Biso   1.000  P
  P114     1.0000 0.15423  0.47260  0.60790  Biso   1.000  P
  P115     1.0000 0.16367  0.47108  0.10260  Biso   1.000  P
  P116     1.0000 0.26965  0.31679  0.53000  Biso   1.000  P
  P117     1.0000 0.27157  0.37826  0.85710  Biso   1.000  P
  P118     1.0000 0.05761  0.47173  0.60380  Biso   1.000  P
  P119     1.0000 0.04834  0.47205  0.10560  Biso   1.000  P
  P120     1.0000 0.21485  0.48852  0.77740  Biso   1.000  P
  P121     1.0000 0.22820  0.25604  0.64090  Biso   1.000  P
  O341     1.0000 0.27149  0.47217  0.04690  Biso   1.000  O
  O342     1.0000 0.25394  0.45244  0.88070  Biso   1.000  O
  O343     1.0000 0.26561  0.43604  0.08570  Biso   1.000  O
  O344     1.0000 0.12011  0.47444  0.36550  Biso   1.000  O
  O345     1.0000 0.09190  0.47584  0.37340  Biso   1.000  O
  O346     1.0000 0.10605  0.49242  0.19220  Biso   1.000  O
  O347     1.0000 0.27076  0.39104  0.20170  Biso   1.000  O
  O348     1.0000 0.27005  0.36930  0.39990  Biso   1.000  O
  O349     1.0000 0.26275  0.40625  0.42570  Biso   1.000  O
  O350     1.0000 0.15393  0.47141  0.45710  Biso   1.000  O
  O351     1.0000 0.17047  0.47793  0.64940  Biso   1.000  O
  O352     1.0000 0.14149  0.48707  0.66340  Biso   1.000  O
  O353     1.0000 0.14672  0.47514  0.15300  Biso   1.000  O
  O354     1.0000 0.17559  0.48316  0.17140  Biso   1.000  O
  O355     1.0000 0.16417  0.47375  0.95580  Biso   1.000  O
  O356     1.0000 0.27009  0.33569  0.61530  Biso   1.000  O
  O357     1.0000 0.26901  0.29951  0.62510  Biso   1.000  O
  O358     1.0000 0.25630  0.31734  0.44340  Biso   1.000  O
  O359     1.0000 0.26750  0.39883  0.89710  Biso   1.000  O
  O360     1.0000 0.26023  0.36226  0.91450  Biso   1.000  O
  O361     1.0000 0.27268  0.37851  0.70670  Biso   1.000  O
  O362     1.0000 0.05671  0.47232  0.45760  Biso   1.000  O
  O363     1.0000 0.04080  0.47659  0.65690  Biso   1.000  O
  O364     1.0000 0.07019  0.48600  0.65720  Biso   1.000  O
  O365     1.0000 0.04878  0.47152  0.95850  Biso   1.000  O
  O366     1.0000 0.03525  0.48650  0.16160  Biso   1.000  O
  O367     1.0000 0.06469  0.47585  0.15540  Biso   1.000  O
  O368     1.0000 0.19974  0.48033  0.83640  Biso   1.000  O
  O369     1.0000 0.22792  0.47248  0.79670  Biso   1.000  O
  O370     1.0000 0.21246  0.49478  0.63250  Biso   1.000  O
  O371     1.0000 0.23918  0.27250  0.58830  Biso   1.000  O
  O372     1.0000 0.23092  0.23507  0.59370  Biso   1.000  O
  O373     1.0000 0.22782  0.25520  0.78620  Biso   1.000  O
  O374     1.0000 0.01397  0.47619  0.87200  Biso   1.000  O
  F11      1.0000 0.25406  0.49492  0.87560  Biso   1.000  F
  H81      1.0000 0.24460  0.46070  0.11490  Biso   1.000  H
  H82      1.0000 0.10430  0.45400  0.19610  Biso   1.000  H
  H83      1.0000 0.29020  0.39530  0.38440  Biso   1.000  H
  H84      1.0000 0.14970  0.44970  0.65390  Biso   1.000  H
  H85      1.0000 0.16810  0.44730  0.13460  Biso   1.000  H
  H86      1.0000 0.28730  0.37530  0.93270  Biso   1.000  H
  H87      1.0000 0.06260  0.44910  0.66070  Biso   1.000  H
  H88      1.0000 0.21320  0.26270  0.57360  Biso   1.000  H
  Zn78     1.0000 0.64112  0.98366  0.32869  Biso   1.000  Zn
  Zn79     1.0000 0.67780  0.98677  0.82629  Biso   1.000  Zn
  Zn80     1.0000 0.76026  0.90857  0.07584  Biso   1.000  Zn
  Zn81     1.0000 0.76300  0.86197  0.57846  Biso   1.000  Zn
  Zn82     1.0000 0.57069  0.98490  0.33640  Biso   1.000  Zn
  Zn83     1.0000 0.53514  0.98488  0.83640  Biso   1.000  Zn
  Zn84     1.0000 0.76199  0.77250  0.58590  Biso   1.000  Zn
  P122     1.0000 0.75909  0.95546  0.02650  Biso   1.000  P
  P123     1.0000 0.60566  0.97538  0.28180  Biso   1.000  P
  P124     1.0000 0.77254  0.89070  0.35190  Biso   1.000  P
  P125     1.0000 0.65423  0.97260  0.60790  Biso   1.000  P
  P126     1.0000 0.66367  0.97108  0.10260  Biso   1.000  P
  P127     1.0000 0.76965  0.81679  0.53000  Biso   1.000  P
  P128     1.0000 0.77157  0.87826  0.85710  Biso   1.000  P
  P129     1.0000 0.55761  0.97173  0.60380  Biso   1.000  P
  P130     1.0000 0.54834  0.97205  0.10560  Biso   1.000  P
  P131     1.0000 0.71485  0.98852  0.77740  Biso   1.000  P
  P132     1.0000 0.72820  0.75604  0.64090  Biso   1.000  P
  O375     1.0000 0.77149  0.97217  0.04690  Biso   1.000  O
  O376     1.0000 0.75394  0.95244  0.88070  Biso   1.000  O
  O377     1.0000 0.76561  0.93604  0.08570  Biso   1.000  O
  O378     1.0000 0.62011  0.97444  0.36550  Biso   1.000  O
  O379     1.0000 0.59190  0.97584  0.37340  Biso   1.000  O
  O380     1.0000 0.60605  0.99242  0.19220  Biso   1.000  O
  O381     1.0000 0.77076  0.89104  0.20170  Biso   1.000  O
  O382     1.0000 0.77005  0.86930  0.39990  Biso   1.000  O
  O383     1.0000 0.76275  0.90625  0.42570  Biso   1.000  O
  O384     1.0000 0.65393  0.97141  0.45710  Biso   1.000  O
  O385     1.0000 0.67047  0.97793  0.64940  Biso   1.000  O
  O386     1.0000 0.64149  0.98707  0.66340  Biso   1.000  O
  O387     1.0000 0.64672  0.97514  0.15300  Biso   1.000  O
  O388     1.0000 0.67559  0.98316  0.17140  Biso   1.000  O
  O389     1.0000 0.66417  0.97375  0.95580  Biso   1.000  O
  O390     1.0000 0.77009  0.83569  0.61530  Biso   1.000  O
  O391     1.0000 0.76901  0.79951  0.62510  Biso   1.000  O
  O392     1.0000 0.75630  0.81734  0.44340  Biso   1.000  O
  O393     1.0000 0.76750  0.89883  0.89710  Biso   1.000  O
  O394     1.0000 0.76023  0.86226  0.91450  Biso   1.000  O
  O395     1.0000 0.77268  0.87851  0.70670  Biso   1.000  O
  O396     1.0000 0.55671  0.97232  0.45760  Biso   1.000  O
  O397     1.0000 0.54080  0.97659  0.65690  Biso   1.000  O
  O398     1.0000 0.57019  0.98600  0.65720  Biso   1.000  O
  O399     1.0000 0.54878  0.97152  0.95850  Biso   1.000  O
  O400     1.0000 0.53525  0.98650  0.16160  Biso   1.000  O
  O401     1.0000 0.56469  0.97585  0.15540  Biso   1.000  O
  O402     1.0000 0.69974  0.98033  0.83640  Biso   1.000  O
  O403     1.0000 0.72792  0.97248  0.79670  Biso   1.000  O
  O404     1.0000 0.71246  0.99478  0.63250  Biso   1.000  O
  O405     1.0000 0.73918  0.77250  0.58830  Biso   1.000  O
  O406     1.0000 0.73092  0.73507  0.59370  Biso   1.000  O
  O407     1.0000 0.72782  0.75520  0.78620  Biso   1.000  O
  O408     1.0000 0.51397  0.97619  0.87200  Biso   1.000  O
  F12      1.0000 0.75406  0.99492  0.87560  Biso   1.000  F
  H89      1.0000 0.74460  0.96070  0.11490  Biso   1.000  H
  H90      1.0000 0.60430  0.95400  0.19610  Biso   1.000  H
  H91      1.0000 0.79020  0.89530  0.38440  Biso   1.000  H
  H92      1.0000 0.64970  0.94970  0.65390  Biso   1.000  H
  H93      1.0000 0.66810  0.94730  0.13460  Biso   1.000  H
  H94      1.0000 0.78730  0.87530  0.93270  Biso   1.000  H
  H95      1.0000 0.56260  0.94910  0.66070  Biso   1.000  H
  H96      1.0000 0.71320  0.76270  0.57360  Biso   1.000  H
  Zn85     1.0000 0.14112  0.51634  0.67131  Biso   1.000  Zn
  Zn86     1.0000 0.17780  0.51323  0.17371  Biso   1.000  Zn
  Zn87     1.0000 0.26026  0.59143  0.92416  Biso   1.000  Zn
  Zn88     1.0000 0.26300  0.63803  0.42154  Biso   1.000  Zn
  Zn89     1.0000 0.07069  0.51510  0.66360  Biso   1.000  Zn
  Zn90     1.0000 0.03514  0.51512  0.16360  Biso   1.000  Zn
  Zn91     1.0000 0.26199  0.72750  0.41410  Biso   1.000  Zn
  P133     1.0000 0.25909  0.54454  0.97350  Biso   1.000  P
  P134     1.0000 0.10566  0.52462  0.71820  Biso   1.000  P
  P135     1.0000 0.27254  0.60930  0.64810  Biso   1.000  P
  P136     1.0000 0.15423  0.52740  0.39210  Biso   1.000  P
  P137     1.0000 0.16367  0.52892  0.89740  Biso   1.000  P
  P138     1.0000 0.26965  0.68321  0.47000  Biso   1.000  P
  P139     1.0000 0.27157  0.62174  0.14290  Biso   1.000  P
  P140     1.0000 0.05761  0.52827  0.39620  Biso   1.000  P
  P141     1.0000 0.04834  0.52795  0.89440  Biso   1.000  P
  P142     1.0000 0.21485  0.51148  0.22260  Biso   1.000  P
  P143     1.0000 0.22820  0.74396  0.35910  Biso   1.000  P
  O409     1.0000 0.27149  0.52783  0.95310  Biso   1.000  O
  O410     1.0000 0.25394  0.54756  0.11930  Biso   1.000  O
  O411     1.0000 0.26561  0.56396  0.91430  Biso   1.000  O
  O412     1.0000 0.12011  0.52556  0.63450  Biso   1.000  O
  O413     1.0000 0.09190  0.52416  0.62660  Biso   1.000  O
  O414     1.0000 0.10605  0.50758  0.80780  Biso   1.000  O
  O415     1.0000 0.27076  0.60896  0.79830  Biso   1.000  O
  O416     1.0000 0.27005  0.63070  0.60010  Biso   1.000  O
  O417     1.0000 0.26275  0.59375  0.57430  Biso   1.000  O
  O418     1.0000 0.15393  0.52859  0.54290  Biso   1.000  O
  O419     1.0000 0.17047  0.52207  0.35060  Biso   1.000  O
  O420     1.0000 0.14149  0.51293  0.33660  Biso   1.000  O
  O421     1.0000 0.14672  0.52486  0.84700  Biso   1.000  O
  O422     1.0000 0.17559  0.51684  0.82860  Biso   1.000  O
  O423     1.0000 0.16417  0.52625  0.04420  Biso   1.000  O
  O424     1.0000 0.27009  0.66431  0.38470  Biso   1.000  O
  O425     1.0000 0.26901  0.70049  0.37490  Biso   1.000  O
  O426     1.0000 0.25630  0.68266  0.55660  Biso   1.000  O
  O427     1.0000 0.26750  0.60117  0.10290  Biso   1.000  O
  O428     1.0000 0.26023  0.63774  0.08550  Biso   1.000  O
  O429     1.0000 0.27268  0.62149  0.29330  Biso   1.000  O
  O430     1.0000 0.05671  0.52768  0.54240  Biso   1.000  O
  O431     1.0000 0.04080  0.52341  0.34310  Biso   1.000  O
  O432     1.0000 0.07019  0.51400  0.34280  Biso   1.000  O
  O433     1.0000 0.04878  0.52848  0.04150  Biso   1.000  O
  O434     1.0000 0.03525  0.51350  0.83840  Biso   1.000  O
  O435     1.0000 0.06469  0.52415  0.84460  Biso   1.000  O
  O436     1.0000 0.19974  0.51967  0.16360  Biso   1.000  O
  O437     1.0000 0.22792  0.52752  0.20330  Biso   1.000  O
  O438     1.0000 0.21246  0.50522  0.36750  Biso   1.000  O
  O439     1.0000 0.23918  0.72750  0.41170  Biso   1.000  O
  O440     1.0000 0.23092  0.76493  0.40630  Biso   1.000  O
  O441     1.0000 0.22782  0.74480  0.21380  Biso   1.000  O
  O442     1.0000 0.01397  0.52381  0.12800  Biso   1.000  O
  F13      1.0000 0.25406  0.50508  0.12440  Biso   1.000  F
  H97      1.0000 0.24460  0.53930  0.88510  Biso   1.000  H
  H98      1.0000 0.10430  0.54600  0.80390  Biso   1.000  H
  H99      1.0000 0.29020  0.60470  0.61560  Biso   1.000  H
  H100     1.0000 0.14970  0.55030  0.34610  Biso   1.000  H
  H101     1.0000 0.16810  0.55270  0.86540  Biso   1.000  H
  H102     1.0000 0.28730  0.62470  0.06730  Biso   1.000  H
  H103     1.0000 0.06260  0.55090  0.33930  Biso   1.000  H
  H104     1.0000 0.21320  0.73730  0.42640  Biso   1.000  H
  Zn92     1.0000 0.64112  0.01634  0.67131  Biso   1.000  Zn
  Zn93     1.0000 0.67780  0.01323  0.17371  Biso   1.000  Zn
  Zn94     1.0000 0.76026  0.09143  0.92416  Biso   1.000  Zn
  Zn95     1.0000 0.76300  0.13803  0.42154  Biso   1.000  Zn
  Zn96     1.0000 0.57069  0.01510  0.66360  Biso   1.000  Zn
  Zn97     1.0000 0.53514  0.01512  0.16360  Biso   1.000  Zn
  Zn98     1.0000 0.76199  0.22750  0.41410  Biso   1.000  Zn
  P144     1.0000 0.75909  0.04454  0.97350  Biso   1.000  P
  P145     1.0000 0.60566  0.02462  0.71820  Biso   1.000  P
  P146     1.0000 0.77254  0.10930  0.64810  Biso   1.000  P
  P147     1.0000 0.65423  0.02740  0.39210  Biso   1.000  P
  P148     1.0000 0.66367  0.02892  0.89740  Biso   1.000  P
  P149     1.0000 0.76965  0.18321  0.47000  Biso   1.000  P
  P150     1.0000 0.77157  0.12174  0.14290  Biso   1.000  P
  P151     1.0000 0.55761  0.02827  0.39620  Biso   1.000  P
  P152     1.0000 0.54834  0.02795  0.89440  Biso   1.000  P
  P153     1.0000 0.71485  0.01148  0.22260  Biso   1.000  P
  P154     1.0000 0.72820  0.24396  0.35910  Biso   1.000  P
  O443     1.0000 0.77149  0.02783  0.95310  Biso   1.000  O
  O444     1.0000 0.75394  0.04756  0.11930  Biso   1.000  O
  O445     1.0000 0.76561  0.06396  0.91430  Biso   1.000  O
  O446     1.0000 0.62011  0.02556  0.63450  Biso   1.000  O
  O447     1.0000 0.59190  0.02416  0.62660  Biso   1.000  O
  O448     1.0000 0.60605  0.00758  0.80780  Biso   1.000  O
  O449     1.0000 0.77076  0.10896  0.79830  Biso   1.000  O
  O450     1.0000 0.77005  0.13070  0.60010  Biso   1.000  O
  O451     1.0000 0.76275  0.09375  0.57430  Biso   1.000  O
  O452     1.0000 0.65393  0.02859  0.54290  Biso   1.000  O
  O453     1.0000 0.67047  0.02207  0.35060  Biso   1.000  O
  O454     1.0000 0.64149  0.01293  0.33660  Biso   1.000  O
  O455     1.0000 0.64672  0.02486  0.84700  Biso   1.000  O
  O456     1.0000 0.67559  0.01684  0.82860  Biso   1.000  O
  O457     1.0000 0.66417  0.02625  0.04420  Biso   1.000  O
  O458     1.0000 0.77009  0.16431  0.38470  Biso   1.000  O
  O459     1.0000 0.76901  0.20049  0.37490  Biso   1.000  O
  O460     1.0000 0.75630  0.18266  0.55660  Biso   1.000  O
  O461     1.0000 0.76750  0.10117  0.10290  Biso   1.000  O
  O462     1.0000 0.76023  0.13774  0.08550  Biso   1.000  O
  O463     1.0000 0.77268  0.12149  0.29330  Biso   1.000  O
  O464     1.0000 0.55671  0.02768  0.54240  Biso   1.000  O
  O465     1.0000 0.54080  0.02341  0.34310  Biso   1.000  O
  O466     1.0000 0.57019  0.01400  0.34280  Biso   1.000  O
  O467     1.0000 0.54878  0.02848  0.04150  Biso   1.000  O
  O468     1.0000 0.53525  0.01350  0.83840  Biso   1.000  O
  O469     1.0000 0.56469  0.02415  0.84460  Biso   1.000  O
  O470     1.0000 0.69974  0.01967  0.16360  Biso   1.000  O
  O471     1.0000 0.72792  0.02752  0.20330  Biso   1.000  O
  O472     1.0000 0.71246  0.00522  0.36750  Biso   1.000  O
  O473     1.0000 0.73918  0.22750  0.41170  Biso   1.000  O
  O474     1.0000 0.73092  0.26493  0.40630  Biso   1.000  O
  O475     1.0000 0.72782  0.24480  0.21380  Biso   1.000  O
  O476     1.0000 0.51397  0.02381  0.12800  Biso   1.000  O
  F14      1.0000 0.75406  0.00508  0.12440  Biso   1.000  F
  H105     1.0000 0.74460  0.03930  0.88510  Biso   1.000  H
  H106     1.0000 0.60430  0.04600  0.80390  Biso   1.000  H
  H107     1.0000 0.79020  0.10470  0.61560  Biso   1.000  H
  H108     1.0000 0.64970  0.05030  0.34610  Biso   1.000  H
  H109     1.0000 0.66810  0.05270  0.86540  Biso   1.000  H
  H110     1.0000 0.78730  0.12470  0.06730  Biso   1.000  H
  H111     1.0000 0.56260  0.05090  0.33930  Biso   1.000  H
  H112     1.0000 0.71320  0.23730  0.42640  Biso   1.000  H
  Zn99     1.0000 0.85888  0.98366  0.17131  Biso   1.000  Zn
  Zn100    1.0000 0.82220  0.98677  0.67371  Biso   1.000  Zn
  Zn101    1.0000 0.73974  0.90857  0.42416  Biso   1.000  Zn
  Zn102    1.0000 0.73700  0.86197  0.92154  Biso   1.000  Zn
  Zn103    1.0000 0.92931  0.98490  0.16360  Biso   1.000  Zn
  Zn104    1.0000 0.96486  0.98488  0.66360  Biso   1.000  Zn
  Zn105    1.0000 0.73801  0.77250  0.91410  Biso   1.000  Zn
  P155     1.0000 0.74091  0.95546  0.47350  Biso   1.000  P
  P156     1.0000 0.89434  0.97538  0.21820  Biso   1.000  P
  P157     1.0000 0.72746  0.89070  0.14810  Biso   1.000  P
  P158     1.0000 0.84577  0.97260  0.89210  Biso   1.000  P
  P159     1.0000 0.83633  0.97108  0.39740  Biso   1.000  P
  P160     1.0000 0.73035  0.81679  0.97000  Biso   1.000  P
  P161     1.0000 0.72843  0.87826  0.64290  Biso   1.000  P
  P162     1.0000 0.94239  0.97173  0.89620  Biso   1.000  P
  P163     1.0000 0.95166  0.97205  0.39440  Biso   1.000  P
  P164     1.0000 0.78515  0.98852  0.72260  Biso   1.000  P
  P165     1.0000 0.77180  0.75604  0.85910  Biso   1.000  P
  O477     1.0000 0.72851  0.97217  0.45310  Biso   1.000  O
  O478     1.0000 0.74606  0.95244  0.61930  Biso   1.000  O
  O479     1.0000 0.73439  0.93604  0.41430  Biso   1.000  O
  O480     1.0000 0.87989  0.97444  0.13450  Biso   1.000  O
  O481     1.0000 0.90810  0.97584  0.12660  Biso   1.000  O
  O482     1.0000 0.89395  0.99242  0.30780  Biso   1.000  O
  O483     1.0000 0.72924  0.89104  0.29830  Biso   1.000  O
  O484     1.0000 0.72995  0.86930  0.10010  Biso   1.000  O
  O485     1.0000 0.73725  0.90625  0.07430  Biso   1.000  O
  O486     1.0000 0.84607  0.97141  0.04290  Biso   1.000  O
  O487     1.0000 0.82953  0.97793  0.85060  Biso   1.000  O
  O488     1.0000 0.85851  0.98707  0.83660  Biso   1.000  O
  O489     1.0000 0.85328  0.97514  0.34700  Biso   1.000  O
  O490     1.0000 0.82441  0.98316  0.32860  Biso   1.000  O
  O491     1.0000 0.83583  0.97375  0.54420  Biso   1.000  O
  O492     1.0000 0.72991  0.83569  0.88470  Biso   1.000  O
  O493     1.0000 0.73099  0.79951  0.87490  Biso   1.000  O
  O494     1.0000 0.74370  0.81734  0.05660  Biso   1.000  O
  O495     1.0000 0.73250  0.89883  0.60290  Biso   1.000  O
  O496     1.0000 0.73977  0.86226  0.58550  Biso   1.000  O
  O497     1.0000 0.72732  0.87851  0.79330  Biso   1.000  O
  O498     1.0000 0.94329  0.97232  0.04240  Biso   1.000  O
  O499     1.0000 0.95920  0.97659  0.84310  Biso   1.000  O
  O500     1.0000 0.92981  0.98600  0.84280  Biso   1.000  O
  O501     1.0000 0.95122  0.97152  0.54150  Biso   1.000  O
  O502     1.0000 0.96475  0.98650  0.33840  Biso   1.000  O
  O503     1.0000 0.93531  0.97585  0.34460  Biso   1.000  O
  O504     1.0000 0.80026  0.98033  0.66360  Biso   1.000  O
  O505     1.0000 0.77208  0.97248  0.70330  Biso   1.000  O
  O506     1.0000 0.78754  0.99478  0.86750  Biso   1.000  O
  O507     1.0000 0.76082  0.77250  0.91170  Biso   1.000  O
  O508     1.0000 0.76908  0.73507  0.90630  Biso   1.000  O
  O509     1.0000 0.77218  0.75520  0.71380  Biso   1.000  O
  O510     1.0000 0.98603  0.97619  0.62800  Biso   1.000  O
  F15      1.0000 0.74594  0.99492  0.62440  Biso   1.000  F
  H113     1.0000 0.75540  0.96070  0.38510  Biso   1.000  H
  H114     1.0000 0.89570  0.95400  0.30390  Biso   1.000  H
  H115     1.0000 0.70980  0.89530  0.11560  Biso   1.000  H
  H116     1.0000 0.85030  0.94970  0.84610  Biso   1.000  H
  H117     1.0000 0.83190  0.94730  0.36540  Biso   1.000  H
  H118     1.0000 0.71270  0.87530  0.56730  Biso   1.000  H
  H119     1.0000 0.93740  0.94910  0.83930  Biso   1.000  H
  H120     1.0000 0.78680  0.76270  0.92640  Biso   1.000  H
  Zn106    1.0000 0.35888  0.48366  0.17131  Biso   1.000  Zn
  Zn107    1.0000 0.32220  0.48677  0.67371  Biso   1.000  Zn
  Zn108    1.0000 0.23974  0.40857  0.42416  Biso   1.000  Zn
  Zn109    1.0000 0.23700  0.36197  0.92154  Biso   1.000  Zn
  Zn110    1.0000 0.42931  0.48490  0.16360  Biso   1.000  Zn
  Zn111    1.0000 0.46486  0.48488  0.66360  Biso   1.000  Zn
  Zn112    1.0000 0.23801  0.27250  0.91410  Biso   1.000  Zn
  P166     1.0000 0.24091  0.45546  0.47350  Biso   1.000  P
  P167     1.0000 0.39434  0.47538  0.21820  Biso   1.000  P
  P168     1.0000 0.22746  0.39070  0.14810  Biso   1.000  P
  P169     1.0000 0.34577  0.47260  0.89210  Biso   1.000  P
  P170     1.0000 0.33633  0.47108  0.39740  Biso   1.000  P
  P171     1.0000 0.23035  0.31679  0.97000  Biso   1.000  P
  P172     1.0000 0.22843  0.37826  0.64290  Biso   1.000  P
  P173     1.0000 0.44239  0.47173  0.89620  Biso   1.000  P
  P174     1.0000 0.45166  0.47205  0.39440  Biso   1.000  P
  P175     1.0000 0.28515  0.48852  0.72260  Biso   1.000  P
  P176     1.0000 0.27180  0.25604  0.85910  Biso   1.000  P
  O511     1.0000 0.22851  0.47217  0.45310  Biso   1.000  O
  O512     1.0000 0.24606  0.45244  0.61930  Biso   1.000  O
  O513     1.0000 0.23439  0.43604  0.41430  Biso   1.000  O
  O514     1.0000 0.37989  0.47444  0.13450  Biso   1.000  O
  O515     1.0000 0.40810  0.47584  0.12660  Biso   1.000  O
  O516     1.0000 0.39395  0.49242  0.30780  Biso   1.000  O
  O517     1.0000 0.22924  0.39104  0.29830  Biso   1.000  O
  O518     1.0000 0.22995  0.36930  0.10010  Biso   1.000  O
  O519     1.0000 0.23725  0.40625  0.07430  Biso   1.000  O
  O520     1.0000 0.34607  0.47141  0.04290  Biso   1.000  O
  O521     1.0000 0.32953  0.47793  0.85060  Biso   1.000  O
  O522     1.0000 0.35851  0.48707  0.83660  Biso   1.000  O
  O523     1.0000 0.35328  0.47514  0.34700  Biso   1.000  O
  O524     1.0000 0.32441  0.48316  0.32860  Biso   1.000  O
  O525     1.0000 0.33583  0.47375  0.54420  Biso   1.000  O
  O526     1.0000 0.22991  0.33569  0.88470  Biso   1.000  O
  O527     1.0000 0.23099  0.29951  0.87490  Biso   1.000  O
  O528     1.0000 0.24370  0.31734  0.05660  Biso   1.000  O
  O529     1.0000 0.23250  0.39883  0.60290  Biso   1.000  O
  O530     1.0000 0.23977  0.36226  0.58550  Biso   1.000  O
  O531     1.0000 0.22732  0.37851  0.79330  Biso   1.000  O
  O532     1.0000 0.44329  0.47232  0.04240  Biso   1.000  O
  O533     1.0000 0.45920  0.47659  0.84310  Biso   1.000  O
  O534     1.0000 0.42981  0.48600  0.84280  Biso   1.000  O
  O535     1.0000 0.45122  0.47152  0.54150  Biso   1.000  O
  O536     1.0000 0.46475  0.48650  0.33840  Biso   1.000  O
  O537     1.0000 0.43531  0.47585  0.34460  Biso   1.000  O
  O538     1.0000 0.30026  0.48033  0.66360  Biso   1.000  O
  O539     1.0000 0.27208  0.47248  0.70330  Biso   1.000  O
  O540     1.0000 0.28754  0.49478  0.86750  Biso   1.000  O
  O541     1.0000 0.26082  0.27250  0.91170  Biso   1.000  O
  O542     1.0000 0.26908  0.23507  0.90630  Biso   1.000  O
  O543     1.0000 0.27218  0.25520  0.71380  Biso   1.000  O
  O544     1.0000 0.48603  0.47619  0.62800  Biso   1.000  O
  F16      1.0000 0.24594  0.49492  0.62440  Biso   1.000  F
  H121     1.0000 0.25540  0.46070  0.38510  Biso   1.000  H
  H122     1.0000 0.39570  0.45400  0.30390  Biso   1.000  H
  H123     1.0000 0.20980  0.39530  0.11560  Biso   1.000  H
  H124     1.0000 0.35030  0.44970  0.84610  Biso   1.000  H
  H125     1.0000 0.33190  0.44730  0.36540  Biso   1.000  H
  H126     1.0000 0.21270  0.37530  0.56730  Biso   1.000  H
  H127     1.0000 0.43740  0.44910  0.83930  Biso   1.000  H
  H128     1.0000 0.28680  0.26270  0.92640  Biso   1.000  H
  Ga1      1.0000 0.25000  0.97286  0.75000  Biso   1.000  Ga
  Ga2      1.0000 0.75000  0.52714  0.25000  Biso   1.000  Ga
  Ga3      1.0000 0.75000  0.47286  0.75000  Biso   1.000  Ga
  Ga4      1.0000 0.25000  0.02714  0.25000  Biso   1.000  Ga
  Ga5      1.0000 0.75000  0.02714  0.25000  Biso   1.000  Ga
  Ga6      1.0000 0.25000  0.52714  0.25000  Biso   1.000  Ga
  Ga7      1.0000 0.25000  0.47286  0.75000  Biso   1.000  Ga
  Ga8      1.0000 0.75000  0.97286  0.75000  Biso   1.000  Ga
  Ga9      1.0000 0.22855  0.00000  0.00000  Biso   1.000  Ga
  Ga10     1.0000 0.72855  0.50000  0.00000  Biso   1.000  Ga
  Ga11     1.0000 0.77145  0.50000  0.50000  Biso   1.000  Ga
  Ga12     1.0000 0.27145  0.00000  0.50000  Biso   1.000  Ga
  Ga13     1.0000 0.77145  0.00000  0.00000  Biso   1.000  Ga
  Ga14     1.0000 0.27145  0.50000  0.00000  Biso   1.000  Ga
  Ga15     1.0000 0.22855  0.50000  0.50000  Biso   1.000  Ga
  Ga16     1.0000 0.72855  0.00000  0.50000  Biso   1.000  Ga
  Zn113    1.0000 0.25000  0.81729  0.25000  Biso   1.000  Zn
  Zn114    1.0000 0.75000  0.68271  0.75000  Biso   1.000  Zn
  Zn115    1.0000 0.75000  0.31729  0.25000  Biso   1.000  Zn
  Zn116    1.0000 0.25000  0.18271  0.75000  Biso   1.000  Zn
  Zn117    1.0000 0.75000  0.18271  0.75000  Biso   1.000  Zn
  Zn118    1.0000 0.25000  0.31729  0.25000  Biso   1.000  Zn
  Zn119    1.0000 0.25000  0.68271  0.75000  Biso   1.000  Zn
  Zn120    1.0000 0.75000  0.81729  0.25000  Biso   1.000  Zn
  Zn121    1.0000 0.00000  0.00000  0.00000  Biso   1.000  Zn
  Zn122    1.0000 0.50000  0.50000  0.00000  Biso   1.000  Zn
  Zn123    1.0000 0.00000  0.50000  0.50000  Biso   1.000  Zn
  Zn124    1.0000 0.50000  0.00000  0.50000  Biso   1.000  Zn
  Zn125    1.0000 0.10596  0.00000  0.50000  Biso   1.000  Zn
  Zn126    1.0000 0.60596  0.50000  0.50000  Biso   1.000  Zn
  Zn127    1.0000 0.89404  0.50000  0.00000  Biso   1.000  Zn
  Zn128    1.0000 0.39404  0.00000  0.00000  Biso   1.000  Zn
  Zn129    1.0000 0.89404  0.00000  0.50000  Biso   1.000  Zn
  Zn130    1.0000 0.39404  0.50000  0.50000  Biso   1.000  Zn
  Zn131    1.0000 0.10596  0.50000  0.00000  Biso   1.000  Zn
  Zn132    1.0000 0.60596  0.00000  0.00000  Biso   1.000  Zn
  P177     1.0000 0.00000  0.97484  0.72120  Biso   1.000  P
  O545     1.0000 0.00000  0.99370  0.80140  Biso   1.000  O
  P178     1.0000 0.50000  0.47484  0.72120  Biso   1.000  P
  O546     1.0000 0.50000  0.49370  0.80140  Biso   1.000  O
  P179     1.0000 0.00000  0.52516  0.22120  Biso   1.000  P
  O547     1.0000 0.00000  0.50630  0.30140  Biso   1.000  O
  P180     1.0000 0.50000  0.02516  0.22120  Biso   1.000  P
  O548     1.0000 0.50000  0.00630  0.30140  Biso   1.000  O
  P181     1.0000 0.00000  0.47484  0.77880  Biso   1.000  P
  O549     1.0000 0.00000  0.49370  0.69860  Biso   1.000  O
  P182     1.0000 0.50000  0.97484  0.77880  Biso   1.000  P
  O550     1.0000 0.50000  0.99370  0.69860  Biso   1.000  O
  P183     1.0000 0.00000  0.02516  0.27880  Biso   1.000  P
  O551     1.0000 0.00000  0.00630  0.19860  Biso   1.000  O
  P184     1.0000 0.50000  0.52516  0.27880  Biso   1.000  P
  O552     1.0000 0.50000  0.50630  0.19860  Biso   1.000  O
