data_LEVLEF_clean
_audit_creation_date              2014-07-02
_audit_creation_method            'Materials Studio'
_symmetry_space_group_name_H-M    'P1'
_symmetry_Int_Tables_number       1
_symmetry_cell_setting            triclinic
loop_
_symmetry_equiv_pos_as_xyz
  x,y,z
_cell_length_a                    30.4787
_cell_length_b                    30.4787
_cell_length_c                    30.4787
_cell_angle_alpha                 109.4710
_cell_angle_beta                  109.4710
_cell_angle_gamma                 109.4710
loop_
_atom_site_label
_atom_site_type_symbol
_atom_site_fract_x
_atom_site_fract_y
_atom_site_fract_z
_atom_site_U_iso_or_equiv
_atom_site_adp_type
_atom_site_occupancy
Mg1    Mg    0.76940   0.21540   0.21540   0.01267  Uiso   1.00
Mg2    Mg    0.67350   0.24300   0.24300   0.01267  Uiso   1.00
Mg3    Mg    0.00000   0.55400   0.78460   0.01267  Uiso   1.00
Mg4    Mg    1.00000   0.43050   0.75700   0.01267  Uiso   1.00
Mg5    Mg    0.00000   0.78460   0.55400   0.01267  Uiso   1.00
Mg6    Mg    1.00000   0.75700   0.43050   0.01267  Uiso   1.00
Mg7    Mg    0.23060   0.44600   0.44600   0.01267  Uiso   1.00
Mg8    Mg    0.32650   0.56950   0.56950   0.01267  Uiso   1.00
Mg9    Mg    0.55400   0.00000   0.78460   0.01267  Uiso   1.00
Mg10   Mg    0.43050   0.00000   0.75700   0.01267  Uiso   1.00
Mg11   Mg    0.44600   0.23060   0.44600   0.01267  Uiso   1.00
Mg12   Mg    0.56950   0.32650   0.56950   0.01267  Uiso   1.00
Mg13   Mg    0.21540   0.76940   0.21540   0.01267  Uiso   1.00
Mg14   Mg    0.24300   0.67350   0.24300   0.01267  Uiso   1.00
Mg15   Mg    0.78460   0.00000   0.55400   0.01267  Uiso   1.00
Mg16   Mg    0.75700   0.00000   0.43050   0.01267  Uiso   1.00
Mg17   Mg    0.55400   0.78460   1.00000   0.01267  Uiso   1.00
Mg18   Mg    0.43050   0.75700   1.00000   0.01267  Uiso   1.00
Mg19   Mg    0.21540   0.21540   0.76940   0.01267  Uiso   1.00
Mg20   Mg    0.24300   0.24300   0.67350   0.01267  Uiso   1.00
Mg21   Mg    0.44600   0.44600   0.23060   0.01267  Uiso   1.00
Mg22   Mg    0.56950   0.56950   0.32650   0.01267  Uiso   1.00
Mg23   Mg    0.78460   0.55400  -0.00000   0.01267  Uiso   1.00
Mg24   Mg    0.75700   0.43050   1.00000   0.01267  Uiso   1.00
Mg25   Mg    0.78460   0.23060   0.78460   0.01267  Uiso   1.00
Mg26   Mg    0.75700   0.32650   0.75700   0.01267  Uiso   1.00
Mg27   Mg    0.44600   0.00000   0.21540   0.01267  Uiso   1.00
Mg28   Mg    0.56950   0.00000   0.24300   0.01267  Uiso   1.00
Mg29   Mg    0.21540   0.00000   0.44600   0.01267  Uiso   1.00
Mg30   Mg    0.24300   0.00000   0.56950   0.01267  Uiso   1.00
Mg31   Mg    0.55400   0.76940   0.55400   0.01267  Uiso   1.00
Mg32   Mg    0.43050   0.67350   0.43050   0.01267  Uiso   1.00
Mg33   Mg    0.00000   0.44600   0.21540   0.01267  Uiso   1.00
Mg34   Mg    0.00000   0.56950   0.24300   0.01267  Uiso   1.00
Mg35   Mg    0.76940   0.55400   0.55400   0.01267  Uiso   1.00
Mg36   Mg    0.67350   0.43050   0.43050   0.01267  Uiso   1.00
Mg37   Mg    0.23060   0.78460   0.78460   0.01267  Uiso   1.00
Mg38   Mg    0.32650   0.75700   0.75700   0.01267  Uiso   1.00
Mg39   Mg    1.00000   0.21540   0.44600   0.01267  Uiso   1.00
Mg40   Mg    0.00000   0.24300   0.56950   0.01267  Uiso   1.00
Mg41   Mg    0.21540   0.44600  -0.00000   0.01267  Uiso   1.00
Mg42   Mg    0.24300   0.56950   1.00000   0.01267  Uiso   1.00
Mg43   Mg    0.78460   0.78460   0.23060   0.01267  Uiso   1.00
Mg44   Mg    0.75700   0.75700   0.32650   0.01267  Uiso   1.00
Mg45   Mg    0.55400   0.55400   0.76940   0.01267  Uiso   1.00
Mg46   Mg    0.43050   0.43050   0.67350   0.01267  Uiso   1.00
Mg47   Mg    0.44600   0.21540   0.00000   0.01267  Uiso   1.00
Mg48   Mg    0.56950   0.24300   0.00000   0.01267  Uiso   1.00
H1     H     0.67390   0.34910   0.27240   0.01267  Uiso   1.00
H2     H     0.61130   0.31140   0.24750   0.01267  Uiso   1.00
H3     H     0.75830   0.32020   0.37430   0.01267  Uiso   1.00
H4     H     0.79650   0.27270   0.13260   0.01267  Uiso   1.00
H5     H     0.07670   0.40150   0.72760   0.01267  Uiso   1.00
H6     H     0.06390   0.36380   0.75250   0.01267  Uiso   1.00
H7     H     0.94590   0.38400   0.62570   0.01267  Uiso   1.00
H8     H     0.14010   0.66390   0.86740   0.01267  Uiso   1.00
H9     H     0.92330   0.65090   0.32480   0.01267  Uiso   1.00
H10    H     0.93610   0.68860   0.29990   0.01267  Uiso   1.00
H11    H     0.05410   0.67980   0.43810   0.01267  Uiso   1.00
H12    H     0.85990   0.72730   0.52380   0.01267  Uiso   1.00
H13    H     0.32610   0.59850   0.67520   0.01267  Uiso   1.00
H14    H     0.38870   0.63620   0.70010   0.01267  Uiso   1.00
H15    H     0.24170   0.61600   0.56190   0.01267  Uiso   1.00
H16    H     0.20350   0.33610   0.47620   0.01267  Uiso   1.00
H17    H     0.32480   0.92330   0.65090   0.01267  Uiso   1.00
H18    H     0.29990   0.93610   0.68860   0.01267  Uiso   1.00
H19    H     0.43810   0.05410   0.67980   0.01267  Uiso   1.00
H20    H     0.52380   0.85990   0.72730   0.01267  Uiso   1.00
H21    H     0.67520   0.32610   0.59850   0.01267  Uiso   1.00
H22    H     0.70010   0.38870   0.63620   0.01267  Uiso   1.00
H23    H     0.56190   0.24170   0.61600   0.01267  Uiso   1.00
H24    H     0.47620   0.20350   0.33610   0.01267  Uiso   1.00
H25    H     0.27240   0.67390   0.34910   0.01267  Uiso   1.00
H26    H     0.24750   0.61130   0.31140   0.01267  Uiso   1.00
H27    H     0.37430   0.75830   0.32020   0.01267  Uiso   1.00
H28    H     0.13260   0.79650   0.27270   0.01267  Uiso   1.00
H29    H     0.72760   0.07670   0.40150   0.01267  Uiso   1.00
H30    H     0.75250   0.06390   0.36380   0.01267  Uiso   1.00
H31    H     0.62570   0.94590   0.38400   0.01267  Uiso   1.00
H32    H     0.86740   0.14010   0.66390   0.01267  Uiso   1.00
H33    H     0.40150   0.72760   0.07670   0.01267  Uiso   1.00
H34    H     0.36380   0.75250   0.06390   0.01267  Uiso   1.00
H35    H     0.38400   0.62570   0.94590   0.01267  Uiso   1.00
H36    H     0.66390   0.86740   0.14010   0.01267  Uiso   1.00
H37    H     0.34910   0.27240   0.67390   0.01267  Uiso   1.00
H38    H     0.31140   0.24750   0.61130   0.01267  Uiso   1.00
H39    H     0.32020   0.37430   0.75830   0.01267  Uiso   1.00
H40    H     0.27270   0.13260   0.79650   0.01267  Uiso   1.00
H41    H     0.59850   0.67520   0.32610   0.01267  Uiso   1.00
H42    H     0.63620   0.70010   0.38870   0.01267  Uiso   1.00
H43    H     0.61600   0.56190   0.24170   0.01267  Uiso   1.00
H44    H     0.33610   0.47620   0.20350   0.01267  Uiso   1.00
H45    H     0.65090   0.32480   0.92330   0.01267  Uiso   1.00
H46    H     0.68860   0.29990   0.93610   0.01267  Uiso   1.00
H47    H     0.67980   0.43810   0.05410   0.01267  Uiso   1.00
H48    H     0.72730   0.52380   0.85990   0.01267  Uiso   1.00
H49    H     0.65090   0.32610   0.72760   0.01267  Uiso   1.00
H50    H     0.68860   0.38870   0.75250   0.01267  Uiso   1.00
H51    H     0.67980   0.24170   0.62570   0.01267  Uiso   1.00
H52    H     0.72730   0.20350   0.86740   0.01267  Uiso   1.00
H53    H     0.59850   0.92330   0.27240   0.01267  Uiso   1.00
H54    H     0.63620   0.93610   0.24750   0.01267  Uiso   1.00
H55    H     0.61600   0.05410   0.37430   0.01267  Uiso   1.00
H56    H     0.33610   0.85990   0.13260   0.01267  Uiso   1.00
H57    H     0.34910   0.07670   0.67520   0.01267  Uiso   1.00
H58    H     0.31140   0.06390   0.70010   0.01267  Uiso   1.00
H59    H     0.32020   0.94590   0.56190   0.01267  Uiso   1.00
H60    H     0.27270   0.14010   0.47620   0.01267  Uiso   1.00
H61    H     0.40150   0.67390   0.32480   0.01267  Uiso   1.00
H62    H     0.36380   0.61130   0.29990   0.01267  Uiso   1.00
H63    H     0.38400   0.75830   0.43810   0.01267  Uiso   1.00
H64    H     0.66390   0.79650   0.52380   0.01267  Uiso   1.00
H65    H     0.07670   0.67520   0.34910   0.01267  Uiso   1.00
H66    H     0.06390   0.70010   0.31140   0.01267  Uiso   1.00
H67    H     0.94590   0.56190   0.32020   0.01267  Uiso   1.00
H68    H     0.14010   0.47620   0.27270   0.01267  Uiso   1.00
H69    H     0.67390   0.32480   0.40150   0.01267  Uiso   1.00
H70    H     0.61130   0.29990   0.36380   0.01267  Uiso   1.00
H71    H     0.75830   0.43810   0.38400   0.01267  Uiso   1.00
H72    H     0.79650   0.52380   0.66390   0.01267  Uiso   1.00
H73    H     0.32610   0.72760   0.65090   0.01267  Uiso   1.00
H74    H     0.38870   0.75250   0.68860   0.01267  Uiso   1.00
H75    H     0.24170   0.62570   0.67980   0.01267  Uiso   1.00
H76    H     0.20350   0.86740   0.72730   0.01267  Uiso   1.00
H77    H     0.92330   0.27240   0.59850   0.01267  Uiso   1.00
H78    H     0.93610   0.24750   0.63620   0.01267  Uiso   1.00
H79    H     0.05410   0.37430   0.61600   0.01267  Uiso   1.00
H80    H     0.85990   0.13260   0.33610   0.01267  Uiso   1.00
H81    H     0.27240   0.59850   0.92330   0.01267  Uiso   1.00
H82    H     0.24750   0.63620   0.93610   0.01267  Uiso   1.00
H83    H     0.37430   0.61600   0.05410   0.01267  Uiso   1.00
H84    H     0.13260   0.33610   0.85990   0.01267  Uiso   1.00
H85    H     0.72760   0.65090   0.32610   0.01267  Uiso   1.00
H86    H     0.75250   0.68860   0.38870   0.01267  Uiso   1.00
H87    H     0.62570   0.67980   0.24170   0.01267  Uiso   1.00
H88    H     0.86740   0.72730   0.20350   0.01267  Uiso   1.00
H89    H     0.32480   0.40150   0.67390   0.01267  Uiso   1.00
H90    H     0.29990   0.36380   0.61130   0.01267  Uiso   1.00
H91    H     0.43810   0.38400   0.75830   0.01267  Uiso   1.00
H92    H     0.52380   0.66390   0.79650   0.01267  Uiso   1.00
H93    H     0.67520   0.34910   0.07670   0.01267  Uiso   1.00
H94    H     0.70010   0.31140   0.06390   0.01267  Uiso   1.00
H95    H     0.56190   0.32020   0.94590   0.01267  Uiso   1.00
H96    H     0.47620   0.27270   0.14010   0.01267  Uiso   1.00
H97    H     0.32610   0.65090   0.72760   0.01267  Uiso   1.00
H98    H     0.38870   0.68860   0.75250   0.01267  Uiso   1.00
H99    H     0.24170   0.67980   0.62570   0.01267  Uiso   1.00
H100   H     0.20350   0.72730   0.86740   0.01267  Uiso   1.00
H101   H     0.92330   0.59850   0.27240   0.01267  Uiso   1.00
H102   H     0.93610   0.63620   0.24750   0.01267  Uiso   1.00
H103   H     0.05410   0.61600   0.37430   0.01267  Uiso   1.00
H104   H     0.85990   0.33610   0.13260   0.01267  Uiso   1.00
H105   H     0.07670   0.34910   0.67520   0.01267  Uiso   1.00
H106   H     0.06390   0.31140   0.70010   0.01267  Uiso   1.00
H107   H     0.94590   0.32020   0.56190   0.01267  Uiso   1.00
H108   H     0.14010   0.27270   0.47620   0.01267  Uiso   1.00
H109   H     0.67390   0.40150   0.32480   0.01267  Uiso   1.00
H110   H     0.61130   0.36380   0.29990   0.01267  Uiso   1.00
H111   H     0.75830   0.38400   0.43810   0.01267  Uiso   1.00
H112   H     0.79650   0.66390   0.52380   0.01267  Uiso   1.00
H113   H     0.67520   0.07670   0.34910   0.01267  Uiso   1.00
H114   H     0.70010   0.06390   0.31140   0.01267  Uiso   1.00
H115   H     0.56190   0.94590   0.32020   0.01267  Uiso   1.00
H116   H     0.47620   0.14010   0.27270   0.01267  Uiso   1.00
H117   H     0.32480   0.67390   0.40150   0.01267  Uiso   1.00
H118   H     0.29990   0.61130   0.36380   0.01267  Uiso   1.00
H119   H     0.43810   0.75830   0.38400   0.01267  Uiso   1.00
H120   H     0.52380   0.79650   0.66390   0.01267  Uiso   1.00
H121   H     0.72760   0.32610   0.65090   0.01267  Uiso   1.00
H122   H     0.75250   0.38870   0.68860   0.01267  Uiso   1.00
H123   H     0.62570   0.24170   0.67980   0.01267  Uiso   1.00
H124   H     0.86740   0.20350   0.72730   0.01267  Uiso   1.00
H125   H     0.27240   0.92330   0.59850   0.01267  Uiso   1.00
H126   H     0.24750   0.93610   0.63620   0.01267  Uiso   1.00
H127   H     0.37430   0.05410   0.61600   0.01267  Uiso   1.00
H128   H     0.13260   0.85990   0.33610   0.01267  Uiso   1.00
H129   H     0.59850   0.27240   0.92330   0.01267  Uiso   1.00
H130   H     0.63620   0.24750   0.93610   0.01267  Uiso   1.00
H131   H     0.61600   0.37430   0.05410   0.01267  Uiso   1.00
H132   H     0.33610   0.13260   0.85990   0.01267  Uiso   1.00
H133   H     0.65090   0.72760   0.32610   0.01267  Uiso   1.00
H134   H     0.68860   0.75250   0.38870   0.01267  Uiso   1.00
H135   H     0.67980   0.62570   0.24170   0.01267  Uiso   1.00
H136   H     0.72730   0.86740   0.20350   0.01267  Uiso   1.00
H137   H     0.40150   0.32480   0.67390   0.01267  Uiso   1.00
H138   H     0.36380   0.29990   0.61130   0.01267  Uiso   1.00
H139   H     0.38400   0.43810   0.75830   0.01267  Uiso   1.00
H140   H     0.66390   0.52380   0.79650   0.01267  Uiso   1.00
H141   H     0.34910   0.67520   0.07670   0.01267  Uiso   1.00
H142   H     0.31140   0.70010   0.06390   0.01267  Uiso   1.00
H143   H     0.32020   0.56190   0.94590   0.01267  Uiso   1.00
H144   H     0.27270   0.47620   0.14010   0.01267  Uiso   1.00
H145   H     0.34910   0.67390   0.27240   0.01267  Uiso   1.00
H146   H     0.31140   0.61130   0.24750   0.01267  Uiso   1.00
H147   H     0.32020   0.75830   0.37430   0.01267  Uiso   1.00
H148   H     0.27270   0.79650   0.13260   0.01267  Uiso   1.00
H149   H     0.40150   0.07670   0.72760   0.01267  Uiso   1.00
H150   H     0.36380   0.06390   0.75250   0.01267  Uiso   1.00
H151   H     0.38400   0.94590   0.62570   0.01267  Uiso   1.00
H152   H     0.66390   0.14010   0.86740   0.01267  Uiso   1.00
H153   H     0.65090   0.92330   0.32480   0.01267  Uiso   1.00
H154   H     0.68860   0.93610   0.29990   0.01267  Uiso   1.00
H155   H     0.67980   0.05410   0.43810   0.01267  Uiso   1.00
H156   H     0.72730   0.85990   0.52380   0.01267  Uiso   1.00
H157   H     0.59850   0.32610   0.67520   0.01267  Uiso   1.00
H158   H     0.63620   0.38870   0.70010   0.01267  Uiso   1.00
H159   H     0.61600   0.24170   0.56190   0.01267  Uiso   1.00
H160   H     0.33610   0.20350   0.47620   0.01267  Uiso   1.00
H161   H     0.92330   0.32480   0.65090   0.01267  Uiso   1.00
H162   H     0.93610   0.29990   0.68860   0.01267  Uiso   1.00
H163   H     0.05410   0.43810   0.67980   0.01267  Uiso   1.00
H164   H     0.85990   0.52380   0.72730   0.01267  Uiso   1.00
H165   H     0.32610   0.67520   0.59850   0.01267  Uiso   1.00
H166   H     0.38870   0.70010   0.63620   0.01267  Uiso   1.00
H167   H     0.24170   0.56190   0.61600   0.01267  Uiso   1.00
H168   H     0.20350   0.47620   0.33610   0.01267  Uiso   1.00
H169   H     0.67390   0.27240   0.34910   0.01267  Uiso   1.00
H170   H     0.61130   0.24750   0.31140   0.01267  Uiso   1.00
H171   H     0.75830   0.37430   0.32020   0.01267  Uiso   1.00
H172   H     0.79650   0.13260   0.27270   0.01267  Uiso   1.00
H173   H     0.07670   0.72760   0.40150   0.01267  Uiso   1.00
H174   H     0.06390   0.75250   0.36380   0.01267  Uiso   1.00
H175   H     0.94590   0.62570   0.38400   0.01267  Uiso   1.00
H176   H     0.14010   0.86740   0.66390   0.01267  Uiso   1.00
H177   H     0.72760   0.40150   0.07670   0.01267  Uiso   1.00
H178   H     0.75250   0.36380   0.06390   0.01267  Uiso   1.00
H179   H     0.62570   0.38400   0.94590   0.01267  Uiso   1.00
H180   H     0.86740   0.66390   0.14010   0.01267  Uiso   1.00
H181   H     0.27240   0.34910   0.67390   0.01267  Uiso   1.00
H182   H     0.24750   0.31140   0.61130   0.01267  Uiso   1.00
H183   H     0.37430   0.32020   0.75830   0.01267  Uiso   1.00
H184   H     0.13260   0.27270   0.79650   0.01267  Uiso   1.00
H185   H     0.67520   0.59850   0.32610   0.01267  Uiso   1.00
H186   H     0.70010   0.63620   0.38870   0.01267  Uiso   1.00
H187   H     0.56190   0.61600   0.24170   0.01267  Uiso   1.00
H188   H     0.47620   0.33610   0.20350   0.01267  Uiso   1.00
H189   H     0.32480   0.65090   0.92330   0.01267  Uiso   1.00
H190   H     0.29990   0.68860   0.93610   0.01267  Uiso   1.00
H191   H     0.43810   0.67980   0.05410   0.01267  Uiso   1.00
H192   H     0.52380   0.72730   0.85990   0.01267  Uiso   1.00
H193   H     0.85610   0.22930   0.37320   0.01267  Uiso   1.00
H194   H     0.85610   0.48290   0.62680   0.01267  Uiso   1.00
H195   H     0.14390   0.77070   0.62680   0.01267  Uiso   1.00
H196   H     0.14390   0.51710   0.37320   0.01267  Uiso   1.00
H197   H     0.62680   0.14390   0.77070   0.01267  Uiso   1.00
H198   H     0.37320   0.14390   0.51710   0.01267  Uiso   1.00
H199   H     0.37320   0.85610   0.22930   0.01267  Uiso   1.00
H200   H     0.62680   0.85610   0.48290   0.01267  Uiso   1.00
H201   H     0.48290   0.62680   0.85610   0.01267  Uiso   1.00
H202   H     0.22930   0.37320   0.85610   0.01267  Uiso   1.00
H203   H     0.51710   0.37320   0.14390   0.01267  Uiso   1.00
H204   H     0.77070   0.62680   0.14390   0.01267  Uiso   1.00
H205   H     0.77070   0.14390   0.62680   0.01267  Uiso   1.00
H206   H     0.51710   0.14390   0.37320   0.01267  Uiso   1.00
H207   H     0.22930   0.85610   0.37320   0.01267  Uiso   1.00
H208   H     0.48290   0.85610   0.62680   0.01267  Uiso   1.00
H209   H     0.85610   0.37320   0.22930   0.01267  Uiso   1.00
H210   H     0.85610   0.62680   0.48290   0.01267  Uiso   1.00
H211   H     0.14390   0.62680   0.77070   0.01267  Uiso   1.00
H212   H     0.14390   0.37320   0.51710   0.01267  Uiso   1.00
H213   H     0.37320   0.51710   0.14390   0.01267  Uiso   1.00
H214   H     0.62680   0.77070   0.14390   0.01267  Uiso   1.00
H215   H     0.62680   0.48290   0.85610   0.01267  Uiso   1.00
H216   H     0.37320   0.22930   0.85610   0.01267  Uiso   1.00
H217   H     0.63260   0.11420   1.00000   0.01267  Uiso   1.00
H218   H     0.11420   0.63260  -0.00000   0.01267  Uiso   1.00
H219   H     0.88580   0.88580   0.51840   0.01267  Uiso   1.00
H220   H     0.36740   0.36740   0.48160   0.01267  Uiso   1.00
H221   H     0.51840   0.88580   0.88580   0.01267  Uiso   1.00
H222   H     0.48160   0.36740   0.36740   0.01267  Uiso   1.00
H223   H     0.00000   0.63260   0.11420   0.01267  Uiso   1.00
H224   H     1.00000   0.11420   0.63260   0.01267  Uiso   1.00
H225   H     0.63260   0.00000   0.11420   0.01267  Uiso   1.00
H226   H     0.11420   0.00000   0.63260   0.01267  Uiso   1.00
H227   H     0.36740   0.48160   0.36740   0.01267  Uiso   1.00
H228   H     0.88580   0.51840   0.88580   0.01267  Uiso   1.00
H229   H     0.88580   0.36740  -0.00000   0.01267  Uiso   1.00
H230   H     0.36740   0.88580   1.00000   0.01267  Uiso   1.00
H231   H     0.11420   0.11420   0.48160   0.01267  Uiso   1.00
H232   H     0.63260   0.63260   0.51840   0.01267  Uiso   1.00
H233   H     0.11420   0.48160   0.11420   0.01267  Uiso   1.00
H234   H     0.63260   0.51840   0.63260   0.01267  Uiso   1.00
H235   H     0.36740   0.00000   0.88580   0.01267  Uiso   1.00
H236   H     0.88580   0.00000   0.36740   0.01267  Uiso   1.00
H237   H     0.00000   0.36740   0.88580   0.01267  Uiso   1.00
H238   H     0.00000   0.88580   0.36740   0.01267  Uiso   1.00
H239   H     0.51840   0.63260   0.63260   0.01267  Uiso   1.00
H240   H     0.48160   0.11420   0.11420   0.01267  Uiso   1.00
C1     C     0.64670   0.33050   0.28040   0.01267  Uiso   1.00
C2     C     0.78170   0.25180   0.32450   0.01267  Uiso   1.00
C3     C     0.81810   0.27240   0.38410   0.01267  Uiso   1.00
C4     C     0.81542   0.31060   0.42382   0.01267  Uiso   1.00
C5     C     0.78155   0.33290   0.41105   0.01267  Uiso   1.00
C6     C     0.70810   0.18416   0.09786   0.01267  Uiso   1.00
C7     C     0.70697   0.18133   0.04902   0.01267  Uiso   1.00
C8     C     0.74580   0.22180   0.05022   0.01267  Uiso   1.00
C9     C     0.79268   0.26879   0.09909   0.01267  Uiso   1.00
C10    C     0.05010   0.36630   0.71960   0.01267  Uiso   1.00
C11    C     0.92730   0.45720   0.67550   0.01267  Uiso   1.00
C12    C     0.88830   0.43400   0.61590   0.01267  Uiso   1.00
C13    C     0.88678   0.39160   0.57618   0.01267  Uiso   1.00
C14    C     0.92185   0.37050   0.58895   0.01267  Uiso   1.00
C15    C     0.08630   0.61024   0.90214   0.01267  Uiso   1.00
C16    C     0.13231   0.65795   0.95098   0.01267  Uiso   1.00
C17    C     0.17158   0.69558   0.94978   0.01267  Uiso   1.00
C18    C     0.16970   0.69359   0.90091   0.01267  Uiso   1.00
C19    C     0.94990   0.66950   0.31620   0.01267  Uiso   1.00
C20    C     0.07270   0.74820   0.52990   0.01267  Uiso   1.00
C21    C     0.11170   0.72760   0.54570   0.01267  Uiso   1.00
C22    C     0.11322   0.68940   0.50482   0.01267  Uiso   1.00
C23    C     0.07815   0.66710   0.44865   0.01267  Uiso   1.00
C24    C     0.91370   0.81584   0.52394   0.01267  Uiso   1.00
C25    C     0.86769   0.81867   0.52564   0.01267  Uiso   1.00
C26    C     0.82842   0.77820   0.52400   0.01267  Uiso   1.00
C27    C     0.83030   0.73121   0.52389   0.01267  Uiso   1.00
C28    C     0.35330   0.63370   0.68380   0.01267  Uiso   1.00
C29    C     0.21830   0.54280   0.47010   0.01267  Uiso   1.00
C30    C     0.18190   0.56600   0.45430   0.01267  Uiso   1.00
C31    C     0.18458   0.60840   0.49518   0.01267  Uiso   1.00
C32    C     0.21845   0.62950   0.55135   0.01267  Uiso   1.00
C33    C     0.29190   0.38976   0.47606   0.01267  Uiso   1.00
C34    C     0.29303   0.34205   0.47436   0.01267  Uiso   1.00
C35    C     0.25420   0.30442   0.47600   0.01267  Uiso   1.00
C36    C     0.20732   0.30641   0.47611   0.01267  Uiso   1.00
C37    C     0.31620   0.94990   0.66950   0.01267  Uiso   1.00
C38    C     0.52990   0.07270   0.74820   0.01267  Uiso   1.00
C39    C     0.54570   0.11170   0.72760   0.01267  Uiso   1.00
C40    C     0.50482   0.11322   0.68940   0.01267  Uiso   1.00
C41    C     0.44865   0.07815   0.66710   0.01267  Uiso   1.00
C42    C     0.52394   0.91370   0.81584   0.01267  Uiso   1.00
C43    C     0.52564   0.86769   0.81867   0.01267  Uiso   1.00
C44    C     0.52400   0.82842   0.77820   0.01267  Uiso   1.00
C45    C     0.52389   0.83030   0.73121   0.01267  Uiso   1.00
C46    C     0.68380   0.35330   0.63370   0.01267  Uiso   1.00
C47    C     0.47010   0.21830   0.54280   0.01267  Uiso   1.00
C48    C     0.45430   0.18190   0.56600   0.01267  Uiso   1.00
C49    C     0.49518   0.18458   0.60840   0.01267  Uiso   1.00
C50    C     0.55135   0.21845   0.62950   0.01267  Uiso   1.00
C51    C     0.47606   0.29190   0.38976   0.01267  Uiso   1.00
C52    C     0.47436   0.29303   0.34205   0.01267  Uiso   1.00
C53    C     0.47600   0.25420   0.30442   0.01267  Uiso   1.00
C54    C     0.47611   0.20732   0.30641   0.01267  Uiso   1.00
C55    C     0.28040   0.64670   0.33050   0.01267  Uiso   1.00
C56    C     0.32450   0.78170   0.25180   0.01267  Uiso   1.00
C57    C     0.38410   0.81810   0.27240   0.01267  Uiso   1.00
C58    C     0.42382   0.81542   0.31060   0.01267  Uiso   1.00
C59    C     0.41105   0.78155   0.33290   0.01267  Uiso   1.00
C60    C     0.09786   0.70810   0.18416   0.01267  Uiso   1.00
C61    C     0.04902   0.70697   0.18133   0.01267  Uiso   1.00
C62    C     0.05022   0.74580   0.22180   0.01267  Uiso   1.00
C63    C     0.09909   0.79268   0.26879   0.01267  Uiso   1.00
C64    C     0.71960   0.05010   0.36630   0.01267  Uiso   1.00
C65    C     0.67550   0.92730   0.45720   0.01267  Uiso   1.00
C66    C     0.61590   0.88830   0.43400   0.01267  Uiso   1.00
C67    C     0.57618   0.88678   0.39160   0.01267  Uiso   1.00
C68    C     0.58895   0.92185   0.37050   0.01267  Uiso   1.00
C69    C     0.90214   0.08630   0.61024   0.01267  Uiso   1.00
C70    C     0.95098   0.13231   0.65795   0.01267  Uiso   1.00
C71    C     0.94978   0.17158   0.69558   0.01267  Uiso   1.00
C72    C     0.90091   0.16970   0.69359   0.01267  Uiso   1.00
C73    C     0.36630   0.71960   0.05010   0.01267  Uiso   1.00
C74    C     0.45720   0.67550   0.92730   0.01267  Uiso   1.00
C75    C     0.43400   0.61590   0.88830   0.01267  Uiso   1.00
C76    C     0.39160   0.57618   0.88678   0.01267  Uiso   1.00
C77    C     0.37050   0.58895   0.92185   0.01267  Uiso   1.00
C78    C     0.61024   0.90214   0.08630   0.01267  Uiso   1.00
C79    C     0.65795   0.95098   0.13231   0.01267  Uiso   1.00
C80    C     0.69558   0.94978   0.17158   0.01267  Uiso   1.00
C81    C     0.69359   0.90091   0.16970   0.01267  Uiso   1.00
C82    C     0.33050   0.28040   0.64670   0.01267  Uiso   1.00
C83    C     0.25180   0.32450   0.78170   0.01267  Uiso   1.00
C84    C     0.27240   0.38410   0.81810   0.01267  Uiso   1.00
C85    C     0.31060   0.42382   0.81542   0.01267  Uiso   1.00
C86    C     0.33290   0.41105   0.78155   0.01267  Uiso   1.00
C87    C     0.18416   0.09786   0.70810   0.01267  Uiso   1.00
C88    C     0.18133   0.04902   0.70697   0.01267  Uiso   1.00
C89    C     0.22180   0.05022   0.74580   0.01267  Uiso   1.00
C90    C     0.26879   0.09909   0.79268   0.01267  Uiso   1.00
C91    C     0.63370   0.68380   0.35330   0.01267  Uiso   1.00
C92    C     0.54280   0.47010   0.21830   0.01267  Uiso   1.00
C93    C     0.56600   0.45430   0.18190   0.01267  Uiso   1.00
C94    C     0.60840   0.49518   0.18458   0.01267  Uiso   1.00
C95    C     0.62950   0.55135   0.21845   0.01267  Uiso   1.00
C96    C     0.38976   0.47606   0.29190   0.01267  Uiso   1.00
C97    C     0.34205   0.47436   0.29303   0.01267  Uiso   1.00
C98    C     0.30442   0.47600   0.25420   0.01267  Uiso   1.00
C99    C     0.30641   0.47611   0.20732   0.01267  Uiso   1.00
C100   C     0.66950   0.31620   0.94990   0.01267  Uiso   1.00
C101   C     0.74820   0.52990   0.07270   0.01267  Uiso   1.00
C102   C     0.72760   0.54570   0.11170   0.01267  Uiso   1.00
C103   C     0.68940   0.50482   0.11322   0.01267  Uiso   1.00
C104   C     0.66710   0.44865   0.07815   0.01267  Uiso   1.00
C105   C     0.81584   0.52394   0.91370   0.01267  Uiso   1.00
C106   C     0.81867   0.52564   0.86769   0.01267  Uiso   1.00
C107   C     0.77820   0.52400   0.82842   0.01267  Uiso   1.00
C108   C     0.73121   0.52389   0.83030   0.01267  Uiso   1.00
C109   C     0.66950   0.35330   0.71960   0.01267  Uiso   1.00
C110   C     0.74820   0.21830   0.67550   0.01267  Uiso   1.00
C111   C     0.72760   0.18190   0.61590   0.01267  Uiso   1.00
C112   C     0.68940   0.18458   0.57618   0.01267  Uiso   1.00
C113   C     0.66710   0.21845   0.58895   0.01267  Uiso   1.00
C114   C     0.81584   0.29190   0.90214   0.01267  Uiso   1.00
C115   C     0.81867   0.29303   0.95098   0.01267  Uiso   1.00
C116   C     0.77820   0.25420   0.94978   0.01267  Uiso   1.00
C117   C     0.73121   0.20732   0.90091   0.01267  Uiso   1.00
C118   C     0.63370   0.94990   0.28040   0.01267  Uiso   1.00
C119   C     0.54280   0.07270   0.32450   0.01267  Uiso   1.00
C120   C     0.56600   0.11170   0.38410   0.01267  Uiso   1.00
C121   C     0.60840   0.11322   0.42382   0.01267  Uiso   1.00
C122   C     0.62950   0.07815   0.41105   0.01267  Uiso   1.00
C123   C     0.38976   0.91370   0.09786   0.01267  Uiso   1.00
C124   C     0.34205   0.86769   0.04902   0.01267  Uiso   1.00
C125   C     0.30442   0.82842   0.05022   0.01267  Uiso   1.00
C126   C     0.30641   0.83030   0.09909   0.01267  Uiso   1.00
C127   C     0.33050   0.05010   0.68380   0.01267  Uiso   1.00
C128   C     0.25180   0.92730   0.47010   0.01267  Uiso   1.00
C129   C     0.27240   0.88830   0.45430   0.01267  Uiso   1.00
C130   C     0.31060   0.88678   0.49518   0.01267  Uiso   1.00
C131   C     0.33290   0.92185   0.55135   0.01267  Uiso   1.00
C132   C     0.18416   0.08630   0.47606   0.01267  Uiso   1.00
C133   C     0.18133   0.13231   0.47436   0.01267  Uiso   1.00
C134   C     0.22180   0.17158   0.47600   0.01267  Uiso   1.00
C135   C     0.26879   0.16970   0.47611   0.01267  Uiso   1.00
C136   C     0.36630   0.64670   0.31620   0.01267  Uiso   1.00
C137   C     0.45720   0.78170   0.52990   0.01267  Uiso   1.00
C138   C     0.43400   0.81810   0.54570   0.01267  Uiso   1.00
C139   C     0.39160   0.81542   0.50482   0.01267  Uiso   1.00
C140   C     0.37050   0.78155   0.44865   0.01267  Uiso   1.00
C141   C     0.61024   0.70810   0.52394   0.01267  Uiso   1.00
C142   C     0.65795   0.70697   0.52564   0.01267  Uiso   1.00
C143   C     0.69558   0.74580   0.52400   0.01267  Uiso   1.00
C144   C     0.69359   0.79268   0.52389   0.01267  Uiso   1.00
C145   C     0.05010   0.68380   0.33050   0.01267  Uiso   1.00
C146   C     0.92730   0.47010   0.25180   0.01267  Uiso   1.00
C147   C     0.88830   0.45430   0.27240   0.01267  Uiso   1.00
C148   C     0.88678   0.49518   0.31060   0.01267  Uiso   1.00
C149   C     0.92185   0.55135   0.33290   0.01267  Uiso   1.00
C150   C     0.08630   0.47606   0.18416   0.01267  Uiso   1.00
C151   C     0.13231   0.47436   0.18133   0.01267  Uiso   1.00
C152   C     0.17158   0.47600   0.22180   0.01267  Uiso   1.00
C153   C     0.16970   0.47611   0.26879   0.01267  Uiso   1.00
C154   C     0.64670   0.31620   0.36630   0.01267  Uiso   1.00
C155   C     0.78170   0.52990   0.45720   0.01267  Uiso   1.00
C156   C     0.81810   0.54570   0.43400   0.01267  Uiso   1.00
C157   C     0.81542   0.50482   0.39160   0.01267  Uiso   1.00
C158   C     0.78155   0.44865   0.37050   0.01267  Uiso   1.00
C159   C     0.70810   0.52394   0.61024   0.01267  Uiso   1.00
C160   C     0.70697   0.52564   0.65795   0.01267  Uiso   1.00
C161   C     0.74580   0.52400   0.69558   0.01267  Uiso   1.00
C162   C     0.79268   0.52389   0.69359   0.01267  Uiso   1.00
C163   C     0.35330   0.71960   0.66950   0.01267  Uiso   1.00
C164   C     0.21830   0.67550   0.74820   0.01267  Uiso   1.00
C165   C     0.18190   0.61590   0.72760   0.01267  Uiso   1.00
C166   C     0.18458   0.57618   0.68940   0.01267  Uiso   1.00
C167   C     0.21845   0.58895   0.66710   0.01267  Uiso   1.00
C168   C     0.29190   0.90214   0.81584   0.01267  Uiso   1.00
C169   C     0.29303   0.95098   0.81867   0.01267  Uiso   1.00
C170   C     0.25420   0.94978   0.77820   0.01267  Uiso   1.00
C171   C     0.20732   0.90091   0.73121   0.01267  Uiso   1.00
C172   C     0.94990   0.28040   0.63370   0.01267  Uiso   1.00
C173   C     0.07270   0.32450   0.54280   0.01267  Uiso   1.00
C174   C     0.11170   0.38410   0.56600   0.01267  Uiso   1.00
C175   C     0.11322   0.42382   0.60840   0.01267  Uiso   1.00
C176   C     0.07815   0.41105   0.62950   0.01267  Uiso   1.00
C177   C     0.91370   0.09786   0.38976   0.01267  Uiso   1.00
C178   C     0.86769   0.04902   0.34205   0.01267  Uiso   1.00
C179   C     0.82842   0.05022   0.30442   0.01267  Uiso   1.00
C180   C     0.83030   0.09909   0.30641   0.01267  Uiso   1.00
C181   C     0.28040   0.63370   0.94990   0.01267  Uiso   1.00
C182   C     0.32450   0.54280   0.07270   0.01267  Uiso   1.00
C183   C     0.38410   0.56600   0.11170   0.01267  Uiso   1.00
C184   C     0.42382   0.60840   0.11322   0.01267  Uiso   1.00
C185   C     0.41105   0.62950   0.07815   0.01267  Uiso   1.00
C186   C     0.09786   0.38976   0.91370   0.01267  Uiso   1.00
C187   C     0.04902   0.34205   0.86769   0.01267  Uiso   1.00
C188   C     0.05022   0.30442   0.82842   0.01267  Uiso   1.00
C189   C     0.09909   0.30641   0.83030   0.01267  Uiso   1.00
C190   C     0.71960   0.66950   0.35330   0.01267  Uiso   1.00
C191   C     0.67550   0.74820   0.21830   0.01267  Uiso   1.00
C192   C     0.61590   0.72760   0.18190   0.01267  Uiso   1.00
C193   C     0.57618   0.68940   0.18458   0.01267  Uiso   1.00
C194   C     0.58895   0.66710   0.21845   0.01267  Uiso   1.00
C195   C     0.90214   0.81584   0.29190   0.01267  Uiso   1.00
C196   C     0.95098   0.81867   0.29303   0.01267  Uiso   1.00
C197   C     0.94978   0.77820   0.25420   0.01267  Uiso   1.00
C198   C     0.90091   0.73121   0.20732   0.01267  Uiso   1.00
C199   C     0.31620   0.36630   0.64670   0.01267  Uiso   1.00
C200   C     0.52990   0.45720   0.78170   0.01267  Uiso   1.00
C201   C     0.54570   0.43400   0.81810   0.01267  Uiso   1.00
C202   C     0.50482   0.39160   0.81542   0.01267  Uiso   1.00
C203   C     0.44865   0.37050   0.78155   0.01267  Uiso   1.00
C204   C     0.52394   0.61024   0.70810   0.01267  Uiso   1.00
C205   C     0.52564   0.65795   0.70697   0.01267  Uiso   1.00
C206   C     0.52400   0.69558   0.74580   0.01267  Uiso   1.00
C207   C     0.52389   0.69359   0.79268   0.01267  Uiso   1.00
C208   C     0.68380   0.33050   0.05010   0.01267  Uiso   1.00
C209   C     0.47010   0.25180   0.92730   0.01267  Uiso   1.00
C210   C     0.45430   0.27240   0.88830   0.01267  Uiso   1.00
C211   C     0.49518   0.31060   0.88678   0.01267  Uiso   1.00
C212   C     0.55135   0.33290   0.92185   0.01267  Uiso   1.00
C213   C     0.47606   0.18416   0.08630   0.01267  Uiso   1.00
C214   C     0.47436   0.18133   0.13231   0.01267  Uiso   1.00
C215   C     0.47600   0.22180   0.17158   0.01267  Uiso   1.00
C216   C     0.47611   0.26879   0.16970   0.01267  Uiso   1.00
C217   C     0.35330   0.66950   0.71960   0.01267  Uiso   1.00
C218   C     0.21830   0.74820   0.67550   0.01267  Uiso   1.00
C219   C     0.18190   0.72760   0.61590   0.01267  Uiso   1.00
C220   C     0.18458   0.68940   0.57618   0.01267  Uiso   1.00
C221   C     0.21845   0.66710   0.58895   0.01267  Uiso   1.00
C222   C     0.29190   0.81584   0.90214   0.01267  Uiso   1.00
C223   C     0.29303   0.81867   0.95098   0.01267  Uiso   1.00
C224   C     0.25420   0.77820   0.94978   0.01267  Uiso   1.00
C225   C     0.20732   0.73121   0.90091   0.01267  Uiso   1.00
C226   C     0.94990   0.63370   0.28040   0.01267  Uiso   1.00
C227   C     0.07270   0.54280   0.32450   0.01267  Uiso   1.00
C228   C     0.11170   0.56600   0.38410   0.01267  Uiso   1.00
C229   C     0.11322   0.60840   0.42382   0.01267  Uiso   1.00
C230   C     0.07815   0.62950   0.41105   0.01267  Uiso   1.00
C231   C     0.91370   0.38976   0.09786   0.01267  Uiso   1.00
C232   C     0.86769   0.34205   0.04902   0.01267  Uiso   1.00
C233   C     0.82842   0.30442   0.05022   0.01267  Uiso   1.00
C234   C     0.83030   0.30641   0.09909   0.01267  Uiso   1.00
C235   C     0.05010   0.33050   0.68380   0.01267  Uiso   1.00
C236   C     0.92730   0.25180   0.47010   0.01267  Uiso   1.00
C237   C     0.88830   0.27240   0.45430   0.01267  Uiso   1.00
C238   C     0.88678   0.31060   0.49518   0.01267  Uiso   1.00
C239   C     0.92185   0.33290   0.55135   0.01267  Uiso   1.00
C240   C     0.08630   0.18416   0.47606   0.01267  Uiso   1.00
C241   C     0.13231   0.18133   0.47436   0.01267  Uiso   1.00
C242   C     0.17158   0.22180   0.47600   0.01267  Uiso   1.00
C243   C     0.16970   0.26879   0.47611   0.01267  Uiso   1.00
C244   C     0.64670   0.36630   0.31620   0.01267  Uiso   1.00
C245   C     0.78170   0.45720   0.52990   0.01267  Uiso   1.00
C246   C     0.81810   0.43400   0.54570   0.01267  Uiso   1.00
C247   C     0.81542   0.39160   0.50482   0.01267  Uiso   1.00
C248   C     0.78155   0.37050   0.44865   0.01267  Uiso   1.00
C249   C     0.70810   0.61024   0.52394   0.01267  Uiso   1.00
C250   C     0.70697   0.65795   0.52564   0.01267  Uiso   1.00
C251   C     0.74580   0.69558   0.52400   0.01267  Uiso   1.00
C252   C     0.79268   0.69359   0.52389   0.01267  Uiso   1.00
C253   C     0.68380   0.05010   0.33050   0.01267  Uiso   1.00
C254   C     0.47010   0.92730   0.25180   0.01267  Uiso   1.00
C255   C     0.45430   0.88830   0.27240   0.01267  Uiso   1.00
C256   C     0.49518   0.88678   0.31060   0.01267  Uiso   1.00
C257   C     0.55135   0.92185   0.33290   0.01267  Uiso   1.00
C258   C     0.47606   0.08630   0.18416   0.01267  Uiso   1.00
C259   C     0.47436   0.13231   0.18133   0.01267  Uiso   1.00
C260   C     0.47600   0.17158   0.22180   0.01267  Uiso   1.00
C261   C     0.47611   0.16970   0.26879   0.01267  Uiso   1.00
C262   C     0.31620   0.64670   0.36630   0.01267  Uiso   1.00
C263   C     0.52990   0.78170   0.45720   0.01267  Uiso   1.00
C264   C     0.54570   0.81810   0.43400   0.01267  Uiso   1.00
C265   C     0.50482   0.81542   0.39160   0.01267  Uiso   1.00
C266   C     0.44865   0.78155   0.37050   0.01267  Uiso   1.00
C267   C     0.52394   0.70810   0.61024   0.01267  Uiso   1.00
C268   C     0.52564   0.70697   0.65795   0.01267  Uiso   1.00
C269   C     0.52400   0.74580   0.69558   0.01267  Uiso   1.00
C270   C     0.52389   0.79268   0.69359   0.01267  Uiso   1.00
C271   C     0.71960   0.35330   0.66950   0.01267  Uiso   1.00
C272   C     0.67550   0.21830   0.74820   0.01267  Uiso   1.00
C273   C     0.61590   0.18190   0.72760   0.01267  Uiso   1.00
C274   C     0.57618   0.18458   0.68940   0.01267  Uiso   1.00
C275   C     0.58895   0.21845   0.66710   0.01267  Uiso   1.00
C276   C     0.90214   0.29190   0.81584   0.01267  Uiso   1.00
C277   C     0.95098   0.29303   0.81867   0.01267  Uiso   1.00
C278   C     0.94978   0.25420   0.77820   0.01267  Uiso   1.00
C279   C     0.90091   0.20732   0.73121   0.01267  Uiso   1.00
C280   C     0.28040   0.94990   0.63370   0.01267  Uiso   1.00
C281   C     0.32450   0.07270   0.54280   0.01267  Uiso   1.00
C282   C     0.38410   0.11170   0.56600   0.01267  Uiso   1.00
C283   C     0.42382   0.11322   0.60840   0.01267  Uiso   1.00
C284   C     0.41105   0.07815   0.62950   0.01267  Uiso   1.00
C285   C     0.09786   0.91370   0.38976   0.01267  Uiso   1.00
C286   C     0.04902   0.86769   0.34205   0.01267  Uiso   1.00
C287   C     0.05022   0.82842   0.30442   0.01267  Uiso   1.00
C288   C     0.09909   0.83030   0.30641   0.01267  Uiso   1.00
C289   C     0.63370   0.28040   0.94990   0.01267  Uiso   1.00
C290   C     0.54280   0.32450   0.07270   0.01267  Uiso   1.00
C291   C     0.56600   0.38410   0.11170   0.01267  Uiso   1.00
C292   C     0.60840   0.42382   0.11322   0.01267  Uiso   1.00
C293   C     0.62950   0.41105   0.07815   0.01267  Uiso   1.00
C294   C     0.38976   0.09786   0.91370   0.01267  Uiso   1.00
C295   C     0.34205   0.04902   0.86769   0.01267  Uiso   1.00
C296   C     0.30442   0.05022   0.82842   0.01267  Uiso   1.00
C297   C     0.30641   0.09909   0.83030   0.01267  Uiso   1.00
C298   C     0.66950   0.71960   0.35330   0.01267  Uiso   1.00
C299   C     0.74820   0.67550   0.21830   0.01267  Uiso   1.00
C300   C     0.72760   0.61590   0.18190   0.01267  Uiso   1.00
C301   C     0.68940   0.57618   0.18458   0.01267  Uiso   1.00
C302   C     0.66710   0.58895   0.21845   0.01267  Uiso   1.00
C303   C     0.81584   0.90214   0.29190   0.01267  Uiso   1.00
C304   C     0.81867   0.95098   0.29303   0.01267  Uiso   1.00
C305   C     0.77820   0.94978   0.25420   0.01267  Uiso   1.00
C306   C     0.73121   0.90091   0.20732   0.01267  Uiso   1.00
C307   C     0.36630   0.31620   0.64670   0.01267  Uiso   1.00
C308   C     0.45720   0.52990   0.78170   0.01267  Uiso   1.00
C309   C     0.43400   0.54570   0.81810   0.01267  Uiso   1.00
C310   C     0.39160   0.50482   0.81542   0.01267  Uiso   1.00
C311   C     0.37050   0.44865   0.78155   0.01267  Uiso   1.00
C312   C     0.61024   0.52394   0.70810   0.01267  Uiso   1.00
C313   C     0.65795   0.52564   0.70697   0.01267  Uiso   1.00
C314   C     0.69558   0.52400   0.74580   0.01267  Uiso   1.00
C315   C     0.69359   0.52389   0.79268   0.01267  Uiso   1.00
C316   C     0.33050   0.68380   0.05010   0.01267  Uiso   1.00
C317   C     0.25180   0.47010   0.92730   0.01267  Uiso   1.00
C318   C     0.27240   0.45430   0.88830   0.01267  Uiso   1.00
C319   C     0.31060   0.49518   0.88678   0.01267  Uiso   1.00
C320   C     0.33290   0.55135   0.92185   0.01267  Uiso   1.00
C321   C     0.18416   0.47606   0.08630   0.01267  Uiso   1.00
C322   C     0.18133   0.47436   0.13231   0.01267  Uiso   1.00
C323   C     0.22180   0.47600   0.17158   0.01267  Uiso   1.00
C324   C     0.26879   0.47611   0.16970   0.01267  Uiso   1.00
C325   C     0.33050   0.64670   0.28040   0.01267  Uiso   1.00
C326   C     0.25180   0.78170   0.32450   0.01267  Uiso   1.00
C327   C     0.27240   0.81810   0.38410   0.01267  Uiso   1.00
C328   C     0.31060   0.81542   0.42382   0.01267  Uiso   1.00
C329   C     0.33290   0.78155   0.41105   0.01267  Uiso   1.00
C330   C     0.18416   0.70810   0.09786   0.01267  Uiso   1.00
C331   C     0.18133   0.70697   0.04902   0.01267  Uiso   1.00
C332   C     0.22180   0.74580   0.05022   0.01267  Uiso   1.00
C333   C     0.26879   0.79268   0.09909   0.01267  Uiso   1.00
C334   C     0.36630   0.05010   0.71960   0.01267  Uiso   1.00
C335   C     0.45720   0.92730   0.67550   0.01267  Uiso   1.00
C336   C     0.43400   0.88830   0.61590   0.01267  Uiso   1.00
C337   C     0.39160   0.88678   0.57618   0.01267  Uiso   1.00
C338   C     0.37050   0.92185   0.58895   0.01267  Uiso   1.00
C339   C     0.61024   0.08630   0.90214   0.01267  Uiso   1.00
C340   C     0.65795   0.13231   0.95098   0.01267  Uiso   1.00
C341   C     0.69558   0.17158   0.94978   0.01267  Uiso   1.00
C342   C     0.69359   0.16970   0.90091   0.01267  Uiso   1.00
C343   C     0.66950   0.94990   0.31620   0.01267  Uiso   1.00
C344   C     0.74820   0.07270   0.52990   0.01267  Uiso   1.00
C345   C     0.72760   0.11170   0.54570   0.01267  Uiso   1.00
C346   C     0.68940   0.11322   0.50482   0.01267  Uiso   1.00
C347   C     0.66710   0.07815   0.44865   0.01267  Uiso   1.00
C348   C     0.81584   0.91370   0.52394   0.01267  Uiso   1.00
C349   C     0.81867   0.86769   0.52564   0.01267  Uiso   1.00
C350   C     0.77820   0.82842   0.52400   0.01267  Uiso   1.00
C351   C     0.73121   0.83030   0.52389   0.01267  Uiso   1.00
C352   C     0.63370   0.35330   0.68380   0.01267  Uiso   1.00
C353   C     0.54280   0.21830   0.47010   0.01267  Uiso   1.00
C354   C     0.56600   0.18190   0.45430   0.01267  Uiso   1.00
C355   C     0.60840   0.18458   0.49518   0.01267  Uiso   1.00
C356   C     0.62950   0.21845   0.55135   0.01267  Uiso   1.00
C357   C     0.38976   0.29190   0.47606   0.01267  Uiso   1.00
C358   C     0.34205   0.29303   0.47436   0.01267  Uiso   1.00
C359   C     0.30442   0.25420   0.47600   0.01267  Uiso   1.00
C360   C     0.30641   0.20732   0.47611   0.01267  Uiso   1.00
C361   C     0.94990   0.31620   0.66950   0.01267  Uiso   1.00
C362   C     0.07270   0.52990   0.74820   0.01267  Uiso   1.00
C363   C     0.11170   0.54570   0.72760   0.01267  Uiso   1.00
C364   C     0.11322   0.50482   0.68940   0.01267  Uiso   1.00
C365   C     0.07815   0.44865   0.66710   0.01267  Uiso   1.00
C366   C     0.91370   0.52394   0.81584   0.01267  Uiso   1.00
C367   C     0.86769   0.52564   0.81867   0.01267  Uiso   1.00
C368   C     0.82842   0.52400   0.77820   0.01267  Uiso   1.00
C369   C     0.83030   0.52389   0.73121   0.01267  Uiso   1.00
C370   C     0.35330   0.68380   0.63370   0.01267  Uiso   1.00
C371   C     0.21830   0.47010   0.54280   0.01267  Uiso   1.00
C372   C     0.18190   0.45430   0.56600   0.01267  Uiso   1.00
C373   C     0.18458   0.49518   0.60840   0.01267  Uiso   1.00
C374   C     0.21845   0.55135   0.62950   0.01267  Uiso   1.00
C375   C     0.29190   0.47606   0.38976   0.01267  Uiso   1.00
C376   C     0.29303   0.47436   0.34205   0.01267  Uiso   1.00
C377   C     0.25420   0.47600   0.30442   0.01267  Uiso   1.00
C378   C     0.20732   0.47611   0.30641   0.01267  Uiso   1.00
C379   C     0.64670   0.28040   0.33050   0.01267  Uiso   1.00
C380   C     0.78170   0.32450   0.25180   0.01267  Uiso   1.00
C381   C     0.81810   0.38410   0.27240   0.01267  Uiso   1.00
C382   C     0.81542   0.42382   0.31060   0.01267  Uiso   1.00
C383   C     0.78155   0.41105   0.33290   0.01267  Uiso   1.00
C384   C     0.70810   0.09786   0.18416   0.01267  Uiso   1.00
C385   C     0.70697   0.04902   0.18133   0.01267  Uiso   1.00
C386   C     0.74580   0.05022   0.22180   0.01267  Uiso   1.00
C387   C     0.79268   0.09909   0.26879   0.01267  Uiso   1.00
C388   C     0.05010   0.71960   0.36630   0.01267  Uiso   1.00
C389   C     0.92730   0.67550   0.45720   0.01267  Uiso   1.00
C390   C     0.88830   0.61590   0.43400   0.01267  Uiso   1.00
C391   C     0.88678   0.57618   0.39160   0.01267  Uiso   1.00
C392   C     0.92185   0.58895   0.37050   0.01267  Uiso   1.00
C393   C     0.08630   0.90214   0.61024   0.01267  Uiso   1.00
C394   C     0.13231   0.95098   0.65795   0.01267  Uiso   1.00
C395   C     0.17158   0.94978   0.69558   0.01267  Uiso   1.00
C396   C     0.16970   0.90091   0.69359   0.01267  Uiso   1.00
C397   C     0.71960   0.36630   0.05010   0.01267  Uiso   1.00
C398   C     0.67550   0.45720   0.92730   0.01267  Uiso   1.00
C399   C     0.61590   0.43400   0.88830   0.01267  Uiso   1.00
C400   C     0.57618   0.39160   0.88678   0.01267  Uiso   1.00
C401   C     0.58895   0.37050   0.92185   0.01267  Uiso   1.00
C402   C     0.90214   0.61024   0.08630   0.01267  Uiso   1.00
C403   C     0.95098   0.65795   0.13231   0.01267  Uiso   1.00
C404   C     0.94978   0.69558   0.17158   0.01267  Uiso   1.00
C405   C     0.90091   0.69359   0.16970   0.01267  Uiso   1.00
C406   C     0.28040   0.33050   0.64670   0.01267  Uiso   1.00
C407   C     0.32450   0.25180   0.78170   0.01267  Uiso   1.00
C408   C     0.38410   0.27240   0.81810   0.01267  Uiso   1.00
C409   C     0.42382   0.31060   0.81542   0.01267  Uiso   1.00
C410   C     0.41105   0.33290   0.78155   0.01267  Uiso   1.00
C411   C     0.09786   0.18416   0.70810   0.01267  Uiso   1.00
C412   C     0.04902   0.18133   0.70697   0.01267  Uiso   1.00
C413   C     0.05022   0.22180   0.74580   0.01267  Uiso   1.00
C414   C     0.09909   0.26879   0.79268   0.01267  Uiso   1.00
C415   C     0.68380   0.63370   0.35330   0.01267  Uiso   1.00
C416   C     0.47010   0.54280   0.21830   0.01267  Uiso   1.00
C417   C     0.45430   0.56600   0.18190   0.01267  Uiso   1.00
C418   C     0.49518   0.60840   0.18458   0.01267  Uiso   1.00
C419   C     0.55135   0.62950   0.21845   0.01267  Uiso   1.00
C420   C     0.47606   0.38976   0.29190   0.01267  Uiso   1.00
C421   C     0.47436   0.34205   0.29303   0.01267  Uiso   1.00
C422   C     0.47600   0.30442   0.25420   0.01267  Uiso   1.00
C423   C     0.47611   0.30641   0.20732   0.01267  Uiso   1.00
C424   C     0.31620   0.66950   0.94990   0.01267  Uiso   1.00
C425   C     0.52990   0.74820   0.07270   0.01267  Uiso   1.00
C426   C     0.54570   0.72760   0.11170   0.01267  Uiso   1.00
C427   C     0.50482   0.68940   0.11322   0.01267  Uiso   1.00
C428   C     0.44865   0.66710   0.07815   0.01267  Uiso   1.00
C429   C     0.52394   0.81584   0.91370   0.01267  Uiso   1.00
C430   C     0.52564   0.81867   0.86769   0.01267  Uiso   1.00
C431   C     0.52400   0.77820   0.82842   0.01267  Uiso   1.00
C432   C     0.52389   0.73121   0.83030   0.01267  Uiso   1.00
C433   C     0.85440   0.25450   0.40010   0.01267  Uiso   1.00
C434   C     0.85140   0.33160   0.48020   0.01267  Uiso   1.00
C435   C     0.85440   0.45430   0.59990   0.01267  Uiso   1.00
C436   C     0.85140   0.37120   0.51980   0.01267  Uiso   1.00
C437   C     0.14560   0.74550   0.59990   0.01267  Uiso   1.00
C438   C     0.14860   0.66840   0.51980   0.01267  Uiso   1.00
C439   C     0.14560   0.54570   0.40010   0.01267  Uiso   1.00
C440   C     0.14860   0.62880   0.48020   0.01267  Uiso   1.00
C441   C     0.59990   0.14560   0.74550   0.01267  Uiso   1.00
C442   C     0.51980   0.14860   0.66840   0.01267  Uiso   1.00
C443   C     0.40010   0.14560   0.54570   0.01267  Uiso   1.00
C444   C     0.48020   0.14860   0.62880   0.01267  Uiso   1.00
C445   C     0.40010   0.85440   0.25450   0.01267  Uiso   1.00
C446   C     0.48020   0.85140   0.33160   0.01267  Uiso   1.00
C447   C     0.59990   0.85440   0.45430   0.01267  Uiso   1.00
C448   C     0.51980   0.85140   0.37120   0.01267  Uiso   1.00
C449   C     0.45430   0.59990   0.85440   0.01267  Uiso   1.00
C450   C     0.37120   0.51980   0.85140   0.01267  Uiso   1.00
C451   C     0.25450   0.40010   0.85440   0.01267  Uiso   1.00
C452   C     0.33160   0.48020   0.85140   0.01267  Uiso   1.00
C453   C     0.54570   0.40010   0.14560   0.01267  Uiso   1.00
C454   C     0.62880   0.48020   0.14860   0.01267  Uiso   1.00
C455   C     0.74550   0.59990   0.14560   0.01267  Uiso   1.00
C456   C     0.66840   0.51980   0.14860   0.01267  Uiso   1.00
C457   C     0.74550   0.14560   0.59990   0.01267  Uiso   1.00
C458   C     0.66840   0.14860   0.51980   0.01267  Uiso   1.00
C459   C     0.54570   0.14560   0.40010   0.01267  Uiso   1.00
C460   C     0.62880   0.14860   0.48020   0.01267  Uiso   1.00
C461   C     0.25450   0.85440   0.40010   0.01267  Uiso   1.00
C462   C     0.33160   0.85140   0.48020   0.01267  Uiso   1.00
C463   C     0.45430   0.85440   0.59990   0.01267  Uiso   1.00
C464   C     0.37120   0.85140   0.51980   0.01267  Uiso   1.00
C465   C     0.85440   0.40010   0.25450   0.01267  Uiso   1.00
C466   C     0.85140   0.48020   0.33160   0.01267  Uiso   1.00
C467   C     0.85440   0.59990   0.45430   0.01267  Uiso   1.00
C468   C     0.85140   0.51980   0.37120   0.01267  Uiso   1.00
C469   C     0.14560   0.59990   0.74550   0.01267  Uiso   1.00
C470   C     0.14860   0.51980   0.66840   0.01267  Uiso   1.00
C471   C     0.14560   0.40010   0.54570   0.01267  Uiso   1.00
C472   C     0.14860   0.48020   0.62880   0.01267  Uiso   1.00
C473   C     0.40010   0.54570   0.14560   0.01267  Uiso   1.00
C474   C     0.48020   0.62880   0.14860   0.01267  Uiso   1.00
C475   C     0.59990   0.74550   0.14560   0.01267  Uiso   1.00
C476   C     0.51980   0.66840   0.14860   0.01267  Uiso   1.00
C477   C     0.59990   0.45430   0.85440   0.01267  Uiso   1.00
C478   C     0.51980   0.37120   0.85140   0.01267  Uiso   1.00
C479   C     0.40010   0.25450   0.85440   0.01267  Uiso   1.00
C480   C     0.48020   0.33160   0.85140   0.01267  Uiso   1.00
C481   C     0.74256   0.21566   0.00000   0.01267  Uiso   1.00
C482   C     0.66160   0.13900   1.00000   0.01267  Uiso   1.00
C483   C     0.21566   0.74256   0.00000   0.01267  Uiso   1.00
C484   C     0.13900   0.66160   0.00000   0.01267  Uiso   1.00
C485   C     0.78434   0.78434   0.52690   0.01267  Uiso   1.00
C486   C     0.86100   0.86100   0.52260   0.01267  Uiso   1.00
C487   C     0.25744   0.25744   0.47310   0.01267  Uiso   1.00
C488   C     0.33840   0.33840   0.47740   0.01267  Uiso   1.00
C489   C     0.52690   0.78434   0.78434   0.01267  Uiso   1.00
C490   C     0.52260   0.86100   0.86100   0.01267  Uiso   1.00
C491   C     0.47310   0.25744   0.25744   0.01267  Uiso   1.00
C492   C     0.47740   0.33840   0.33840   0.01267  Uiso   1.00
C493   C     0.00000   0.74256   0.21566   0.01267  Uiso   1.00
C494   C     0.00000   0.66160   0.13900   0.01267  Uiso   1.00
C495   C     1.00000   0.21566   0.74256   0.01267  Uiso   1.00
C496   C     0.00000   0.13900   0.66160   0.01267  Uiso   1.00
C497   C     0.74256   0.00000   0.21566   0.01267  Uiso   1.00
C498   C     0.66160   1.00000   0.13900   0.01267  Uiso   1.00
C499   C     0.21566   0.00000   0.74256   0.01267  Uiso   1.00
C500   C     0.13900   0.00000   0.66160   0.01267  Uiso   1.00
C501   C     0.25744   0.47310   0.25744   0.01267  Uiso   1.00
C502   C     0.33840   0.47740   0.33840   0.01267  Uiso   1.00
C503   C     0.78434   0.52690   0.78434   0.01267  Uiso   1.00
C504   C     0.86100   0.52260   0.86100   0.01267  Uiso   1.00
C505   C     0.78434   0.25744  -0.00000   0.01267  Uiso   1.00
C506   C     0.86100   0.33840  -0.00000   0.01267  Uiso   1.00
C507   C     0.25744   0.78434  -0.00000   0.01267  Uiso   1.00
C508   C     0.33840   0.86100   0.00000   0.01267  Uiso   1.00
C509   C     0.21566   0.21566   0.47310   0.01267  Uiso   1.00
C510   C     0.13900   0.13900   0.47740   0.01267  Uiso   1.00
C511   C     0.74256   0.74256   0.52690   0.01267  Uiso   1.00
C512   C     0.66160   0.66160   0.52260   0.01267  Uiso   1.00
C513   C     0.21566   0.47310   0.21566   0.01267  Uiso   1.00
C514   C     0.13900   0.47740   0.13900   0.01267  Uiso   1.00
C515   C     0.74256   0.52690   0.74256   0.01267  Uiso   1.00
C516   C     0.66160   0.52260   0.66160   0.01267  Uiso   1.00
C517   C     0.25744   0.00000   0.78434   0.01267  Uiso   1.00
C518   C     0.33840  -0.00000   0.86100   0.01267  Uiso   1.00
C519   C     0.78434   0.00000   0.25744   0.01267  Uiso   1.00
C520   C     0.86100   0.00000   0.33840   0.01267  Uiso   1.00
C521   C     0.00000   0.25744   0.78434   0.01267  Uiso   1.00
C522   C     1.00000   0.33840   0.86100   0.01267  Uiso   1.00
C523   C     0.00000   0.78434   0.25744   0.01267  Uiso   1.00
C524   C     0.00000   0.86100   0.33840   0.01267  Uiso   1.00
C525   C     0.52690   0.74256   0.74256   0.01267  Uiso   1.00
C526   C     0.52260   0.66160   0.66160   0.01267  Uiso   1.00
C527   C     0.47310   0.21566   0.21566   0.01267  Uiso   1.00
C528   C     0.47740   0.13900   0.13900   0.01267  Uiso   1.00
O1     O     0.80243   0.23851   0.29564   0.01267  Uiso   1.00
O2     O     0.73468   0.24302   0.30870   0.01267  Uiso   1.00
O3     O     0.74960   0.19631   0.13735   0.01267  Uiso   1.00
O4     O     0.66087   0.17204   0.09779   0.01267  Uiso   1.00
O5     O     0.94287   0.50679   0.70436   0.01267  Uiso   1.00
O6     O     0.93432   0.42598   0.69130   0.01267  Uiso   1.00
O7     O     0.05896   0.61225   0.86265   0.01267  Uiso   1.00
O8     O     0.07425   0.56308   0.90221   0.01267  Uiso   1.00
O9     O     0.05713   0.76149   0.56392   0.01267  Uiso   1.00
O10    O     0.06568   0.75698   0.49166   0.01267  Uiso   1.00
O11    O     0.94104   0.80369   0.55329   0.01267  Uiso   1.00
O12    O     0.92575   0.82796   0.48883   0.01267  Uiso   1.00
O13    O     0.19757   0.49321   0.43608   0.01267  Uiso   1.00
O14    O     0.26532   0.57402   0.50834   0.01267  Uiso   1.00
O15    O     0.25040   0.38775   0.44671   0.01267  Uiso   1.00
O16    O     0.33913   0.43692   0.51117   0.01267  Uiso   1.00
O17    O     0.56392   0.05713   0.76149   0.01267  Uiso   1.00
O18    O     0.49166   0.06568   0.75698   0.01267  Uiso   1.00
O19    O     0.55329   0.94104   0.80369   0.01267  Uiso   1.00
O20    O     0.48883   0.92575   0.82796   0.01267  Uiso   1.00
O21    O     0.43608   0.19757   0.49321   0.01267  Uiso   1.00
O22    O     0.50834   0.26532   0.57402   0.01267  Uiso   1.00
O23    O     0.44671   0.25040   0.38775   0.01267  Uiso   1.00
O24    O     0.51117   0.33913   0.43692   0.01267  Uiso   1.00
O25    O     0.29564   0.80243   0.23851   0.01267  Uiso   1.00
O26    O     0.30870   0.73468   0.24302   0.01267  Uiso   1.00
O27    O     0.13735   0.74960   0.19631   0.01267  Uiso   1.00
O28    O     0.09779   0.66087   0.17204   0.01267  Uiso   1.00
O29    O     0.70436   0.94287   0.50679   0.01267  Uiso   1.00
O30    O     0.69130   0.93432   0.42598   0.01267  Uiso   1.00
O31    O     0.86265   0.05896   0.61225   0.01267  Uiso   1.00
O32    O     0.90221   0.07425   0.56308   0.01267  Uiso   1.00
O33    O     0.50679   0.70436   0.94287   0.01267  Uiso   1.00
O34    O     0.42598   0.69130   0.93432   0.01267  Uiso   1.00
O35    O     0.61225   0.86265   0.05896   0.01267  Uiso   1.00
O36    O     0.56308   0.90221   0.07425   0.01267  Uiso   1.00
O37    O     0.23851   0.29564   0.80243   0.01267  Uiso   1.00
O38    O     0.24302   0.30870   0.73468   0.01267  Uiso   1.00
O39    O     0.19631   0.13735   0.74960   0.01267  Uiso   1.00
O40    O     0.17204   0.09779   0.66087   0.01267  Uiso   1.00
O41    O     0.49321   0.43608   0.19757   0.01267  Uiso   1.00
O42    O     0.57402   0.50834   0.26532   0.01267  Uiso   1.00
O43    O     0.38775   0.44671   0.25040   0.01267  Uiso   1.00
O44    O     0.43692   0.51117   0.33913   0.01267  Uiso   1.00
O45    O     0.76149   0.56392   0.05713   0.01267  Uiso   1.00
O46    O     0.75698   0.49166   0.06568   0.01267  Uiso   1.00
O47    O     0.80369   0.55329   0.94104   0.01267  Uiso   1.00
O48    O     0.82796   0.48883   0.92575   0.01267  Uiso   1.00
O49    O     0.76149   0.19757   0.70436   0.01267  Uiso   1.00
O50    O     0.75698   0.26532   0.69130   0.01267  Uiso   1.00
O51    O     0.80369   0.25040   0.86265   0.01267  Uiso   1.00
O52    O     0.82796   0.33913   0.90221   0.01267  Uiso   1.00
O53    O     0.49321   0.05713   0.29564   0.01267  Uiso   1.00
O54    O     0.57402   0.06568   0.30870   0.01267  Uiso   1.00
O55    O     0.38775   0.94104   0.13735   0.01267  Uiso   1.00
O56    O     0.43692   0.92575   0.09779   0.01267  Uiso   1.00
O57    O     0.23851   0.94287   0.43608   0.01267  Uiso   1.00
O58    O     0.24302   0.93432   0.50834   0.01267  Uiso   1.00
O59    O     0.19631   0.05896   0.44671   0.01267  Uiso   1.00
O60    O     0.17204   0.07425   0.51117   0.01267  Uiso   1.00
O61    O     0.50679   0.80243   0.56392   0.01267  Uiso   1.00
O62    O     0.42598   0.73468   0.49166   0.01267  Uiso   1.00
O63    O     0.61225   0.74960   0.55329   0.01267  Uiso   1.00
O64    O     0.56308   0.66087   0.48883   0.01267  Uiso   1.00
O65    O     0.94287   0.43608   0.23851   0.01267  Uiso   1.00
O66    O     0.93432   0.50834   0.24302   0.01267  Uiso   1.00
O67    O     0.05896   0.44671   0.19631   0.01267  Uiso   1.00
O68    O     0.07425   0.51117   0.17204   0.01267  Uiso   1.00
O69    O     0.80243   0.56392   0.50679   0.01267  Uiso   1.00
O70    O     0.73468   0.49166   0.42598   0.01267  Uiso   1.00
O71    O     0.74960   0.55329   0.61225   0.01267  Uiso   1.00
O72    O     0.66087   0.48883   0.56308   0.01267  Uiso   1.00
O73    O     0.19757   0.70436   0.76149   0.01267  Uiso   1.00
O74    O     0.26532   0.69130   0.75698   0.01267  Uiso   1.00
O75    O     0.25040   0.86265   0.80369   0.01267  Uiso   1.00
O76    O     0.33913   0.90221   0.82796   0.01267  Uiso   1.00
O77    O     0.05713   0.29564   0.49321   0.01267  Uiso   1.00
O78    O     0.06568   0.30870   0.57402   0.01267  Uiso   1.00
O79    O     0.94104   0.13735   0.38775   0.01267  Uiso   1.00
O80    O     0.92575   0.09779   0.43692   0.01267  Uiso   1.00
O81    O     0.29564   0.49321   0.05713   0.01267  Uiso   1.00
O82    O     0.30870   0.57402   0.06568   0.01267  Uiso   1.00
O83    O     0.13735   0.38775   0.94104   0.01267  Uiso   1.00
O84    O     0.09779   0.43692   0.92575   0.01267  Uiso   1.00
O85    O     0.70436   0.76149   0.19757   0.01267  Uiso   1.00
O86    O     0.69130   0.75698   0.26532   0.01267  Uiso   1.00
O87    O     0.86265   0.80369   0.25040   0.01267  Uiso   1.00
O88    O     0.90221   0.82796   0.33913   0.01267  Uiso   1.00
O89    O     0.56392   0.50679   0.80243   0.01267  Uiso   1.00
O90    O     0.49166   0.42598   0.73468   0.01267  Uiso   1.00
O91    O     0.55329   0.61225   0.74960   0.01267  Uiso   1.00
O92    O     0.48883   0.56308   0.66087   0.01267  Uiso   1.00
O93    O     0.43608   0.23851   0.94287   0.01267  Uiso   1.00
O94    O     0.50834   0.24302   0.93432   0.01267  Uiso   1.00
O95    O     0.44671   0.19631   0.05896   0.01267  Uiso   1.00
O96    O     0.51117   0.17204   0.07425   0.01267  Uiso   1.00
O97    O     0.19757   0.76149   0.70436   0.01267  Uiso   1.00
O98    O     0.26532   0.75698   0.69130   0.01267  Uiso   1.00
O99    O     0.25040   0.80369   0.86265   0.01267  Uiso   1.00
O100   O     0.33913   0.82796   0.90221   0.01267  Uiso   1.00
O101   O     0.05713   0.49321   0.29564   0.01267  Uiso   1.00
O102   O     0.06568   0.57402   0.30870   0.01267  Uiso   1.00
O103   O     0.94104   0.38775   0.13735   0.01267  Uiso   1.00
O104   O     0.92575   0.43692   0.09779   0.01267  Uiso   1.00
O105   O     0.94287   0.23851   0.43608   0.01267  Uiso   1.00
O106   O     0.93432   0.24302   0.50834   0.01267  Uiso   1.00
O107   O     0.05896   0.19631   0.44671   0.01267  Uiso   1.00
O108   O     0.07425   0.17204   0.51117   0.01267  Uiso   1.00
O109   O     0.80243   0.50679   0.56392   0.01267  Uiso   1.00
O110   O     0.73468   0.42598   0.49166   0.01267  Uiso   1.00
O111   O     0.74960   0.61225   0.55329   0.01267  Uiso   1.00
O112   O     0.66087   0.56308   0.48883   0.01267  Uiso   1.00
O113   O     0.43608   0.94287   0.23851   0.01267  Uiso   1.00
O114   O     0.50834   0.93432   0.24302   0.01267  Uiso   1.00
O115   O     0.44671   0.05896   0.19631   0.01267  Uiso   1.00
O116   O     0.51117   0.07425   0.17204   0.01267  Uiso   1.00
O117   O     0.56392   0.80243   0.50679   0.01267  Uiso   1.00
O118   O     0.49166   0.73468   0.42598   0.01267  Uiso   1.00
O119   O     0.55329   0.74960   0.61225   0.01267  Uiso   1.00
O120   O     0.48883   0.66087   0.56308   0.01267  Uiso   1.00
O121   O     0.70436   0.19757   0.76149   0.01267  Uiso   1.00
O122   O     0.69130   0.26532   0.75698   0.01267  Uiso   1.00
O123   O     0.86265   0.25040   0.80369   0.01267  Uiso   1.00
O124   O     0.90221   0.33913   0.82796   0.01267  Uiso   1.00
O125   O     0.29564   0.05713   0.49321   0.01267  Uiso   1.00
O126   O     0.30870   0.06568   0.57402   0.01267  Uiso   1.00
O127   O     0.13735   0.94104   0.38775   0.01267  Uiso   1.00
O128   O     0.09779   0.92575   0.43692   0.01267  Uiso   1.00
O129   O     0.49321   0.29564   0.05713   0.01267  Uiso   1.00
O130   O     0.57402   0.30870   0.06568   0.01267  Uiso   1.00
O131   O     0.38775   0.13735   0.94104   0.01267  Uiso   1.00
O132   O     0.43692   0.09779   0.92575   0.01267  Uiso   1.00
O133   O     0.76149   0.70436   0.19757   0.01267  Uiso   1.00
O134   O     0.75698   0.69130   0.26532   0.01267  Uiso   1.00
O135   O     0.80369   0.86265   0.25040   0.01267  Uiso   1.00
O136   O     0.82796   0.90221   0.33913   0.01267  Uiso   1.00
O137   O     0.50679   0.56392   0.80243   0.01267  Uiso   1.00
O138   O     0.42598   0.49166   0.73468   0.01267  Uiso   1.00
O139   O     0.61225   0.55329   0.74960   0.01267  Uiso   1.00
O140   O     0.56308   0.48883   0.66087   0.01267  Uiso   1.00
O141   O     0.23851   0.43608   0.94287   0.01267  Uiso   1.00
O142   O     0.24302   0.50834   0.93432   0.01267  Uiso   1.00
O143   O     0.19631   0.44671   0.05896   0.01267  Uiso   1.00
O144   O     0.17204   0.51117   0.07425   0.01267  Uiso   1.00
O145   O     0.23851   0.80243   0.29564   0.01267  Uiso   1.00
O146   O     0.24302   0.73468   0.30870   0.01267  Uiso   1.00
O147   O     0.19631   0.74960   0.13735   0.01267  Uiso   1.00
O148   O     0.17204   0.66087   0.09779   0.01267  Uiso   1.00
O149   O     0.50679   0.94287   0.70436   0.01267  Uiso   1.00
O150   O     0.42598   0.93432   0.69130   0.01267  Uiso   1.00
O151   O     0.61225   0.05896   0.86265   0.01267  Uiso   1.00
O152   O     0.56308   0.07425   0.90221   0.01267  Uiso   1.00
O153   O     0.76149   0.05713   0.56392   0.01267  Uiso   1.00
O154   O     0.75698   0.06568   0.49166   0.01267  Uiso   1.00
O155   O     0.80369   0.94104   0.55329   0.01267  Uiso   1.00
O156   O     0.82796   0.92575   0.48883   0.01267  Uiso   1.00
O157   O     0.49321   0.19757   0.43608   0.01267  Uiso   1.00
O158   O     0.57402   0.26532   0.50834   0.01267  Uiso   1.00
O159   O     0.38775   0.25040   0.44671   0.01267  Uiso   1.00
O160   O     0.43692   0.33913   0.51117   0.01267  Uiso   1.00
O161   O     0.05713   0.56392   0.76149   0.01267  Uiso   1.00
O162   O     0.06568   0.49166   0.75698   0.01267  Uiso   1.00
O163   O     0.94104   0.55329   0.80369   0.01267  Uiso   1.00
O164   O     0.92575   0.48883   0.82796   0.01267  Uiso   1.00
O165   O     0.19757   0.43608   0.49321   0.01267  Uiso   1.00
O166   O     0.26532   0.50834   0.57402   0.01267  Uiso   1.00
O167   O     0.25040   0.44671   0.38775   0.01267  Uiso   1.00
O168   O     0.33913   0.51117   0.43692   0.01267  Uiso   1.00
O169   O     0.80243   0.29564   0.23851   0.01267  Uiso   1.00
O170   O     0.73468   0.30870   0.24302   0.01267  Uiso   1.00
O171   O     0.74960   0.13735   0.19631   0.01267  Uiso   1.00
O172   O     0.66087   0.09779   0.17204   0.01267  Uiso   1.00
O173   O     0.94287   0.70436   0.50679   0.01267  Uiso   1.00
O174   O     0.93432   0.69130   0.42598   0.01267  Uiso   1.00
O175   O     0.05896   0.86265   0.61225   0.01267  Uiso   1.00
O176   O     0.07425   0.90221   0.56308   0.01267  Uiso   1.00
O177   O     0.70436   0.50679   0.94287   0.01267  Uiso   1.00
O178   O     0.69130   0.42598   0.93432   0.01267  Uiso   1.00
O179   O     0.86265   0.61225   0.05896   0.01267  Uiso   1.00
O180   O     0.90221   0.56308   0.07425   0.01267  Uiso   1.00
O181   O     0.29564   0.23851   0.80243   0.01267  Uiso   1.00
O182   O     0.30870   0.24302   0.73468   0.01267  Uiso   1.00
O183   O     0.13735   0.19631   0.74960   0.01267  Uiso   1.00
O184   O     0.09779   0.17204   0.66087   0.01267  Uiso   1.00
O185   O     0.43608   0.49321   0.19757   0.01267  Uiso   1.00
O186   O     0.50834   0.57402   0.26532   0.01267  Uiso   1.00
O187   O     0.44671   0.38775   0.25040   0.01267  Uiso   1.00
O188   O     0.51117   0.43692   0.33913   0.01267  Uiso   1.00
O189   O     0.56392   0.76149   0.05713   0.01267  Uiso   1.00
O190   O     0.49166   0.75698   0.06568   0.01267  Uiso   1.00
O191   O     0.55329   0.80369   0.94104   0.01267  Uiso   1.00
O192   O     0.48883   0.82796   0.92575   0.01267  Uiso   1.00
O193   O     0.68900   0.19280   0.19280   0.01267  Uiso   1.00
O194   O     0.65702   0.28931   0.28931   0.01267  Uiso   1.00
O195   O     0.00000   0.49620   0.80720   0.01267  Uiso   1.00
O196   O     0.00000   0.36771   0.71069   0.01267  Uiso   1.00
O197   O     0.00000   0.80720   0.49620   0.01267  Uiso   1.00
O198   O     1.00000   0.71069   0.36771   0.01267  Uiso   1.00
O199   O     0.31100   0.50380   0.50380   0.01267  Uiso   1.00
O200   O     0.34298   0.63229   0.63229   0.01267  Uiso   1.00
O201   O     0.49620   0.00000   0.80720   0.01267  Uiso   1.00
O202   O     0.36771   0.00000   0.71069   0.01267  Uiso   1.00
O203   O     0.50380   0.31100   0.50380   0.01267  Uiso   1.00
O204   O     0.63229   0.34298   0.63229   0.01267  Uiso   1.00
O205   O     0.19280   0.68900   0.19280   0.01267  Uiso   1.00
O206   O     0.28931   0.65702   0.28931   0.01267  Uiso   1.00
O207   O     0.80720   0.00000   0.49620   0.01267  Uiso   1.00
O208   O     0.71069   0.00000   0.36771   0.01267  Uiso   1.00
O209   O     0.49620   0.80720  -0.00000   0.01267  Uiso   1.00
O210   O     0.36771   0.71069   1.00000   0.01267  Uiso   1.00
O211   O     0.19280   0.19280   0.68900   0.01267  Uiso   1.00
O212   O     0.28931   0.28931   0.65702   0.01267  Uiso   1.00
O213   O     0.50380   0.50380   0.31100   0.01267  Uiso   1.00
O214   O     0.63229   0.63229   0.34298   0.01267  Uiso   1.00
O215   O     0.80720   0.49620   1.00000   0.01267  Uiso   1.00
O216   O     0.71069   0.36771  -0.00000   0.01267  Uiso   1.00
O217   O     0.80720   0.31100   0.80720   0.01267  Uiso   1.00
O218   O     0.71069   0.34298   0.71069   0.01267  Uiso   1.00
O219   O     0.50380   0.00000   0.19280   0.01267  Uiso   1.00
O220   O     0.63229   0.00000   0.28931   0.01267  Uiso   1.00
O221   O     0.19280   0.00000   0.50380   0.01267  Uiso   1.00
O222   O     0.28931   0.00000   0.63229   0.01267  Uiso   1.00
O223   O     0.49620   0.68900   0.49620   0.01267  Uiso   1.00
O224   O     0.36771   0.65702   0.36771   0.01267  Uiso   1.00
O225   O     0.00000   0.50380   0.19280   0.01267  Uiso   1.00
O226   O     0.00000   0.63229   0.28931   0.01267  Uiso   1.00
O227   O     0.68900   0.49620   0.49620   0.01267  Uiso   1.00
O228   O     0.65702   0.36771   0.36771   0.01267  Uiso   1.00
O229   O     0.31100   0.80720   0.80720   0.01267  Uiso   1.00
O230   O     0.34298   0.71069   0.71069   0.01267  Uiso   1.00
O231   O     0.00000   0.19280   0.50380   0.01267  Uiso   1.00
O232   O     1.00000   0.28931   0.63229   0.01267  Uiso   1.00
O233   O     0.19280   0.50380   1.00000   0.01267  Uiso   1.00
O234   O     0.28931   0.63229   1.00000   0.01267  Uiso   1.00
O235   O     0.80720   0.80720   0.31100   0.01267  Uiso   1.00
O236   O     0.71069   0.71069   0.34298   0.01267  Uiso   1.00
O237   O     0.49620   0.49620   0.68900   0.01267  Uiso   1.00
O238   O     0.36771   0.36771   0.65702   0.01267  Uiso   1.00
O239   O     0.50380   0.19280   1.00000   0.01267  Uiso   1.00
O240   O     0.63229   0.28931  -0.00000   0.01267  Uiso   1.00
