data_image0
_cell_length_a       33.6167
_cell_length_b       33.6167
_cell_length_c       33.6167
_cell_angle_alpha    90
_cell_angle_beta     90
_cell_angle_gamma    90

_symmetry_space_group_name_H-M    "P 1"
_symmetry_int_tables_number       1

loop_
  _symmetry_equiv_pos_as_xyz
  'x, y, z'

loop_
  _atom_site_label
  _atom_site_occupancy
  _atom_site_fract_x
  _atom_site_fract_y
  _atom_site_fract_z
  _atom_site_thermal_displace_type
  _atom_site_B_iso_or_equiv
  _atom_site_type_symbol
  O1       1.0000 0.96060  0.24466  0.19990  Biso   1.000  O
  C1       1.0000 0.89270  0.15737  0.20980  Biso   1.000  C
  O2       1.0000 0.96060  0.74466  0.69990  Biso   1.000  O
  C2       1.0000 0.89270  0.65737  0.70980  Biso   1.000  C
  O3       1.0000 0.46060  0.24466  0.69990  Biso   1.000  O
  C3       1.0000 0.39270  0.15737  0.70980  Biso   1.000  C
  O4       1.0000 0.46060  0.74466  0.19990  Biso   1.000  O
  C4       1.0000 0.39270  0.65737  0.20980  Biso   1.000  C
  O5       1.0000 0.03940  0.75534  0.19990  Biso   1.000  O
  C5       1.0000 0.10730  0.84263  0.20980  Biso   1.000  C
  O6       1.0000 0.03940  0.25534  0.69990  Biso   1.000  O
  C6       1.0000 0.10730  0.34263  0.70980  Biso   1.000  C
  O7       1.0000 0.53940  0.75534  0.69990  Biso   1.000  O
  C7       1.0000 0.60730  0.84263  0.70980  Biso   1.000  C
  O8       1.0000 0.53940  0.25534  0.19990  Biso   1.000  O
  C8       1.0000 0.60730  0.34263  0.20980  Biso   1.000  C
  O9       1.0000 0.03940  0.24466  0.80010  Biso   1.000  O
  C9       1.0000 0.10730  0.15737  0.79020  Biso   1.000  C
  O10      1.0000 0.03940  0.74466  0.30010  Biso   1.000  O
  C10      1.0000 0.10730  0.65737  0.29020  Biso   1.000  C
  O11      1.0000 0.53940  0.24466  0.30010  Biso   1.000  O
  C11      1.0000 0.60730  0.15737  0.29020  Biso   1.000  C
  O12      1.0000 0.53940  0.74466  0.80010  Biso   1.000  O
  C12      1.0000 0.60730  0.65737  0.79020  Biso   1.000  C
  O13      1.0000 0.96060  0.75534  0.80010  Biso   1.000  O
  C13      1.0000 0.89270  0.84263  0.79020  Biso   1.000  C
  O14      1.0000 0.96060  0.25534  0.30010  Biso   1.000  O
  C14      1.0000 0.89270  0.34263  0.29020  Biso   1.000  C
  O15      1.0000 0.46060  0.75534  0.30010  Biso   1.000  O
  C15      1.0000 0.39270  0.84263  0.29020  Biso   1.000  C
  O16      1.0000 0.46060  0.25534  0.80010  Biso   1.000  O
  C16      1.0000 0.39270  0.34263  0.79020  Biso   1.000  C
  O17      1.0000 0.19990  0.96060  0.24466  Biso   1.000  O
  C17      1.0000 0.20980  0.89270  0.15737  Biso   1.000  C
  O18      1.0000 0.19990  0.46060  0.74466  Biso   1.000  O
  C18      1.0000 0.20980  0.39270  0.65737  Biso   1.000  C
  O19      1.0000 0.69990  0.96060  0.74466  Biso   1.000  O
  C19      1.0000 0.70980  0.89270  0.65737  Biso   1.000  C
  O20      1.0000 0.69990  0.46060  0.24466  Biso   1.000  O
  C20      1.0000 0.70980  0.39270  0.15737  Biso   1.000  C
  O21      1.0000 0.19990  0.03940  0.75534  Biso   1.000  O
  C21      1.0000 0.20980  0.10730  0.84263  Biso   1.000  C
  O22      1.0000 0.19990  0.53940  0.25534  Biso   1.000  O
  C22      1.0000 0.20980  0.60730  0.34263  Biso   1.000  C
  O23      1.0000 0.69990  0.03940  0.25534  Biso   1.000  O
  C23      1.0000 0.70980  0.10730  0.34263  Biso   1.000  C
  O24      1.0000 0.69990  0.53940  0.75534  Biso   1.000  O
  C24      1.0000 0.70980  0.60730  0.84263  Biso   1.000  C
  O25      1.0000 0.80010  0.03940  0.24466  Biso   1.000  O
  C25      1.0000 0.79020  0.10730  0.15737  Biso   1.000  C
  O26      1.0000 0.80010  0.53940  0.74466  Biso   1.000  O
  C26      1.0000 0.79020  0.60730  0.65737  Biso   1.000  C
  O27      1.0000 0.30010  0.03940  0.74466  Biso   1.000  O
  C27      1.0000 0.29020  0.10730  0.65737  Biso   1.000  C
  O28      1.0000 0.30010  0.53940  0.24466  Biso   1.000  O
  C28      1.0000 0.29020  0.60730  0.15737  Biso   1.000  C
  O29      1.0000 0.80010  0.96060  0.75534  Biso   1.000  O
  C29      1.0000 0.79020  0.89270  0.84263  Biso   1.000  C
  O30      1.0000 0.80010  0.46060  0.25534  Biso   1.000  O
  C30      1.0000 0.79020  0.39270  0.34263  Biso   1.000  C
  O31      1.0000 0.30010  0.96060  0.25534  Biso   1.000  O
  C31      1.0000 0.29020  0.89270  0.34263  Biso   1.000  C
  O32      1.0000 0.30010  0.46060  0.75534  Biso   1.000  O
  C32      1.0000 0.29020  0.39270  0.84263  Biso   1.000  C
  O33      1.0000 0.24466  0.19990  0.96060  Biso   1.000  O
  C33      1.0000 0.15737  0.20980  0.89270  Biso   1.000  C
  O34      1.0000 0.24466  0.69990  0.46060  Biso   1.000  O
  C34      1.0000 0.15737  0.70980  0.39270  Biso   1.000  C
  O35      1.0000 0.74466  0.19990  0.46060  Biso   1.000  O
  C35      1.0000 0.65737  0.20980  0.39270  Biso   1.000  C
  O36      1.0000 0.74466  0.69990  0.96060  Biso   1.000  O
  C36      1.0000 0.65737  0.70980  0.89270  Biso   1.000  C
  O37      1.0000 0.75534  0.19990  0.03940  Biso   1.000  O
  C37      1.0000 0.84263  0.20980  0.10730  Biso   1.000  C
  O38      1.0000 0.75534  0.69990  0.53940  Biso   1.000  O
  C38      1.0000 0.84263  0.70980  0.60730  Biso   1.000  C
  O39      1.0000 0.25534  0.19990  0.53940  Biso   1.000  O
  C39      1.0000 0.34263  0.20980  0.60730  Biso   1.000  C
  O40      1.0000 0.25534  0.69990  0.03940  Biso   1.000  O
  C40      1.0000 0.34263  0.70980  0.10730  Biso   1.000  C
  O41      1.0000 0.24466  0.80010  0.03940  Biso   1.000  O
  C41      1.0000 0.15737  0.79020  0.10730  Biso   1.000  C
  O42      1.0000 0.24466  0.30010  0.53940  Biso   1.000  O
  C42      1.0000 0.15737  0.29020  0.60730  Biso   1.000  C
  O43      1.0000 0.74466  0.80010  0.53940  Biso   1.000  O
  C43      1.0000 0.65737  0.79020  0.60730  Biso   1.000  C
  O44      1.0000 0.74466  0.30010  0.03940  Biso   1.000  O
  C44      1.0000 0.65737  0.29020  0.10730  Biso   1.000  C
  O45      1.0000 0.75534  0.80010  0.96060  Biso   1.000  O
  C45      1.0000 0.84263  0.79020  0.89270  Biso   1.000  C
  O46      1.0000 0.75534  0.30010  0.46060  Biso   1.000  O
  C46      1.0000 0.84263  0.29020  0.39270  Biso   1.000  C
  O47      1.0000 0.25534  0.80010  0.46060  Biso   1.000  O
  C47      1.0000 0.34263  0.79020  0.39270  Biso   1.000  C
  O48      1.0000 0.25534  0.30010  0.96060  Biso   1.000  O
  C48      1.0000 0.34263  0.29020  0.89270  Biso   1.000  C
  O49      1.0000 0.24466  0.96060  0.80010  Biso   1.000  O
  C49      1.0000 0.15737  0.89270  0.79020  Biso   1.000  C
  O50      1.0000 0.24466  0.46060  0.30010  Biso   1.000  O
  C50      1.0000 0.15737  0.39270  0.29020  Biso   1.000  C
  O51      1.0000 0.74466  0.96060  0.30010  Biso   1.000  O
  C51      1.0000 0.65737  0.89270  0.29020  Biso   1.000  C
  O52      1.0000 0.74466  0.46060  0.80010  Biso   1.000  O
  C52      1.0000 0.65737  0.39270  0.79020  Biso   1.000  C
  O53      1.0000 0.75534  0.03940  0.80010  Biso   1.000  O
  C53      1.0000 0.84263  0.10730  0.79020  Biso   1.000  C
  O54      1.0000 0.75534  0.53940  0.30010  Biso   1.000  O
  C54      1.0000 0.84263  0.60730  0.29020  Biso   1.000  C
  O55      1.0000 0.25534  0.03940  0.30010  Biso   1.000  O
  C55      1.0000 0.34263  0.10730  0.29020  Biso   1.000  C
  O56      1.0000 0.25534  0.53940  0.80010  Biso   1.000  O
  C56      1.0000 0.34263  0.60730  0.79020  Biso   1.000  C
  O57      1.0000 0.24466  0.03940  0.19990  Biso   1.000  O
  C57      1.0000 0.15737  0.10730  0.20980  Biso   1.000  C
  O58      1.0000 0.24466  0.53940  0.69990  Biso   1.000  O
  C58      1.0000 0.15737  0.60730  0.70980  Biso   1.000  C
  O59      1.0000 0.74466  0.03940  0.69990  Biso   1.000  O
  C59      1.0000 0.65737  0.10730  0.70980  Biso   1.000  C
  O60      1.0000 0.74466  0.53940  0.19990  Biso   1.000  O
  C60      1.0000 0.65737  0.60730  0.20980  Biso   1.000  C
  O61      1.0000 0.75534  0.96060  0.19990  Biso   1.000  O
  C61      1.0000 0.84263  0.89270  0.20980  Biso   1.000  C
  O62      1.0000 0.75534  0.46060  0.69990  Biso   1.000  O
  C62      1.0000 0.84263  0.39270  0.70980  Biso   1.000  C
  O63      1.0000 0.25534  0.96060  0.69990  Biso   1.000  O
  C63      1.0000 0.34263  0.89270  0.70980  Biso   1.000  C
  O64      1.0000 0.25534  0.46060  0.19990  Biso   1.000  O
  C64      1.0000 0.34263  0.39270  0.20980  Biso   1.000  C
  O65      1.0000 0.96060  0.19990  0.75534  Biso   1.000  O
  C65      1.0000 0.89270  0.20980  0.84263  Biso   1.000  C
  O66      1.0000 0.96060  0.69990  0.25534  Biso   1.000  O
  C66      1.0000 0.89270  0.70980  0.34263  Biso   1.000  C
  O67      1.0000 0.46060  0.19990  0.25534  Biso   1.000  O
  C67      1.0000 0.39270  0.20980  0.34263  Biso   1.000  C
  O68      1.0000 0.46060  0.69990  0.75534  Biso   1.000  O
  C68      1.0000 0.39270  0.70980  0.84263  Biso   1.000  C
  O69      1.0000 0.03940  0.19990  0.24466  Biso   1.000  O
  C69      1.0000 0.10730  0.20980  0.15737  Biso   1.000  C
  O70      1.0000 0.03940  0.69990  0.74466  Biso   1.000  O
  C70      1.0000 0.10730  0.70980  0.65737  Biso   1.000  C
  O71      1.0000 0.53940  0.19990  0.74466  Biso   1.000  O
  C71      1.0000 0.60730  0.20980  0.65737  Biso   1.000  C
  O72      1.0000 0.53940  0.69990  0.24466  Biso   1.000  O
  C72      1.0000 0.60730  0.70980  0.15737  Biso   1.000  C
  O73      1.0000 0.03940  0.80010  0.75534  Biso   1.000  O
  C73      1.0000 0.10730  0.79020  0.84263  Biso   1.000  C
  O74      1.0000 0.03940  0.30010  0.25534  Biso   1.000  O
  C74      1.0000 0.10730  0.29020  0.34263  Biso   1.000  C
  O75      1.0000 0.53940  0.80010  0.25534  Biso   1.000  O
  C75      1.0000 0.60730  0.79020  0.34263  Biso   1.000  C
  O76      1.0000 0.53940  0.30010  0.75534  Biso   1.000  O
  C76      1.0000 0.60730  0.29020  0.84263  Biso   1.000  C
  O77      1.0000 0.96060  0.80010  0.24466  Biso   1.000  O
  C77      1.0000 0.89270  0.79020  0.15737  Biso   1.000  C
  O78      1.0000 0.96060  0.30010  0.74466  Biso   1.000  O
  C78      1.0000 0.89270  0.29020  0.65737  Biso   1.000  C
  O79      1.0000 0.46060  0.80010  0.74466  Biso   1.000  O
  C79      1.0000 0.39270  0.79020  0.65737  Biso   1.000  C
  O80      1.0000 0.46060  0.30010  0.24466  Biso   1.000  O
  C80      1.0000 0.39270  0.29020  0.15737  Biso   1.000  C
  O81      1.0000 0.19990  0.24466  0.03940  Biso   1.000  O
  C81      1.0000 0.20980  0.15737  0.10730  Biso   1.000  C
  O82      1.0000 0.19990  0.74466  0.53940  Biso   1.000  O
  C82      1.0000 0.20980  0.65737  0.60730  Biso   1.000  C
  O83      1.0000 0.69990  0.24466  0.53940  Biso   1.000  O
  C83      1.0000 0.70980  0.15737  0.60730  Biso   1.000  C
  O84      1.0000 0.69990  0.74466  0.03940  Biso   1.000  O
  C84      1.0000 0.70980  0.65737  0.10730  Biso   1.000  C
  O85      1.0000 0.19990  0.75534  0.96060  Biso   1.000  O
  C85      1.0000 0.20980  0.84263  0.89270  Biso   1.000  C
  O86      1.0000 0.19990  0.25534  0.46060  Biso   1.000  O
  C86      1.0000 0.20980  0.34263  0.39270  Biso   1.000  C
  O87      1.0000 0.69990  0.75534  0.46060  Biso   1.000  O
  C87      1.0000 0.70980  0.84263  0.39270  Biso   1.000  C
  O88      1.0000 0.69990  0.25534  0.96060  Biso   1.000  O
  C88      1.0000 0.70980  0.34263  0.89270  Biso   1.000  C
  O89      1.0000 0.80010  0.24466  0.96060  Biso   1.000  O
  C89      1.0000 0.79020  0.15737  0.89270  Biso   1.000  C
  O90      1.0000 0.80010  0.74466  0.46060  Biso   1.000  O
  C90      1.0000 0.79020  0.65737  0.39270  Biso   1.000  C
  O91      1.0000 0.30010  0.24466  0.46060  Biso   1.000  O
  C91      1.0000 0.29020  0.15737  0.39270  Biso   1.000  C
  O92      1.0000 0.30010  0.74466  0.96060  Biso   1.000  O
  C92      1.0000 0.29020  0.65737  0.89270  Biso   1.000  C
  O93      1.0000 0.80010  0.75534  0.03940  Biso   1.000  O
  C93      1.0000 0.79020  0.84263  0.10730  Biso   1.000  C
  O94      1.0000 0.80010  0.25534  0.53940  Biso   1.000  O
  C94      1.0000 0.79020  0.34263  0.60730  Biso   1.000  C
  O95      1.0000 0.30010  0.75534  0.53940  Biso   1.000  O
  C95      1.0000 0.29020  0.84263  0.60730  Biso   1.000  C
  O96      1.0000 0.30010  0.25534  0.03940  Biso   1.000  O
  C96      1.0000 0.29020  0.34263  0.10730  Biso   1.000  C
  O97      1.0000 0.03940  0.75534  0.80010  Biso   1.000  O
  C97      1.0000 0.10730  0.84263  0.79020  Biso   1.000  C
  O98      1.0000 0.03940  0.25534  0.30010  Biso   1.000  O
  C98      1.0000 0.10730  0.34263  0.29020  Biso   1.000  C
  O99      1.0000 0.53940  0.75534  0.30010  Biso   1.000  O
  C99      1.0000 0.60730  0.84263  0.29020  Biso   1.000  C
  O100     1.0000 0.53940  0.25534  0.80010  Biso   1.000  O
  C100     1.0000 0.60730  0.34263  0.79020  Biso   1.000  C
  O101     1.0000 0.96060  0.24466  0.80010  Biso   1.000  O
  C101     1.0000 0.89270  0.15737  0.79020  Biso   1.000  C
  O102     1.0000 0.96060  0.74466  0.30010  Biso   1.000  O
  C102     1.0000 0.89270  0.65737  0.29020  Biso   1.000  C
  O103     1.0000 0.46060  0.24466  0.30010  Biso   1.000  O
  C103     1.0000 0.39270  0.15737  0.29020  Biso   1.000  C
  O104     1.0000 0.46060  0.74466  0.80010  Biso   1.000  O
  C104     1.0000 0.39270  0.65737  0.79020  Biso   1.000  C
  O105     1.0000 0.96060  0.75534  0.19990  Biso   1.000  O
  C105     1.0000 0.89270  0.84263  0.20980  Biso   1.000  C
  O106     1.0000 0.96060  0.25534  0.69990  Biso   1.000  O
  C106     1.0000 0.89270  0.34263  0.70980  Biso   1.000  C
  O107     1.0000 0.46060  0.75534  0.69990  Biso   1.000  O
  C107     1.0000 0.39270  0.84263  0.70980  Biso   1.000  C
  O108     1.0000 0.46060  0.25534  0.19990  Biso   1.000  O
  C108     1.0000 0.39270  0.34263  0.20980  Biso   1.000  C
  O109     1.0000 0.03940  0.24466  0.19990  Biso   1.000  O
  C109     1.0000 0.10730  0.15737  0.20980  Biso   1.000  C
  O110     1.0000 0.03940  0.74466  0.69990  Biso   1.000  O
  C110     1.0000 0.10730  0.65737  0.70980  Biso   1.000  C
  O111     1.0000 0.53940  0.24466  0.69990  Biso   1.000  O
  C111     1.0000 0.60730  0.15737  0.70980  Biso   1.000  C
  O112     1.0000 0.53940  0.74466  0.19990  Biso   1.000  O
  C112     1.0000 0.60730  0.65737  0.20980  Biso   1.000  C
  O113     1.0000 0.80010  0.03940  0.75534  Biso   1.000  O
  C113     1.0000 0.79020  0.10730  0.84263  Biso   1.000  C
  O114     1.0000 0.80010  0.53940  0.25534  Biso   1.000  O
  C114     1.0000 0.79020  0.60730  0.34263  Biso   1.000  C
  O115     1.0000 0.30010  0.03940  0.25534  Biso   1.000  O
  C115     1.0000 0.29020  0.10730  0.34263  Biso   1.000  C
  O116     1.0000 0.30010  0.53940  0.75534  Biso   1.000  O
  C116     1.0000 0.29020  0.60730  0.84263  Biso   1.000  C
  O117     1.0000 0.80010  0.96060  0.24466  Biso   1.000  O
  C117     1.0000 0.79020  0.89270  0.15737  Biso   1.000  C
  O118     1.0000 0.80010  0.46060  0.74466  Biso   1.000  O
  C118     1.0000 0.79020  0.39270  0.65737  Biso   1.000  C
  O119     1.0000 0.30010  0.96060  0.74466  Biso   1.000  O
  C119     1.0000 0.29020  0.89270  0.65737  Biso   1.000  C
  O120     1.0000 0.30010  0.46060  0.24466  Biso   1.000  O
  C120     1.0000 0.29020  0.39270  0.15737  Biso   1.000  C
  O121     1.0000 0.19990  0.96060  0.75534  Biso   1.000  O
  C121     1.0000 0.20980  0.89270  0.84263  Biso   1.000  C
  O122     1.0000 0.19990  0.46060  0.25534  Biso   1.000  O
  C122     1.0000 0.20980  0.39270  0.34263  Biso   1.000  C
  O123     1.0000 0.69990  0.96060  0.25534  Biso   1.000  O
  C123     1.0000 0.70980  0.89270  0.34263  Biso   1.000  C
  O124     1.0000 0.69990  0.46060  0.75534  Biso   1.000  O
  C124     1.0000 0.70980  0.39270  0.84263  Biso   1.000  C
  O125     1.0000 0.19990  0.03940  0.24466  Biso   1.000  O
  C125     1.0000 0.20980  0.10730  0.15737  Biso   1.000  C
  O126     1.0000 0.19990  0.53940  0.74466  Biso   1.000  O
  C126     1.0000 0.20980  0.60730  0.65737  Biso   1.000  C
  O127     1.0000 0.69990  0.03940  0.74466  Biso   1.000  O
  C127     1.0000 0.70980  0.10730  0.65737  Biso   1.000  C
  O128     1.0000 0.69990  0.53940  0.24466  Biso   1.000  O
  C128     1.0000 0.70980  0.60730  0.15737  Biso   1.000  C
  O129     1.0000 0.75534  0.80010  0.03940  Biso   1.000  O
  C129     1.0000 0.84263  0.79020  0.10730  Biso   1.000  C
  O130     1.0000 0.75534  0.30010  0.53940  Biso   1.000  O
  C130     1.0000 0.84263  0.29020  0.60730  Biso   1.000  C
  O131     1.0000 0.25534  0.80010  0.53940  Biso   1.000  O
  C131     1.0000 0.34263  0.79020  0.60730  Biso   1.000  C
  O132     1.0000 0.25534  0.30010  0.03940  Biso   1.000  O
  C132     1.0000 0.34263  0.29020  0.10730  Biso   1.000  C
  O133     1.0000 0.24466  0.80010  0.96060  Biso   1.000  O
  C133     1.0000 0.15737  0.79020  0.89270  Biso   1.000  C
  O134     1.0000 0.24466  0.30010  0.46060  Biso   1.000  O
  C134     1.0000 0.15737  0.29020  0.39270  Biso   1.000  C
  O135     1.0000 0.74466  0.80010  0.46060  Biso   1.000  O
  C135     1.0000 0.65737  0.79020  0.39270  Biso   1.000  C
  O136     1.0000 0.74466  0.30010  0.96060  Biso   1.000  O
  C136     1.0000 0.65737  0.29020  0.89270  Biso   1.000  C
  O137     1.0000 0.75534  0.19990  0.96060  Biso   1.000  O
  C137     1.0000 0.84263  0.20980  0.89270  Biso   1.000  C
  O138     1.0000 0.75534  0.69990  0.46060  Biso   1.000  O
  C138     1.0000 0.84263  0.70980  0.39270  Biso   1.000  C
  O139     1.0000 0.25534  0.19990  0.46060  Biso   1.000  O
  C139     1.0000 0.34263  0.20980  0.39270  Biso   1.000  C
  O140     1.0000 0.25534  0.69990  0.96060  Biso   1.000  O
  C140     1.0000 0.34263  0.70980  0.89270  Biso   1.000  C
  O141     1.0000 0.24466  0.19990  0.03940  Biso   1.000  O
  C141     1.0000 0.15737  0.20980  0.10730  Biso   1.000  C
  O142     1.0000 0.24466  0.69990  0.53940  Biso   1.000  O
  C142     1.0000 0.15737  0.70980  0.60730  Biso   1.000  C
  O143     1.0000 0.74466  0.19990  0.53940  Biso   1.000  O
  C143     1.0000 0.65737  0.20980  0.60730  Biso   1.000  C
  O144     1.0000 0.74466  0.69990  0.03940  Biso   1.000  O
  C144     1.0000 0.65737  0.70980  0.10730  Biso   1.000  C
  O145     1.0000 0.75534  0.03940  0.19990  Biso   1.000  O
  C145     1.0000 0.84263  0.10730  0.20980  Biso   1.000  C
  O146     1.0000 0.75534  0.53940  0.69990  Biso   1.000  O
  C146     1.0000 0.84263  0.60730  0.70980  Biso   1.000  C
  O147     1.0000 0.25534  0.03940  0.69990  Biso   1.000  O
  C147     1.0000 0.34263  0.10730  0.70980  Biso   1.000  C
  O148     1.0000 0.25534  0.53940  0.19990  Biso   1.000  O
  C148     1.0000 0.34263  0.60730  0.20980  Biso   1.000  C
  O149     1.0000 0.24466  0.96060  0.19990  Biso   1.000  O
  C149     1.0000 0.15737  0.89270  0.20980  Biso   1.000  C
  O150     1.0000 0.24466  0.46060  0.69990  Biso   1.000  O
  C150     1.0000 0.15737  0.39270  0.70980  Biso   1.000  C
  O151     1.0000 0.74466  0.96060  0.69990  Biso   1.000  O
  C151     1.0000 0.65737  0.89270  0.70980  Biso   1.000  C
  O152     1.0000 0.74466  0.46060  0.19990  Biso   1.000  O
  C152     1.0000 0.65737  0.39270  0.20980  Biso   1.000  C
  O153     1.0000 0.75534  0.96060  0.80010  Biso   1.000  O
  C153     1.0000 0.84263  0.89270  0.79020  Biso   1.000  C
  O154     1.0000 0.75534  0.46060  0.30010  Biso   1.000  O
  C154     1.0000 0.84263  0.39270  0.29020  Biso   1.000  C
  O155     1.0000 0.25534  0.96060  0.30010  Biso   1.000  O
  C155     1.0000 0.34263  0.89270  0.29020  Biso   1.000  C
  O156     1.0000 0.25534  0.46060  0.80010  Biso   1.000  O
  C156     1.0000 0.34263  0.39270  0.79020  Biso   1.000  C
  O157     1.0000 0.24466  0.03940  0.80010  Biso   1.000  O
  C157     1.0000 0.15737  0.10730  0.79020  Biso   1.000  C
  O158     1.0000 0.24466  0.53940  0.30010  Biso   1.000  O
  C158     1.0000 0.15737  0.60730  0.29020  Biso   1.000  C
  O159     1.0000 0.74466  0.03940  0.30010  Biso   1.000  O
  C159     1.0000 0.65737  0.10730  0.29020  Biso   1.000  C
  O160     1.0000 0.74466  0.53940  0.80010  Biso   1.000  O
  C160     1.0000 0.65737  0.60730  0.79020  Biso   1.000  C
  O161     1.0000 0.03940  0.80010  0.24466  Biso   1.000  O
  C161     1.0000 0.10730  0.79020  0.15737  Biso   1.000  C
  O162     1.0000 0.03940  0.30010  0.74466  Biso   1.000  O
  C162     1.0000 0.10730  0.29020  0.65737  Biso   1.000  C
  O163     1.0000 0.53940  0.80010  0.74466  Biso   1.000  O
  C163     1.0000 0.60730  0.79020  0.65737  Biso   1.000  C
  O164     1.0000 0.53940  0.30010  0.24466  Biso   1.000  O
  C164     1.0000 0.60730  0.29020  0.15737  Biso   1.000  C
  O165     1.0000 0.96060  0.80010  0.75534  Biso   1.000  O
  C165     1.0000 0.89270  0.79020  0.84263  Biso   1.000  C
  O166     1.0000 0.96060  0.30010  0.25534  Biso   1.000  O
  C166     1.0000 0.89270  0.29020  0.34263  Biso   1.000  C
  O167     1.0000 0.46060  0.80010  0.25534  Biso   1.000  O
  C167     1.0000 0.39270  0.79020  0.34263  Biso   1.000  C
  O168     1.0000 0.46060  0.30010  0.75534  Biso   1.000  O
  C168     1.0000 0.39270  0.29020  0.84263  Biso   1.000  C
  O169     1.0000 0.96060  0.19990  0.24466  Biso   1.000  O
  C169     1.0000 0.89270  0.20980  0.15737  Biso   1.000  C
  O170     1.0000 0.96060  0.69990  0.74466  Biso   1.000  O
  C170     1.0000 0.89270  0.70980  0.65737  Biso   1.000  C
  O171     1.0000 0.46060  0.19990  0.74466  Biso   1.000  O
  C171     1.0000 0.39270  0.20980  0.65737  Biso   1.000  C
  O172     1.0000 0.46060  0.69990  0.24466  Biso   1.000  O
  C172     1.0000 0.39270  0.70980  0.15737  Biso   1.000  C
  O173     1.0000 0.03940  0.19990  0.75534  Biso   1.000  O
  C173     1.0000 0.10730  0.20980  0.84263  Biso   1.000  C
  O174     1.0000 0.03940  0.69990  0.25534  Biso   1.000  O
  C174     1.0000 0.10730  0.70980  0.34263  Biso   1.000  C
  O175     1.0000 0.53940  0.19990  0.25534  Biso   1.000  O
  C175     1.0000 0.60730  0.20980  0.34263  Biso   1.000  C
  O176     1.0000 0.53940  0.69990  0.75534  Biso   1.000  O
  C176     1.0000 0.60730  0.70980  0.84263  Biso   1.000  C
  O177     1.0000 0.80010  0.75534  0.96060  Biso   1.000  O
  C177     1.0000 0.79020  0.84263  0.89270  Biso   1.000  C
  O178     1.0000 0.80010  0.25534  0.46060  Biso   1.000  O
  C178     1.0000 0.79020  0.34263  0.39270  Biso   1.000  C
  O179     1.0000 0.30010  0.75534  0.46060  Biso   1.000  O
  C179     1.0000 0.29020  0.84263  0.39270  Biso   1.000  C
  O180     1.0000 0.30010  0.25534  0.96060  Biso   1.000  O
  C180     1.0000 0.29020  0.34263  0.89270  Biso   1.000  C
  O181     1.0000 0.80010  0.24466  0.03940  Biso   1.000  O
  C181     1.0000 0.79020  0.15737  0.10730  Biso   1.000  C
  O182     1.0000 0.80010  0.74466  0.53940  Biso   1.000  O
  C182     1.0000 0.79020  0.65737  0.60730  Biso   1.000  C
  O183     1.0000 0.30010  0.24466  0.53940  Biso   1.000  O
  C183     1.0000 0.29020  0.15737  0.60730  Biso   1.000  C
  O184     1.0000 0.30010  0.74466  0.03940  Biso   1.000  O
  C184     1.0000 0.29020  0.65737  0.10730  Biso   1.000  C
  O185     1.0000 0.19990  0.75534  0.03940  Biso   1.000  O
  C185     1.0000 0.20980  0.84263  0.10730  Biso   1.000  C
  O186     1.0000 0.19990  0.25534  0.53940  Biso   1.000  O
  C186     1.0000 0.20980  0.34263  0.60730  Biso   1.000  C
  O187     1.0000 0.69990  0.75534  0.53940  Biso   1.000  O
  C187     1.0000 0.70980  0.84263  0.60730  Biso   1.000  C
  O188     1.0000 0.69990  0.25534  0.03940  Biso   1.000  O
  C188     1.0000 0.70980  0.34263  0.10730  Biso   1.000  C
  O189     1.0000 0.19990  0.24466  0.96060  Biso   1.000  O
  C189     1.0000 0.20980  0.15737  0.89270  Biso   1.000  C
  O190     1.0000 0.19990  0.74466  0.46060  Biso   1.000  O
  C190     1.0000 0.20980  0.65737  0.39270  Biso   1.000  C
  O191     1.0000 0.69990  0.24466  0.46060  Biso   1.000  O
  C191     1.0000 0.70980  0.15737  0.39270  Biso   1.000  C
  O192     1.0000 0.69990  0.74466  0.96060  Biso   1.000  O
  C192     1.0000 0.70980  0.65737  0.89270  Biso   1.000  C
  Cu1      1.0000 0.00000  0.27616  0.22384  Biso   1.000  Cu
  Cu2      1.0000 0.50000  0.27616  0.72384  Biso   1.000  Cu
  Cu3      1.0000 0.00000  0.72384  0.22384  Biso   1.000  Cu
  Cu4      1.0000 0.50000  0.72384  0.72384  Biso   1.000  Cu
  Cu5      1.0000 0.50000  0.22384  0.22384  Biso   1.000  Cu
  Cu6      1.0000 0.00000  0.27616  0.77616  Biso   1.000  Cu
  Cu7      1.0000 0.50000  0.27616  0.27616  Biso   1.000  Cu
  Cu8      1.0000 0.00000  0.72384  0.77616  Biso   1.000  Cu
  Cu9      1.0000 0.00000  0.22384  0.27616  Biso   1.000  Cu
  Cu10     1.0000 0.50000  0.72384  0.27616  Biso   1.000  Cu
  Cu11     1.0000 0.22384  0.00000  0.27616  Biso   1.000  Cu
  Cu12     1.0000 0.22384  0.50000  0.77616  Biso   1.000  Cu
  Cu13     1.0000 0.22384  0.00000  0.72384  Biso   1.000  Cu
  Cu14     1.0000 0.22384  0.50000  0.22384  Biso   1.000  Cu
  Cu15     1.0000 0.77616  0.00000  0.27616  Biso   1.000  Cu
  Cu16     1.0000 0.77616  0.50000  0.77616  Biso   1.000  Cu
  Cu17     1.0000 0.27616  0.50000  0.27616  Biso   1.000  Cu
  Cu18     1.0000 0.77616  0.00000  0.72384  Biso   1.000  Cu
  Cu19     1.0000 0.77616  0.50000  0.22384  Biso   1.000  Cu
  Cu20     1.0000 0.27616  0.00000  0.22384  Biso   1.000  Cu
  Cu21     1.0000 0.27616  0.22384  0.00000  Biso   1.000  Cu
  Cu22     1.0000 0.27616  0.72384  0.50000  Biso   1.000  Cu
  Cu23     1.0000 0.72384  0.22384  0.00000  Biso   1.000  Cu
  Cu24     1.0000 0.72384  0.72384  0.50000  Biso   1.000  Cu
  Cu25     1.0000 0.22384  0.22384  0.50000  Biso   1.000  Cu
  Cu26     1.0000 0.27616  0.77616  0.00000  Biso   1.000  Cu
  Cu27     1.0000 0.27616  0.27616  0.50000  Biso   1.000  Cu
  Cu28     1.0000 0.72384  0.77616  0.00000  Biso   1.000  Cu
  Cu29     1.0000 0.72384  0.27616  0.50000  Biso   1.000  Cu
  Cu30     1.0000 0.22384  0.27616  0.00000  Biso   1.000  Cu
  Cu31     1.0000 0.27616  0.00000  0.77616  Biso   1.000  Cu
  Cu32     1.0000 0.72384  0.00000  0.77616  Biso   1.000  Cu
  Cu33     1.0000 0.72384  0.50000  0.27616  Biso   1.000  Cu
  Cu34     1.0000 0.27616  0.50000  0.72384  Biso   1.000  Cu
  Cu35     1.0000 0.72384  0.00000  0.22384  Biso   1.000  Cu
  Cu36     1.0000 0.72384  0.50000  0.72384  Biso   1.000  Cu
  Cu37     1.0000 0.00000  0.22384  0.72384  Biso   1.000  Cu
  Cu38     1.0000 0.50000  0.22384  0.77616  Biso   1.000  Cu
  Cu39     1.0000 0.00000  0.77616  0.72384  Biso   1.000  Cu
  Cu40     1.0000 0.50000  0.77616  0.22384  Biso   1.000  Cu
  Cu41     1.0000 0.00000  0.77616  0.27616  Biso   1.000  Cu
  Cu42     1.0000 0.50000  0.77616  0.77616  Biso   1.000  Cu
  Cu43     1.0000 0.22384  0.77616  0.50000  Biso   1.000  Cu
  Cu44     1.0000 0.22384  0.72384  0.00000  Biso   1.000  Cu
  Cu45     1.0000 0.77616  0.27616  0.00000  Biso   1.000  Cu
  Cu46     1.0000 0.77616  0.77616  0.50000  Biso   1.000  Cu
  Cu47     1.0000 0.77616  0.72384  0.00000  Biso   1.000  Cu
  Cu48     1.0000 0.77616  0.22384  0.50000  Biso   1.000  Cu
  C193     1.0000 0.94240  0.21350  0.21350  Biso   1.000  C
  C194     1.0000 0.90800  0.19354  0.19354  Biso   1.000  C
  C195     1.0000 0.94240  0.71350  0.71350  Biso   1.000  C
  C196     1.0000 0.90800  0.69354  0.69354  Biso   1.000  C
  C197     1.0000 0.44240  0.21350  0.71350  Biso   1.000  C
  C198     1.0000 0.40800  0.19354  0.69354  Biso   1.000  C
  C199     1.0000 0.44240  0.71350  0.21350  Biso   1.000  C
  C200     1.0000 0.40800  0.69354  0.19354  Biso   1.000  C
  C201     1.0000 0.05760  0.78650  0.21350  Biso   1.000  C
  C202     1.0000 0.09200  0.80646  0.19354  Biso   1.000  C
  C203     1.0000 0.05760  0.28650  0.71350  Biso   1.000  C
  C204     1.0000 0.09200  0.30646  0.69354  Biso   1.000  C
  C205     1.0000 0.55760  0.78650  0.71350  Biso   1.000  C
  C206     1.0000 0.59200  0.80646  0.69354  Biso   1.000  C
  C207     1.0000 0.55760  0.28650  0.21350  Biso   1.000  C
  C208     1.0000 0.59200  0.30646  0.19354  Biso   1.000  C
  C209     1.0000 0.05760  0.21350  0.78650  Biso   1.000  C
  C210     1.0000 0.09200  0.19354  0.80646  Biso   1.000  C
  C211     1.0000 0.05760  0.71350  0.28650  Biso   1.000  C
  C212     1.0000 0.09200  0.69354  0.30646  Biso   1.000  C
  C213     1.0000 0.55760  0.21350  0.28650  Biso   1.000  C
  C214     1.0000 0.59200  0.19354  0.30646  Biso   1.000  C
  C215     1.0000 0.55760  0.71350  0.78650  Biso   1.000  C
  C216     1.0000 0.59200  0.69354  0.80646  Biso   1.000  C
  C217     1.0000 0.94240  0.78650  0.78650  Biso   1.000  C
  C218     1.0000 0.90800  0.80646  0.80646  Biso   1.000  C
  C219     1.0000 0.94240  0.28650  0.28650  Biso   1.000  C
  C220     1.0000 0.90800  0.30646  0.30646  Biso   1.000  C
  C221     1.0000 0.44240  0.78650  0.28650  Biso   1.000  C
  C222     1.0000 0.40800  0.80646  0.30646  Biso   1.000  C
  C223     1.0000 0.44240  0.28650  0.78650  Biso   1.000  C
  C224     1.0000 0.40800  0.30646  0.80646  Biso   1.000  C
  C225     1.0000 0.21350  0.94240  0.21350  Biso   1.000  C
  C226     1.0000 0.19354  0.90800  0.19354  Biso   1.000  C
  C227     1.0000 0.21350  0.44240  0.71350  Biso   1.000  C
  C228     1.0000 0.19354  0.40800  0.69354  Biso   1.000  C
  C229     1.0000 0.71350  0.94240  0.71350  Biso   1.000  C
  C230     1.0000 0.69354  0.90800  0.69354  Biso   1.000  C
  C231     1.0000 0.71350  0.44240  0.21350  Biso   1.000  C
  C232     1.0000 0.69354  0.40800  0.19354  Biso   1.000  C
  C233     1.0000 0.21350  0.05760  0.78650  Biso   1.000  C
  C234     1.0000 0.19354  0.09200  0.80646  Biso   1.000  C
  C235     1.0000 0.21350  0.55760  0.28650  Biso   1.000  C
  C236     1.0000 0.19354  0.59200  0.30646  Biso   1.000  C
  C237     1.0000 0.71350  0.05760  0.28650  Biso   1.000  C
  C238     1.0000 0.69354  0.09200  0.30646  Biso   1.000  C
  C239     1.0000 0.71350  0.55760  0.78650  Biso   1.000  C
  C240     1.0000 0.69354  0.59200  0.80646  Biso   1.000  C
  C241     1.0000 0.78650  0.05760  0.21350  Biso   1.000  C
  C242     1.0000 0.80646  0.09200  0.19354  Biso   1.000  C
  C243     1.0000 0.78650  0.55760  0.71350  Biso   1.000  C
  C244     1.0000 0.80646  0.59200  0.69354  Biso   1.000  C
  C245     1.0000 0.28650  0.05760  0.71350  Biso   1.000  C
  C246     1.0000 0.30646  0.09200  0.69354  Biso   1.000  C
  C247     1.0000 0.28650  0.55760  0.21350  Biso   1.000  C
  C248     1.0000 0.30646  0.59200  0.19354  Biso   1.000  C
  C249     1.0000 0.78650  0.94240  0.78650  Biso   1.000  C
  C250     1.0000 0.80646  0.90800  0.80646  Biso   1.000  C
  C251     1.0000 0.78650  0.44240  0.28650  Biso   1.000  C
  C252     1.0000 0.80646  0.40800  0.30646  Biso   1.000  C
  C253     1.0000 0.28650  0.94240  0.28650  Biso   1.000  C
  C254     1.0000 0.30646  0.90800  0.30646  Biso   1.000  C
  C255     1.0000 0.28650  0.44240  0.78650  Biso   1.000  C
  C256     1.0000 0.30646  0.40800  0.80646  Biso   1.000  C
  C257     1.0000 0.21350  0.21350  0.94240  Biso   1.000  C
  C258     1.0000 0.19354  0.19354  0.90800  Biso   1.000  C
  C259     1.0000 0.21350  0.71350  0.44240  Biso   1.000  C
  C260     1.0000 0.19354  0.69354  0.40800  Biso   1.000  C
  C261     1.0000 0.71350  0.21350  0.44240  Biso   1.000  C
  C262     1.0000 0.69354  0.19354  0.40800  Biso   1.000  C
  C263     1.0000 0.71350  0.71350  0.94240  Biso   1.000  C
  C264     1.0000 0.69354  0.69354  0.90800  Biso   1.000  C
  C265     1.0000 0.78650  0.21350  0.05760  Biso   1.000  C
  C266     1.0000 0.80646  0.19354  0.09200  Biso   1.000  C
  C267     1.0000 0.78650  0.71350  0.55760  Biso   1.000  C
  C268     1.0000 0.80646  0.69354  0.59200  Biso   1.000  C
  C269     1.0000 0.28650  0.21350  0.55760  Biso   1.000  C
  C270     1.0000 0.30646  0.19354  0.59200  Biso   1.000  C
  C271     1.0000 0.28650  0.71350  0.05760  Biso   1.000  C
  C272     1.0000 0.30646  0.69354  0.09200  Biso   1.000  C
  C273     1.0000 0.21350  0.78650  0.05760  Biso   1.000  C
  C274     1.0000 0.19354  0.80646  0.09200  Biso   1.000  C
  C275     1.0000 0.21350  0.28650  0.55760  Biso   1.000  C
  C276     1.0000 0.19354  0.30646  0.59200  Biso   1.000  C
  C277     1.0000 0.71350  0.78650  0.55760  Biso   1.000  C
  C278     1.0000 0.69354  0.80646  0.59200  Biso   1.000  C
  C279     1.0000 0.71350  0.28650  0.05760  Biso   1.000  C
  C280     1.0000 0.69354  0.30646  0.09200  Biso   1.000  C
  C281     1.0000 0.78650  0.78650  0.94240  Biso   1.000  C
  C282     1.0000 0.80646  0.80646  0.90800  Biso   1.000  C
  C283     1.0000 0.78650  0.28650  0.44240  Biso   1.000  C
  C284     1.0000 0.80646  0.30646  0.40800  Biso   1.000  C
  C285     1.0000 0.28650  0.78650  0.44240  Biso   1.000  C
  C286     1.0000 0.30646  0.80646  0.40800  Biso   1.000  C
  C287     1.0000 0.28650  0.28650  0.94240  Biso   1.000  C
  C288     1.0000 0.30646  0.30646  0.90800  Biso   1.000  C
  C289     1.0000 0.21350  0.94240  0.78650  Biso   1.000  C
  C290     1.0000 0.19354  0.90800  0.80646  Biso   1.000  C
  C291     1.0000 0.21350  0.44240  0.28650  Biso   1.000  C
  C292     1.0000 0.19354  0.40800  0.30646  Biso   1.000  C
  C293     1.0000 0.71350  0.94240  0.28650  Biso   1.000  C
  C294     1.0000 0.69354  0.90800  0.30646  Biso   1.000  C
  C295     1.0000 0.71350  0.44240  0.78650  Biso   1.000  C
  C296     1.0000 0.69354  0.40800  0.80646  Biso   1.000  C
  C297     1.0000 0.78650  0.05760  0.78650  Biso   1.000  C
  C298     1.0000 0.80646  0.09200  0.80646  Biso   1.000  C
  C299     1.0000 0.78650  0.55760  0.28650  Biso   1.000  C
  C300     1.0000 0.80646  0.59200  0.30646  Biso   1.000  C
  C301     1.0000 0.28650  0.05760  0.28650  Biso   1.000  C
  C302     1.0000 0.30646  0.09200  0.30646  Biso   1.000  C
  C303     1.0000 0.28650  0.55760  0.78650  Biso   1.000  C
  C304     1.0000 0.30646  0.59200  0.80646  Biso   1.000  C
  C305     1.0000 0.21350  0.05760  0.21350  Biso   1.000  C
  C306     1.0000 0.19354  0.09200  0.19354  Biso   1.000  C
  C307     1.0000 0.21350  0.55760  0.71350  Biso   1.000  C
  C308     1.0000 0.19354  0.59200  0.69354  Biso   1.000  C
  C309     1.0000 0.71350  0.05760  0.71350  Biso   1.000  C
  C310     1.0000 0.69354  0.09200  0.69354  Biso   1.000  C
  C311     1.0000 0.71350  0.55760  0.21350  Biso   1.000  C
  C312     1.0000 0.69354  0.59200  0.19354  Biso   1.000  C
  C313     1.0000 0.78650  0.94240  0.21350  Biso   1.000  C
  C314     1.0000 0.80646  0.90800  0.19354  Biso   1.000  C
  C315     1.0000 0.78650  0.44240  0.71350  Biso   1.000  C
  C316     1.0000 0.80646  0.40800  0.69354  Biso   1.000  C
  C317     1.0000 0.28650  0.94240  0.71350  Biso   1.000  C
  C318     1.0000 0.30646  0.90800  0.69354  Biso   1.000  C
  C319     1.0000 0.28650  0.44240  0.21350  Biso   1.000  C
  C320     1.0000 0.30646  0.40800  0.19354  Biso   1.000  C
  C321     1.0000 0.94240  0.21350  0.78650  Biso   1.000  C
  C322     1.0000 0.90800  0.19354  0.80646  Biso   1.000  C
  C323     1.0000 0.94240  0.71350  0.28650  Biso   1.000  C
  C324     1.0000 0.90800  0.69354  0.30646  Biso   1.000  C
  C325     1.0000 0.44240  0.21350  0.28650  Biso   1.000  C
  C326     1.0000 0.40800  0.19354  0.30646  Biso   1.000  C
  C327     1.0000 0.44240  0.71350  0.78650  Biso   1.000  C
  C328     1.0000 0.40800  0.69354  0.80646  Biso   1.000  C
  C329     1.0000 0.05760  0.21350  0.21350  Biso   1.000  C
  C330     1.0000 0.09200  0.19354  0.19354  Biso   1.000  C
  C331     1.0000 0.05760  0.71350  0.71350  Biso   1.000  C
  C332     1.0000 0.09200  0.69354  0.69354  Biso   1.000  C
  C333     1.0000 0.55760  0.21350  0.71350  Biso   1.000  C
  C334     1.0000 0.59200  0.19354  0.69354  Biso   1.000  C
  C335     1.0000 0.55760  0.71350  0.21350  Biso   1.000  C
  C336     1.0000 0.59200  0.69354  0.19354  Biso   1.000  C
  C337     1.0000 0.05760  0.78650  0.78650  Biso   1.000  C
  C338     1.0000 0.09200  0.80646  0.80646  Biso   1.000  C
  C339     1.0000 0.05760  0.28650  0.28650  Biso   1.000  C
  C340     1.0000 0.09200  0.30646  0.30646  Biso   1.000  C
  C341     1.0000 0.55760  0.78650  0.28650  Biso   1.000  C
  C342     1.0000 0.59200  0.80646  0.30646  Biso   1.000  C
  C343     1.0000 0.55760  0.28650  0.78650  Biso   1.000  C
  C344     1.0000 0.59200  0.30646  0.80646  Biso   1.000  C
  C345     1.0000 0.94240  0.78650  0.21350  Biso   1.000  C
  C346     1.0000 0.90800  0.80646  0.19354  Biso   1.000  C
  C347     1.0000 0.94240  0.28650  0.71350  Biso   1.000  C
  C348     1.0000 0.90800  0.30646  0.69354  Biso   1.000  C
  C349     1.0000 0.44240  0.78650  0.71350  Biso   1.000  C
  C350     1.0000 0.40800  0.80646  0.69354  Biso   1.000  C
  C351     1.0000 0.44240  0.28650  0.21350  Biso   1.000  C
  C352     1.0000 0.40800  0.30646  0.19354  Biso   1.000  C
  C353     1.0000 0.21350  0.21350  0.05760  Biso   1.000  C
  C354     1.0000 0.19354  0.19354  0.09200  Biso   1.000  C
  C355     1.0000 0.21350  0.71350  0.55760  Biso   1.000  C
  C356     1.0000 0.19354  0.69354  0.59200  Biso   1.000  C
  C357     1.0000 0.71350  0.21350  0.55760  Biso   1.000  C
  C358     1.0000 0.69354  0.19354  0.59200  Biso   1.000  C
  C359     1.0000 0.71350  0.71350  0.05760  Biso   1.000  C
  C360     1.0000 0.69354  0.69354  0.09200  Biso   1.000  C
  C361     1.0000 0.21350  0.78650  0.94240  Biso   1.000  C
  C362     1.0000 0.19354  0.80646  0.90800  Biso   1.000  C
  C363     1.0000 0.21350  0.28650  0.44240  Biso   1.000  C
  C364     1.0000 0.19354  0.30646  0.40800  Biso   1.000  C
  C365     1.0000 0.71350  0.78650  0.44240  Biso   1.000  C
  C366     1.0000 0.69354  0.80646  0.40800  Biso   1.000  C
  C367     1.0000 0.71350  0.28650  0.94240  Biso   1.000  C
  C368     1.0000 0.69354  0.30646  0.90800  Biso   1.000  C
  C369     1.0000 0.78650  0.21350  0.94240  Biso   1.000  C
  C370     1.0000 0.80646  0.19354  0.90800  Biso   1.000  C
  C371     1.0000 0.78650  0.71350  0.44240  Biso   1.000  C
  C372     1.0000 0.80646  0.69354  0.40800  Biso   1.000  C
  C373     1.0000 0.28650  0.21350  0.44240  Biso   1.000  C
  C374     1.0000 0.30646  0.19354  0.40800  Biso   1.000  C
  C375     1.0000 0.28650  0.71350  0.94240  Biso   1.000  C
  C376     1.0000 0.30646  0.69354  0.90800  Biso   1.000  C
  C377     1.0000 0.78650  0.78650  0.05760  Biso   1.000  C
  C378     1.0000 0.80646  0.80646  0.09200  Biso   1.000  C
  C379     1.0000 0.78650  0.28650  0.55760  Biso   1.000  C
  C380     1.0000 0.80646  0.30646  0.59200  Biso   1.000  C
  C381     1.0000 0.28650  0.78650  0.55760  Biso   1.000  C
  C382     1.0000 0.30646  0.80646  0.59200  Biso   1.000  C
  C383     1.0000 0.28650  0.28650  0.05760  Biso   1.000  C
  C384     1.0000 0.30646  0.30646  0.09200  Biso   1.000  C
  C385     1.0000 0.85880  0.14120  0.19220  Biso   1.000  C
  C386     1.0000 0.85880  0.64120  0.69220  Biso   1.000  C
  C387     1.0000 0.35880  0.14120  0.69220  Biso   1.000  C
  C388     1.0000 0.35880  0.64120  0.19220  Biso   1.000  C
  C389     1.0000 0.14120  0.85880  0.19220  Biso   1.000  C
  C390     1.0000 0.14120  0.35880  0.69220  Biso   1.000  C
  C391     1.0000 0.64120  0.85880  0.69220  Biso   1.000  C
  C392     1.0000 0.64120  0.35880  0.19220  Biso   1.000  C
  C393     1.0000 0.14120  0.14120  0.80780  Biso   1.000  C
  C394     1.0000 0.14120  0.64120  0.30780  Biso   1.000  C
  C395     1.0000 0.64120  0.14120  0.30780  Biso   1.000  C
  C396     1.0000 0.64120  0.64120  0.80780  Biso   1.000  C
  C397     1.0000 0.85880  0.85880  0.80780  Biso   1.000  C
  C398     1.0000 0.85880  0.35880  0.30780  Biso   1.000  C
  C399     1.0000 0.35880  0.85880  0.30780  Biso   1.000  C
  C400     1.0000 0.35880  0.35880  0.80780  Biso   1.000  C
  C401     1.0000 0.19220  0.85880  0.14120  Biso   1.000  C
  C402     1.0000 0.19220  0.35880  0.64120  Biso   1.000  C
  C403     1.0000 0.69220  0.85880  0.64120  Biso   1.000  C
  C404     1.0000 0.69220  0.35880  0.14120  Biso   1.000  C
  C405     1.0000 0.19220  0.14120  0.85880  Biso   1.000  C
  C406     1.0000 0.19220  0.64120  0.35880  Biso   1.000  C
  C407     1.0000 0.69220  0.14120  0.35880  Biso   1.000  C
  C408     1.0000 0.69220  0.64120  0.85880  Biso   1.000  C
  C409     1.0000 0.80780  0.14120  0.14120  Biso   1.000  C
  C410     1.0000 0.80780  0.64120  0.64120  Biso   1.000  C
  C411     1.0000 0.30780  0.14120  0.64120  Biso   1.000  C
  C412     1.0000 0.30780  0.64120  0.14120  Biso   1.000  C
  C413     1.0000 0.80780  0.85880  0.85880  Biso   1.000  C
  C414     1.0000 0.80780  0.35880  0.35880  Biso   1.000  C
  C415     1.0000 0.30780  0.85880  0.35880  Biso   1.000  C
  C416     1.0000 0.30780  0.35880  0.85880  Biso   1.000  C
  C417     1.0000 0.14120  0.19220  0.85880  Biso   1.000  C
  C418     1.0000 0.14120  0.69220  0.35880  Biso   1.000  C
  C419     1.0000 0.64120  0.19220  0.35880  Biso   1.000  C
  C420     1.0000 0.64120  0.69220  0.85880  Biso   1.000  C
  C421     1.0000 0.85880  0.19220  0.14120  Biso   1.000  C
  C422     1.0000 0.85880  0.69220  0.64120  Biso   1.000  C
  C423     1.0000 0.35880  0.19220  0.64120  Biso   1.000  C
  C424     1.0000 0.35880  0.69220  0.14120  Biso   1.000  C
  C425     1.0000 0.14120  0.80780  0.14120  Biso   1.000  C
  C426     1.0000 0.14120  0.30780  0.64120  Biso   1.000  C
  C427     1.0000 0.64120  0.80780  0.64120  Biso   1.000  C
  C428     1.0000 0.64120  0.30780  0.14120  Biso   1.000  C
  C429     1.0000 0.85880  0.80780  0.85880  Biso   1.000  C
  C430     1.0000 0.85880  0.30780  0.35880  Biso   1.000  C
  C431     1.0000 0.35880  0.80780  0.35880  Biso   1.000  C
  C432     1.0000 0.35880  0.30780  0.85880  Biso   1.000  C
  C433     1.0000 0.14120  0.85880  0.80780  Biso   1.000  C
  C434     1.0000 0.14120  0.35880  0.30780  Biso   1.000  C
  C435     1.0000 0.64120  0.85880  0.30780  Biso   1.000  C
  C436     1.0000 0.64120  0.35880  0.80780  Biso   1.000  C
  C437     1.0000 0.85880  0.14120  0.80780  Biso   1.000  C
  C438     1.0000 0.85880  0.64120  0.30780  Biso   1.000  C
  C439     1.0000 0.35880  0.14120  0.30780  Biso   1.000  C
  C440     1.0000 0.35880  0.64120  0.80780  Biso   1.000  C
  C441     1.0000 0.14120  0.14120  0.19220  Biso   1.000  C
  C442     1.0000 0.14120  0.64120  0.69220  Biso   1.000  C
  C443     1.0000 0.64120  0.14120  0.69220  Biso   1.000  C
  C444     1.0000 0.64120  0.64120  0.19220  Biso   1.000  C
  C445     1.0000 0.85880  0.85880  0.19220  Biso   1.000  C
  C446     1.0000 0.85880  0.35880  0.69220  Biso   1.000  C
  C447     1.0000 0.35880  0.85880  0.69220  Biso   1.000  C
  C448     1.0000 0.35880  0.35880  0.19220  Biso   1.000  C
  C449     1.0000 0.85880  0.19220  0.85880  Biso   1.000  C
  C450     1.0000 0.85880  0.69220  0.35880  Biso   1.000  C
  C451     1.0000 0.35880  0.19220  0.35880  Biso   1.000  C
  C452     1.0000 0.35880  0.69220  0.85880  Biso   1.000  C
  C453     1.0000 0.14120  0.19220  0.14120  Biso   1.000  C
  C454     1.0000 0.14120  0.69220  0.64120  Biso   1.000  C
  C455     1.0000 0.64120  0.19220  0.64120  Biso   1.000  C
  C456     1.0000 0.64120  0.69220  0.14120  Biso   1.000  C
  C457     1.0000 0.14120  0.80780  0.85880  Biso   1.000  C
  C458     1.0000 0.14120  0.30780  0.35880  Biso   1.000  C
  C459     1.0000 0.64120  0.80780  0.35880  Biso   1.000  C
  C460     1.0000 0.64120  0.30780  0.85880  Biso   1.000  C
  C461     1.0000 0.85880  0.80780  0.14120  Biso   1.000  C
  C462     1.0000 0.85880  0.30780  0.64120  Biso   1.000  C
  C463     1.0000 0.35880  0.80780  0.64120  Biso   1.000  C
  C464     1.0000 0.35880  0.30780  0.14120  Biso   1.000  C
  C465     1.0000 0.19220  0.14120  0.14120  Biso   1.000  C
  C466     1.0000 0.19220  0.64120  0.64120  Biso   1.000  C
  C467     1.0000 0.69220  0.14120  0.64120  Biso   1.000  C
  C468     1.0000 0.69220  0.64120  0.14120  Biso   1.000  C
  C469     1.0000 0.19220  0.85880  0.85880  Biso   1.000  C
  C470     1.0000 0.19220  0.35880  0.35880  Biso   1.000  C
  C471     1.0000 0.69220  0.85880  0.35880  Biso   1.000  C
  C472     1.0000 0.69220  0.35880  0.85880  Biso   1.000  C
  C473     1.0000 0.80780  0.14120  0.85880  Biso   1.000  C
  C474     1.0000 0.80780  0.64120  0.35880  Biso   1.000  C
  C475     1.0000 0.30780  0.14120  0.35880  Biso   1.000  C
  C476     1.0000 0.30780  0.64120  0.85880  Biso   1.000  C
  C477     1.0000 0.80780  0.85880  0.14120  Biso   1.000  C
  C478     1.0000 0.80780  0.35880  0.64120  Biso   1.000  C
  C479     1.0000 0.30780  0.85880  0.64120  Biso   1.000  C
  C480     1.0000 0.30780  0.35880  0.14120  Biso   1.000  C
  C481     1.0000 0.84340  0.15660  0.15660  Biso   1.000  C
  C482     1.0000 0.84340  0.65660  0.65660  Biso   1.000  C
  C483     1.0000 0.34340  0.15660  0.65660  Biso   1.000  C
  C484     1.0000 0.34340  0.65660  0.15660  Biso   1.000  C
  C485     1.0000 0.15660  0.84340  0.15660  Biso   1.000  C
  C486     1.0000 0.15660  0.34340  0.65660  Biso   1.000  C
  C487     1.0000 0.65660  0.84340  0.65660  Biso   1.000  C
  C488     1.0000 0.65660  0.34340  0.15660  Biso   1.000  C
  C489     1.0000 0.15660  0.15660  0.84340  Biso   1.000  C
  C490     1.0000 0.15660  0.65660  0.34340  Biso   1.000  C
  C491     1.0000 0.65660  0.15660  0.34340  Biso   1.000  C
  C492     1.0000 0.65660  0.65660  0.84340  Biso   1.000  C
  C493     1.0000 0.84340  0.84340  0.84340  Biso   1.000  C
  C494     1.0000 0.84340  0.34340  0.34340  Biso   1.000  C
  C495     1.0000 0.34340  0.84340  0.34340  Biso   1.000  C
  C496     1.0000 0.34340  0.34340  0.84340  Biso   1.000  C
  C497     1.0000 0.15660  0.84340  0.84340  Biso   1.000  C
  C498     1.0000 0.15660  0.34340  0.34340  Biso   1.000  C
  C499     1.0000 0.65660  0.84340  0.34340  Biso   1.000  C
  C500     1.0000 0.65660  0.34340  0.84340  Biso   1.000  C
  C501     1.0000 0.84340  0.15660  0.84340  Biso   1.000  C
  C502     1.0000 0.84340  0.65660  0.34340  Biso   1.000  C
  C503     1.0000 0.34340  0.15660  0.34340  Biso   1.000  C
  C504     1.0000 0.34340  0.65660  0.84340  Biso   1.000  C
  C505     1.0000 0.15660  0.15660  0.15660  Biso   1.000  C
  C506     1.0000 0.15660  0.65660  0.65660  Biso   1.000  C
  C507     1.0000 0.65660  0.15660  0.65660  Biso   1.000  C
  C508     1.0000 0.65660  0.65660  0.15660  Biso   1.000  C
  C509     1.0000 0.84340  0.84340  0.15660  Biso   1.000  C
  C510     1.0000 0.84340  0.34340  0.65660  Biso   1.000  C
  C511     1.0000 0.34340  0.84340  0.65660  Biso   1.000  C
  C512     1.0000 0.34340  0.34340  0.15660  Biso   1.000  C
