data_image0
_cell_length_a       29.8307
_cell_length_b       29.8307
_cell_length_c       29.8307
_cell_angle_alpha    90
_cell_angle_beta     90
_cell_angle_gamma    90

_symmetry_space_group_name_H-M    "P 1"
_symmetry_int_tables_number       1

loop_
  _symmetry_equiv_pos_as_xyz
  'x, y, z'

loop_
  _atom_site_label
  _atom_site_occupancy
  _atom_site_fract_x
  _atom_site_fract_y
  _atom_site_fract_z
  _atom_site_thermal_displace_type
  _atom_site_B_iso_or_equiv
  _atom_site_type_symbol
  O1       1.0000 0.16880  0.27200  0.45960  Biso   1.000  O
  C1       1.0000 0.18130  0.23150  0.43740  Biso   1.000  C
  C2       1.0000 0.15840  0.21210  0.39870  Biso   1.000  C
  O2       1.0000 0.16880  0.77200  0.95960  Biso   1.000  O
  C3       1.0000 0.18130  0.73150  0.93740  Biso   1.000  C
  C4       1.0000 0.15840  0.71210  0.89870  Biso   1.000  C
  O3       1.0000 0.66880  0.27200  0.95960  Biso   1.000  O
  C5       1.0000 0.68130  0.23150  0.93740  Biso   1.000  C
  C6       1.0000 0.65840  0.21210  0.89870  Biso   1.000  C
  O4       1.0000 0.66880  0.77200  0.45960  Biso   1.000  O
  C7       1.0000 0.68130  0.73150  0.43740  Biso   1.000  C
  C8       1.0000 0.65840  0.71210  0.39870  Biso   1.000  C
  O5       1.0000 0.83120  0.72800  0.45960  Biso   1.000  O
  C9       1.0000 0.81870  0.76850  0.43740  Biso   1.000  C
  C10      1.0000 0.84160  0.78790  0.39870  Biso   1.000  C
  O6       1.0000 0.83120  0.22800  0.95960  Biso   1.000  O
  C11      1.0000 0.81870  0.26850  0.93740  Biso   1.000  C
  C12      1.0000 0.84160  0.28790  0.89870  Biso   1.000  C
  O7       1.0000 0.33120  0.72800  0.95960  Biso   1.000  O
  C13      1.0000 0.31870  0.76850  0.93740  Biso   1.000  C
  C14      1.0000 0.34160  0.78790  0.89870  Biso   1.000  C
  O8       1.0000 0.33120  0.22800  0.45960  Biso   1.000  O
  C15      1.0000 0.31870  0.26850  0.43740  Biso   1.000  C
  C16      1.0000 0.34160  0.28790  0.39870  Biso   1.000  C
  O9       1.0000 0.83120  0.27200  0.54040  Biso   1.000  O
  C17      1.0000 0.81870  0.23150  0.56260  Biso   1.000  C
  C18      1.0000 0.84160  0.21210  0.60130  Biso   1.000  C
  O10      1.0000 0.83120  0.77200  0.04040  Biso   1.000  O
  C19      1.0000 0.81870  0.73150  0.06260  Biso   1.000  C
  C20      1.0000 0.84160  0.71210  0.10130  Biso   1.000  C
  O11      1.0000 0.33120  0.27200  0.04040  Biso   1.000  O
  C21      1.0000 0.31870  0.23150  0.06260  Biso   1.000  C
  C22      1.0000 0.34160  0.21210  0.10130  Biso   1.000  C
  O12      1.0000 0.33120  0.77200  0.54040  Biso   1.000  O
  C23      1.0000 0.31870  0.73150  0.56260  Biso   1.000  C
  C24      1.0000 0.34160  0.71210  0.60130  Biso   1.000  C
  O13      1.0000 0.16880  0.72800  0.54040  Biso   1.000  O
  C25      1.0000 0.18130  0.76850  0.56260  Biso   1.000  C
  C26      1.0000 0.15840  0.78790  0.60130  Biso   1.000  C
  O14      1.0000 0.16880  0.22800  0.04040  Biso   1.000  O
  C27      1.0000 0.18130  0.26850  0.06260  Biso   1.000  C
  C28      1.0000 0.15840  0.28790  0.10130  Biso   1.000  C
  O15      1.0000 0.66880  0.72800  0.04040  Biso   1.000  O
  C29      1.0000 0.68130  0.76850  0.06260  Biso   1.000  C
  C30      1.0000 0.65840  0.78790  0.10130  Biso   1.000  C
  O16      1.0000 0.66880  0.22800  0.54040  Biso   1.000  O
  C31      1.0000 0.68130  0.26850  0.56260  Biso   1.000  C
  C32      1.0000 0.65840  0.28790  0.60130  Biso   1.000  C
  O17      1.0000 0.45960  0.16880  0.27200  Biso   1.000  O
  C33      1.0000 0.43740  0.18130  0.23150  Biso   1.000  C
  C34      1.0000 0.39870  0.15840  0.21210  Biso   1.000  C
  O18      1.0000 0.45960  0.66880  0.77200  Biso   1.000  O
  C35      1.0000 0.43740  0.68130  0.73150  Biso   1.000  C
  C36      1.0000 0.39870  0.65840  0.71210  Biso   1.000  C
  O19      1.0000 0.95960  0.16880  0.77200  Biso   1.000  O
  C37      1.0000 0.93740  0.18130  0.73150  Biso   1.000  C
  C38      1.0000 0.89870  0.15840  0.71210  Biso   1.000  C
  O20      1.0000 0.95960  0.66880  0.27200  Biso   1.000  O
  C39      1.0000 0.93740  0.68130  0.23150  Biso   1.000  C
  C40      1.0000 0.89870  0.65840  0.21210  Biso   1.000  C
  O21      1.0000 0.45960  0.83120  0.72800  Biso   1.000  O
  C41      1.0000 0.43740  0.81870  0.76850  Biso   1.000  C
  C42      1.0000 0.39870  0.84160  0.78790  Biso   1.000  C
  O22      1.0000 0.45960  0.33120  0.22800  Biso   1.000  O
  C43      1.0000 0.43740  0.31870  0.26850  Biso   1.000  C
  C44      1.0000 0.39870  0.34160  0.28790  Biso   1.000  C
  O23      1.0000 0.95960  0.83120  0.22800  Biso   1.000  O
  C45      1.0000 0.93740  0.81870  0.26850  Biso   1.000  C
  C46      1.0000 0.89870  0.84160  0.28790  Biso   1.000  C
  O24      1.0000 0.95960  0.33120  0.72800  Biso   1.000  O
  C47      1.0000 0.93740  0.31870  0.76850  Biso   1.000  C
  C48      1.0000 0.89870  0.34160  0.78790  Biso   1.000  C
  O25      1.0000 0.54040  0.83120  0.27200  Biso   1.000  O
  C49      1.0000 0.56260  0.81870  0.23150  Biso   1.000  C
  C50      1.0000 0.60130  0.84160  0.21210  Biso   1.000  C
  O26      1.0000 0.54040  0.33120  0.77200  Biso   1.000  O
  C51      1.0000 0.56260  0.31870  0.73150  Biso   1.000  C
  C52      1.0000 0.60130  0.34160  0.71210  Biso   1.000  C
  O27      1.0000 0.04040  0.83120  0.77200  Biso   1.000  O
  C53      1.0000 0.06260  0.81870  0.73150  Biso   1.000  C
  C54      1.0000 0.10130  0.84160  0.71210  Biso   1.000  C
  O28      1.0000 0.04040  0.33120  0.27200  Biso   1.000  O
  C55      1.0000 0.06260  0.31870  0.23150  Biso   1.000  C
  C56      1.0000 0.10130  0.34160  0.21210  Biso   1.000  C
  O29      1.0000 0.54040  0.16880  0.72800  Biso   1.000  O
  C57      1.0000 0.56260  0.18130  0.76850  Biso   1.000  C
  C58      1.0000 0.60130  0.15840  0.78790  Biso   1.000  C
  O30      1.0000 0.54040  0.66880  0.22800  Biso   1.000  O
  C59      1.0000 0.56260  0.68130  0.26850  Biso   1.000  C
  C60      1.0000 0.60130  0.65840  0.28790  Biso   1.000  C
  O31      1.0000 0.04040  0.16880  0.22800  Biso   1.000  O
  C61      1.0000 0.06260  0.18130  0.26850  Biso   1.000  C
  C62      1.0000 0.10130  0.15840  0.28790  Biso   1.000  C
  O32      1.0000 0.04040  0.66880  0.72800  Biso   1.000  O
  C63      1.0000 0.06260  0.68130  0.76850  Biso   1.000  C
  C64      1.0000 0.10130  0.65840  0.78790  Biso   1.000  C
  O33      1.0000 0.27200  0.45960  0.16880  Biso   1.000  O
  C65      1.0000 0.23150  0.43740  0.18130  Biso   1.000  C
  C66      1.0000 0.21210  0.39870  0.15840  Biso   1.000  C
  O34      1.0000 0.27200  0.95960  0.66880  Biso   1.000  O
  C67      1.0000 0.23150  0.93740  0.68130  Biso   1.000  C
  C68      1.0000 0.21210  0.89870  0.65840  Biso   1.000  C
  O35      1.0000 0.77200  0.45960  0.66880  Biso   1.000  O
  C69      1.0000 0.73150  0.43740  0.68130  Biso   1.000  C
  C70      1.0000 0.71210  0.39870  0.65840  Biso   1.000  C
  O36      1.0000 0.77200  0.95960  0.16880  Biso   1.000  O
  C71      1.0000 0.73150  0.93740  0.18130  Biso   1.000  C
  C72      1.0000 0.71210  0.89870  0.15840  Biso   1.000  C
  O37      1.0000 0.72800  0.45960  0.83120  Biso   1.000  O
  C73      1.0000 0.76850  0.43740  0.81870  Biso   1.000  C
  C74      1.0000 0.78790  0.39870  0.84160  Biso   1.000  C
  O38      1.0000 0.72800  0.95960  0.33120  Biso   1.000  O
  C75      1.0000 0.76850  0.93740  0.31870  Biso   1.000  C
  C76      1.0000 0.78790  0.89870  0.34160  Biso   1.000  C
  O39      1.0000 0.22800  0.45960  0.33120  Biso   1.000  O
  C77      1.0000 0.26850  0.43740  0.31870  Biso   1.000  C
  C78      1.0000 0.28790  0.39870  0.34160  Biso   1.000  C
  O40      1.0000 0.22800  0.95960  0.83120  Biso   1.000  O
  C79      1.0000 0.26850  0.93740  0.81870  Biso   1.000  C
  C80      1.0000 0.28790  0.89870  0.84160  Biso   1.000  C
  O41      1.0000 0.27200  0.54040  0.83120  Biso   1.000  O
  C81      1.0000 0.23150  0.56260  0.81870  Biso   1.000  C
  C82      1.0000 0.21210  0.60130  0.84160  Biso   1.000  C
  O42      1.0000 0.27200  0.04040  0.33120  Biso   1.000  O
  C83      1.0000 0.23150  0.06260  0.31870  Biso   1.000  C
  C84      1.0000 0.21210  0.10130  0.34160  Biso   1.000  C
  O43      1.0000 0.77200  0.54040  0.33120  Biso   1.000  O
  C85      1.0000 0.73150  0.56260  0.31870  Biso   1.000  C
  C86      1.0000 0.71210  0.60130  0.34160  Biso   1.000  C
  O44      1.0000 0.77200  0.04040  0.83120  Biso   1.000  O
  C87      1.0000 0.73150  0.06260  0.81870  Biso   1.000  C
  C88      1.0000 0.71210  0.10130  0.84160  Biso   1.000  C
  O45      1.0000 0.72800  0.54040  0.16880  Biso   1.000  O
  C89      1.0000 0.76850  0.56260  0.18130  Biso   1.000  C
  C90      1.0000 0.78790  0.60130  0.15840  Biso   1.000  C
  O46      1.0000 0.72800  0.04040  0.66880  Biso   1.000  O
  C91      1.0000 0.76850  0.06260  0.68130  Biso   1.000  C
  C92      1.0000 0.78790  0.10130  0.65840  Biso   1.000  C
  O47      1.0000 0.22800  0.54040  0.66880  Biso   1.000  O
  C93      1.0000 0.26850  0.56260  0.68130  Biso   1.000  C
  C94      1.0000 0.28790  0.60130  0.65840  Biso   1.000  C
  O48      1.0000 0.22800  0.04040  0.16880  Biso   1.000  O
  C95      1.0000 0.26850  0.06260  0.18130  Biso   1.000  C
  C96      1.0000 0.28790  0.10130  0.15840  Biso   1.000  C
  O49      1.0000 0.27200  0.16880  0.54040  Biso   1.000  O
  C97      1.0000 0.23150  0.18130  0.56260  Biso   1.000  C
  C98      1.0000 0.21210  0.15840  0.60130  Biso   1.000  C
  O50      1.0000 0.27200  0.66880  0.04040  Biso   1.000  O
  C99      1.0000 0.23150  0.68130  0.06260  Biso   1.000  C
  C100     1.0000 0.21210  0.65840  0.10130  Biso   1.000  C
  O51      1.0000 0.77200  0.16880  0.04040  Biso   1.000  O
  C101     1.0000 0.73150  0.18130  0.06260  Biso   1.000  C
  C102     1.0000 0.71210  0.15840  0.10130  Biso   1.000  C
  O52      1.0000 0.77200  0.66880  0.54040  Biso   1.000  O
  C103     1.0000 0.73150  0.68130  0.56260  Biso   1.000  C
  C104     1.0000 0.71210  0.65840  0.60130  Biso   1.000  C
  O53      1.0000 0.72800  0.83120  0.54040  Biso   1.000  O
  C105     1.0000 0.76850  0.81870  0.56260  Biso   1.000  C
  C106     1.0000 0.78790  0.84160  0.60130  Biso   1.000  C
  O54      1.0000 0.72800  0.33120  0.04040  Biso   1.000  O
  C107     1.0000 0.76850  0.31870  0.06260  Biso   1.000  C
  C108     1.0000 0.78790  0.34160  0.10130  Biso   1.000  C
  O55      1.0000 0.22800  0.83120  0.04040  Biso   1.000  O
  C109     1.0000 0.26850  0.81870  0.06260  Biso   1.000  C
  C110     1.0000 0.28790  0.84160  0.10130  Biso   1.000  C
  O56      1.0000 0.22800  0.33120  0.54040  Biso   1.000  O
  C111     1.0000 0.26850  0.31870  0.56260  Biso   1.000  C
  C112     1.0000 0.28790  0.34160  0.60130  Biso   1.000  C
  O57      1.0000 0.27200  0.83120  0.45960  Biso   1.000  O
  C113     1.0000 0.23150  0.81870  0.43740  Biso   1.000  C
  C114     1.0000 0.21210  0.84160  0.39870  Biso   1.000  C
  O58      1.0000 0.27200  0.33120  0.95960  Biso   1.000  O
  C115     1.0000 0.23150  0.31870  0.93740  Biso   1.000  C
  C116     1.0000 0.21210  0.34160  0.89870  Biso   1.000  C
  O59      1.0000 0.77200  0.83120  0.95960  Biso   1.000  O
  C117     1.0000 0.73150  0.81870  0.93740  Biso   1.000  C
  C118     1.0000 0.71210  0.84160  0.89870  Biso   1.000  C
  O60      1.0000 0.77200  0.33120  0.45960  Biso   1.000  O
  C119     1.0000 0.73150  0.31870  0.43740  Biso   1.000  C
  C120     1.0000 0.71210  0.34160  0.39870  Biso   1.000  C
  O61      1.0000 0.72800  0.16880  0.45960  Biso   1.000  O
  C121     1.0000 0.76850  0.18130  0.43740  Biso   1.000  C
  C122     1.0000 0.78790  0.15840  0.39870  Biso   1.000  C
  O62      1.0000 0.72800  0.66880  0.95960  Biso   1.000  O
  C123     1.0000 0.76850  0.68130  0.93740  Biso   1.000  C
  C124     1.0000 0.78790  0.65840  0.89870  Biso   1.000  C
  O63      1.0000 0.22800  0.16880  0.95960  Biso   1.000  O
  C125     1.0000 0.26850  0.18130  0.93740  Biso   1.000  C
  C126     1.0000 0.28790  0.15840  0.89870  Biso   1.000  C
  O64      1.0000 0.22800  0.66880  0.45960  Biso   1.000  O
  C127     1.0000 0.26850  0.68130  0.43740  Biso   1.000  C
  C128     1.0000 0.28790  0.65840  0.39870  Biso   1.000  C
  O65      1.0000 0.16880  0.45960  0.72800  Biso   1.000  O
  C129     1.0000 0.18130  0.43740  0.76850  Biso   1.000  C
  C130     1.0000 0.15840  0.39870  0.78790  Biso   1.000  C
  O66      1.0000 0.16880  0.95960  0.22800  Biso   1.000  O
  C131     1.0000 0.18130  0.93740  0.26850  Biso   1.000  C
  C132     1.0000 0.15840  0.89870  0.28790  Biso   1.000  C
  O67      1.0000 0.66880  0.45960  0.22800  Biso   1.000  O
  C133     1.0000 0.68130  0.43740  0.26850  Biso   1.000  C
  C134     1.0000 0.65840  0.39870  0.28790  Biso   1.000  C
  O68      1.0000 0.66880  0.95960  0.72800  Biso   1.000  O
  C135     1.0000 0.68130  0.93740  0.76850  Biso   1.000  C
  C136     1.0000 0.65840  0.89870  0.78790  Biso   1.000  C
  O69      1.0000 0.83120  0.45960  0.27200  Biso   1.000  O
  C137     1.0000 0.81870  0.43740  0.23150  Biso   1.000  C
  C138     1.0000 0.84160  0.39870  0.21210  Biso   1.000  C
  O70      1.0000 0.83120  0.95960  0.77200  Biso   1.000  O
  C139     1.0000 0.81870  0.93740  0.73150  Biso   1.000  C
  C140     1.0000 0.84160  0.89870  0.71210  Biso   1.000  C
  O71      1.0000 0.33120  0.45960  0.77200  Biso   1.000  O
  C141     1.0000 0.31870  0.43740  0.73150  Biso   1.000  C
  C142     1.0000 0.34160  0.39870  0.71210  Biso   1.000  C
  O72      1.0000 0.33120  0.95960  0.27200  Biso   1.000  O
  C143     1.0000 0.31870  0.93740  0.23150  Biso   1.000  C
  C144     1.0000 0.34160  0.89870  0.21210  Biso   1.000  C
  O73      1.0000 0.83120  0.54040  0.72800  Biso   1.000  O
  C145     1.0000 0.81870  0.56260  0.76850  Biso   1.000  C
  C146     1.0000 0.84160  0.60130  0.78790  Biso   1.000  C
  O74      1.0000 0.83120  0.04040  0.22800  Biso   1.000  O
  C147     1.0000 0.81870  0.06260  0.26850  Biso   1.000  C
  C148     1.0000 0.84160  0.10130  0.28790  Biso   1.000  C
  O75      1.0000 0.33120  0.54040  0.22800  Biso   1.000  O
  C149     1.0000 0.31870  0.56260  0.26850  Biso   1.000  C
  C150     1.0000 0.34160  0.60130  0.28790  Biso   1.000  C
  O76      1.0000 0.33120  0.04040  0.72800  Biso   1.000  O
  C151     1.0000 0.31870  0.06260  0.76850  Biso   1.000  C
  C152     1.0000 0.34160  0.10130  0.78790  Biso   1.000  C
  O77      1.0000 0.16880  0.54040  0.27200  Biso   1.000  O
  C153     1.0000 0.18130  0.56260  0.23150  Biso   1.000  C
  C154     1.0000 0.15840  0.60130  0.21210  Biso   1.000  C
  O78      1.0000 0.16880  0.04040  0.77200  Biso   1.000  O
  C155     1.0000 0.18130  0.06260  0.73150  Biso   1.000  C
  C156     1.0000 0.15840  0.10130  0.71210  Biso   1.000  C
  O79      1.0000 0.66880  0.54040  0.77200  Biso   1.000  O
  C157     1.0000 0.68130  0.56260  0.73150  Biso   1.000  C
  C158     1.0000 0.65840  0.60130  0.71210  Biso   1.000  C
  O80      1.0000 0.66880  0.04040  0.27200  Biso   1.000  O
  C159     1.0000 0.68130  0.06260  0.23150  Biso   1.000  C
  C160     1.0000 0.65840  0.10130  0.21210  Biso   1.000  C
  O81      1.0000 0.45960  0.27200  0.83120  Biso   1.000  O
  C161     1.0000 0.43740  0.23150  0.81870  Biso   1.000  C
  C162     1.0000 0.39870  0.21210  0.84160  Biso   1.000  C
  O82      1.0000 0.45960  0.77200  0.33120  Biso   1.000  O
  C163     1.0000 0.43740  0.73150  0.31870  Biso   1.000  C
  C164     1.0000 0.39870  0.71210  0.34160  Biso   1.000  C
  O83      1.0000 0.95960  0.27200  0.33120  Biso   1.000  O
  C165     1.0000 0.93740  0.23150  0.31870  Biso   1.000  C
  C166     1.0000 0.89870  0.21210  0.34160  Biso   1.000  C
  O84      1.0000 0.95960  0.77200  0.83120  Biso   1.000  O
  C167     1.0000 0.93740  0.73150  0.81870  Biso   1.000  C
  C168     1.0000 0.89870  0.71210  0.84160  Biso   1.000  C
  O85      1.0000 0.45960  0.72800  0.16880  Biso   1.000  O
  C169     1.0000 0.43740  0.76850  0.18130  Biso   1.000  C
  C170     1.0000 0.39870  0.78790  0.15840  Biso   1.000  C
  O86      1.0000 0.45960  0.22800  0.66880  Biso   1.000  O
  C171     1.0000 0.43740  0.26850  0.68130  Biso   1.000  C
  C172     1.0000 0.39870  0.28790  0.65840  Biso   1.000  C
  O87      1.0000 0.95960  0.72800  0.66880  Biso   1.000  O
  C173     1.0000 0.93740  0.76850  0.68130  Biso   1.000  C
  C174     1.0000 0.89870  0.78790  0.65840  Biso   1.000  C
  O88      1.0000 0.95960  0.22800  0.16880  Biso   1.000  O
  C175     1.0000 0.93740  0.26850  0.18130  Biso   1.000  C
  C176     1.0000 0.89870  0.28790  0.15840  Biso   1.000  C
  O89      1.0000 0.54040  0.27200  0.16880  Biso   1.000  O
  C177     1.0000 0.56260  0.23150  0.18130  Biso   1.000  C
  C178     1.0000 0.60130  0.21210  0.15840  Biso   1.000  C
  O90      1.0000 0.54040  0.77200  0.66880  Biso   1.000  O
  C179     1.0000 0.56260  0.73150  0.68130  Biso   1.000  C
  C180     1.0000 0.60130  0.71210  0.65840  Biso   1.000  C
  O91      1.0000 0.04040  0.27200  0.66880  Biso   1.000  O
  C181     1.0000 0.06260  0.23150  0.68130  Biso   1.000  C
  C182     1.0000 0.10130  0.21210  0.65840  Biso   1.000  C
  O92      1.0000 0.04040  0.77200  0.16880  Biso   1.000  O
  C183     1.0000 0.06260  0.73150  0.18130  Biso   1.000  C
  C184     1.0000 0.10130  0.71210  0.15840  Biso   1.000  C
  O93      1.0000 0.54040  0.72800  0.83120  Biso   1.000  O
  C185     1.0000 0.56260  0.76850  0.81870  Biso   1.000  C
  C186     1.0000 0.60130  0.78790  0.84160  Biso   1.000  C
  O94      1.0000 0.54040  0.22800  0.33120  Biso   1.000  O
  C187     1.0000 0.56260  0.26850  0.31870  Biso   1.000  C
  C188     1.0000 0.60130  0.28790  0.34160  Biso   1.000  C
  O95      1.0000 0.04040  0.72800  0.33120  Biso   1.000  O
  C189     1.0000 0.06260  0.76850  0.31870  Biso   1.000  C
  C190     1.0000 0.10130  0.78790  0.34160  Biso   1.000  C
  O96      1.0000 0.04040  0.22800  0.83120  Biso   1.000  O
  C191     1.0000 0.06260  0.26850  0.81870  Biso   1.000  C
  C192     1.0000 0.10130  0.28790  0.84160  Biso   1.000  C
  O97      1.0000 0.83120  0.72800  0.54040  Biso   1.000  O
  C193     1.0000 0.81870  0.76850  0.56260  Biso   1.000  C
  C194     1.0000 0.84160  0.78790  0.60130  Biso   1.000  C
  O98      1.0000 0.83120  0.22800  0.04040  Biso   1.000  O
  C195     1.0000 0.81870  0.26850  0.06260  Biso   1.000  C
  C196     1.0000 0.84160  0.28790  0.10130  Biso   1.000  C
  O99      1.0000 0.33120  0.72800  0.04040  Biso   1.000  O
  C197     1.0000 0.31870  0.76850  0.06260  Biso   1.000  C
  C198     1.0000 0.34160  0.78790  0.10130  Biso   1.000  C
  O100     1.0000 0.33120  0.22800  0.54040  Biso   1.000  O
  C199     1.0000 0.31870  0.26850  0.56260  Biso   1.000  C
  C200     1.0000 0.34160  0.28790  0.60130  Biso   1.000  C
  O101     1.0000 0.16880  0.27200  0.54040  Biso   1.000  O
  C201     1.0000 0.18130  0.23150  0.56260  Biso   1.000  C
  C202     1.0000 0.15840  0.21210  0.60130  Biso   1.000  C
  O102     1.0000 0.16880  0.77200  0.04040  Biso   1.000  O
  C203     1.0000 0.18130  0.73150  0.06260  Biso   1.000  C
  C204     1.0000 0.15840  0.71210  0.10130  Biso   1.000  C
  O103     1.0000 0.66880  0.27200  0.04040  Biso   1.000  O
  C205     1.0000 0.68130  0.23150  0.06260  Biso   1.000  C
  C206     1.0000 0.65840  0.21210  0.10130  Biso   1.000  C
  O104     1.0000 0.66880  0.77200  0.54040  Biso   1.000  O
  C207     1.0000 0.68130  0.73150  0.56260  Biso   1.000  C
  C208     1.0000 0.65840  0.71210  0.60130  Biso   1.000  C
  O105     1.0000 0.16880  0.72800  0.45960  Biso   1.000  O
  C209     1.0000 0.18130  0.76850  0.43740  Biso   1.000  C
  C210     1.0000 0.15840  0.78790  0.39870  Biso   1.000  C
  O106     1.0000 0.16880  0.22800  0.95960  Biso   1.000  O
  C211     1.0000 0.18130  0.26850  0.93740  Biso   1.000  C
  C212     1.0000 0.15840  0.28790  0.89870  Biso   1.000  C
  O107     1.0000 0.66880  0.72800  0.95960  Biso   1.000  O
  C213     1.0000 0.68130  0.76850  0.93740  Biso   1.000  C
  C214     1.0000 0.65840  0.78790  0.89870  Biso   1.000  C
  O108     1.0000 0.66880  0.22800  0.45960  Biso   1.000  O
  C215     1.0000 0.68130  0.26850  0.43740  Biso   1.000  C
  C216     1.0000 0.65840  0.28790  0.39870  Biso   1.000  C
  O109     1.0000 0.83120  0.27200  0.45960  Biso   1.000  O
  C217     1.0000 0.81870  0.23150  0.43740  Biso   1.000  C
  C218     1.0000 0.84160  0.21210  0.39870  Biso   1.000  C
  O110     1.0000 0.83120  0.77200  0.95960  Biso   1.000  O
  C219     1.0000 0.81870  0.73150  0.93740  Biso   1.000  C
  C220     1.0000 0.84160  0.71210  0.89870  Biso   1.000  C
  O111     1.0000 0.33120  0.27200  0.95960  Biso   1.000  O
  C221     1.0000 0.31870  0.23150  0.93740  Biso   1.000  C
  C222     1.0000 0.34160  0.21210  0.89870  Biso   1.000  C
  O112     1.0000 0.33120  0.77200  0.45960  Biso   1.000  O
  C223     1.0000 0.31870  0.73150  0.43740  Biso   1.000  C
  C224     1.0000 0.34160  0.71210  0.39870  Biso   1.000  C
  O113     1.0000 0.54040  0.83120  0.72800  Biso   1.000  O
  C225     1.0000 0.56260  0.81870  0.76850  Biso   1.000  C
  C226     1.0000 0.60130  0.84160  0.78790  Biso   1.000  C
  O114     1.0000 0.54040  0.33120  0.22800  Biso   1.000  O
  C227     1.0000 0.56260  0.31870  0.26850  Biso   1.000  C
  C228     1.0000 0.60130  0.34160  0.28790  Biso   1.000  C
  O115     1.0000 0.04040  0.83120  0.22800  Biso   1.000  O
  C229     1.0000 0.06260  0.81870  0.26850  Biso   1.000  C
  C230     1.0000 0.10130  0.84160  0.28790  Biso   1.000  C
  O116     1.0000 0.04040  0.33120  0.72800  Biso   1.000  O
  C231     1.0000 0.06260  0.31870  0.76850  Biso   1.000  C
  C232     1.0000 0.10130  0.34160  0.78790  Biso   1.000  C
  O117     1.0000 0.54040  0.16880  0.27200  Biso   1.000  O
  C233     1.0000 0.56260  0.18130  0.23150  Biso   1.000  C
  C234     1.0000 0.60130  0.15840  0.21210  Biso   1.000  C
  O118     1.0000 0.54040  0.66880  0.77200  Biso   1.000  O
  C235     1.0000 0.56260  0.68130  0.73150  Biso   1.000  C
  C236     1.0000 0.60130  0.65840  0.71210  Biso   1.000  C
  O119     1.0000 0.04040  0.16880  0.77200  Biso   1.000  O
  C237     1.0000 0.06260  0.18130  0.73150  Biso   1.000  C
  C238     1.0000 0.10130  0.15840  0.71210  Biso   1.000  C
  O120     1.0000 0.04040  0.66880  0.27200  Biso   1.000  O
  C239     1.0000 0.06260  0.68130  0.23150  Biso   1.000  C
  C240     1.0000 0.10130  0.65840  0.21210  Biso   1.000  C
  O121     1.0000 0.45960  0.16880  0.72800  Biso   1.000  O
  C241     1.0000 0.43740  0.18130  0.76850  Biso   1.000  C
  C242     1.0000 0.39870  0.15840  0.78790  Biso   1.000  C
  O122     1.0000 0.45960  0.66880  0.22800  Biso   1.000  O
  C243     1.0000 0.43740  0.68130  0.26850  Biso   1.000  C
  C244     1.0000 0.39870  0.65840  0.28790  Biso   1.000  C
  O123     1.0000 0.95960  0.16880  0.22800  Biso   1.000  O
  C245     1.0000 0.93740  0.18130  0.26850  Biso   1.000  C
  C246     1.0000 0.89870  0.15840  0.28790  Biso   1.000  C
  O124     1.0000 0.95960  0.66880  0.72800  Biso   1.000  O
  C247     1.0000 0.93740  0.68130  0.76850  Biso   1.000  C
  C248     1.0000 0.89870  0.65840  0.78790  Biso   1.000  C
  O125     1.0000 0.45960  0.83120  0.27200  Biso   1.000  O
  C249     1.0000 0.43740  0.81870  0.23150  Biso   1.000  C
  C250     1.0000 0.39870  0.84160  0.21210  Biso   1.000  C
  O126     1.0000 0.45960  0.33120  0.77200  Biso   1.000  O
  C251     1.0000 0.43740  0.31870  0.73150  Biso   1.000  C
  C252     1.0000 0.39870  0.34160  0.71210  Biso   1.000  C
  O127     1.0000 0.95960  0.83120  0.77200  Biso   1.000  O
  C253     1.0000 0.93740  0.81870  0.73150  Biso   1.000  C
  C254     1.0000 0.89870  0.84160  0.71210  Biso   1.000  C
  O128     1.0000 0.95960  0.33120  0.27200  Biso   1.000  O
  C255     1.0000 0.93740  0.31870  0.23150  Biso   1.000  C
  C256     1.0000 0.89870  0.34160  0.21210  Biso   1.000  C
  O129     1.0000 0.72800  0.54040  0.83120  Biso   1.000  O
  C257     1.0000 0.76850  0.56260  0.81870  Biso   1.000  C
  C258     1.0000 0.78790  0.60130  0.84160  Biso   1.000  C
  O130     1.0000 0.72800  0.04040  0.33120  Biso   1.000  O
  C259     1.0000 0.76850  0.06260  0.31870  Biso   1.000  C
  C260     1.0000 0.78790  0.10130  0.34160  Biso   1.000  C
  O131     1.0000 0.22800  0.54040  0.33120  Biso   1.000  O
  C261     1.0000 0.26850  0.56260  0.31870  Biso   1.000  C
  C262     1.0000 0.28790  0.60130  0.34160  Biso   1.000  C
  O132     1.0000 0.22800  0.04040  0.83120  Biso   1.000  O
  C263     1.0000 0.26850  0.06260  0.81870  Biso   1.000  C
  C264     1.0000 0.28790  0.10130  0.84160  Biso   1.000  C
  O133     1.0000 0.27200  0.54040  0.16880  Biso   1.000  O
  C265     1.0000 0.23150  0.56260  0.18130  Biso   1.000  C
  C266     1.0000 0.21210  0.60130  0.15840  Biso   1.000  C
  O134     1.0000 0.27200  0.04040  0.66880  Biso   1.000  O
  C267     1.0000 0.23150  0.06260  0.68130  Biso   1.000  C
  C268     1.0000 0.21210  0.10130  0.65840  Biso   1.000  C
  O135     1.0000 0.77200  0.54040  0.66880  Biso   1.000  O
  C269     1.0000 0.73150  0.56260  0.68130  Biso   1.000  C
  C270     1.0000 0.71210  0.60130  0.65840  Biso   1.000  C
  O136     1.0000 0.77200  0.04040  0.16880  Biso   1.000  O
  C271     1.0000 0.73150  0.06260  0.18130  Biso   1.000  C
  C272     1.0000 0.71210  0.10130  0.15840  Biso   1.000  C
  O137     1.0000 0.72800  0.45960  0.16880  Biso   1.000  O
  C273     1.0000 0.76850  0.43740  0.18130  Biso   1.000  C
  C274     1.0000 0.78790  0.39870  0.15840  Biso   1.000  C
  O138     1.0000 0.72800  0.95960  0.66880  Biso   1.000  O
  C275     1.0000 0.76850  0.93740  0.68130  Biso   1.000  C
  C276     1.0000 0.78790  0.89870  0.65840  Biso   1.000  C
  O139     1.0000 0.22800  0.45960  0.66880  Biso   1.000  O
  C277     1.0000 0.26850  0.43740  0.68130  Biso   1.000  C
  C278     1.0000 0.28790  0.39870  0.65840  Biso   1.000  C
  O140     1.0000 0.22800  0.95960  0.16880  Biso   1.000  O
  C279     1.0000 0.26850  0.93740  0.18130  Biso   1.000  C
  C280     1.0000 0.28790  0.89870  0.15840  Biso   1.000  C
  O141     1.0000 0.27200  0.45960  0.83120  Biso   1.000  O
  C281     1.0000 0.23150  0.43740  0.81870  Biso   1.000  C
  C282     1.0000 0.21210  0.39870  0.84160  Biso   1.000  C
  O142     1.0000 0.27200  0.95960  0.33120  Biso   1.000  O
  C283     1.0000 0.23150  0.93740  0.31870  Biso   1.000  C
  C284     1.0000 0.21210  0.89870  0.34160  Biso   1.000  C
  O143     1.0000 0.77200  0.45960  0.33120  Biso   1.000  O
  C285     1.0000 0.73150  0.43740  0.31870  Biso   1.000  C
  C286     1.0000 0.71210  0.39870  0.34160  Biso   1.000  C
  O144     1.0000 0.77200  0.95960  0.83120  Biso   1.000  O
  C287     1.0000 0.73150  0.93740  0.81870  Biso   1.000  C
  C288     1.0000 0.71210  0.89870  0.84160  Biso   1.000  C
  O145     1.0000 0.72800  0.83120  0.45960  Biso   1.000  O
  C289     1.0000 0.76850  0.81870  0.43740  Biso   1.000  C
  C290     1.0000 0.78790  0.84160  0.39870  Biso   1.000  C
  O146     1.0000 0.72800  0.33120  0.95960  Biso   1.000  O
  C291     1.0000 0.76850  0.31870  0.93740  Biso   1.000  C
  C292     1.0000 0.78790  0.34160  0.89870  Biso   1.000  C
  O147     1.0000 0.22800  0.83120  0.95960  Biso   1.000  O
  C293     1.0000 0.26850  0.81870  0.93740  Biso   1.000  C
  C294     1.0000 0.28790  0.84160  0.89870  Biso   1.000  C
  O148     1.0000 0.22800  0.33120  0.45960  Biso   1.000  O
  C295     1.0000 0.26850  0.31870  0.43740  Biso   1.000  C
  C296     1.0000 0.28790  0.34160  0.39870  Biso   1.000  C
  O149     1.0000 0.27200  0.16880  0.45960  Biso   1.000  O
  C297     1.0000 0.23150  0.18130  0.43740  Biso   1.000  C
  C298     1.0000 0.21210  0.15840  0.39870  Biso   1.000  C
  O150     1.0000 0.27200  0.66880  0.95960  Biso   1.000  O
  C299     1.0000 0.23150  0.68130  0.93740  Biso   1.000  C
  C300     1.0000 0.21210  0.65840  0.89870  Biso   1.000  C
  O151     1.0000 0.77200  0.16880  0.95960  Biso   1.000  O
  C301     1.0000 0.73150  0.18130  0.93740  Biso   1.000  C
  C302     1.0000 0.71210  0.15840  0.89870  Biso   1.000  C
  O152     1.0000 0.77200  0.66880  0.45960  Biso   1.000  O
  C303     1.0000 0.73150  0.68130  0.43740  Biso   1.000  C
  C304     1.0000 0.71210  0.65840  0.39870  Biso   1.000  C
  O153     1.0000 0.72800  0.16880  0.54040  Biso   1.000  O
  C305     1.0000 0.76850  0.18130  0.56260  Biso   1.000  C
  C306     1.0000 0.78790  0.15840  0.60130  Biso   1.000  C
  O154     1.0000 0.72800  0.66880  0.04040  Biso   1.000  O
  C307     1.0000 0.76850  0.68130  0.06260  Biso   1.000  C
  C308     1.0000 0.78790  0.65840  0.10130  Biso   1.000  C
  O155     1.0000 0.22800  0.16880  0.04040  Biso   1.000  O
  C309     1.0000 0.26850  0.18130  0.06260  Biso   1.000  C
  C310     1.0000 0.28790  0.15840  0.10130  Biso   1.000  C
  O156     1.0000 0.22800  0.66880  0.54040  Biso   1.000  O
  C311     1.0000 0.26850  0.68130  0.56260  Biso   1.000  C
  C312     1.0000 0.28790  0.65840  0.60130  Biso   1.000  C
  O157     1.0000 0.27200  0.83120  0.54040  Biso   1.000  O
  C313     1.0000 0.23150  0.81870  0.56260  Biso   1.000  C
  C314     1.0000 0.21210  0.84160  0.60130  Biso   1.000  C
  O158     1.0000 0.27200  0.33120  0.04040  Biso   1.000  O
  C315     1.0000 0.23150  0.31870  0.06260  Biso   1.000  C
  C316     1.0000 0.21210  0.34160  0.10130  Biso   1.000  C
  O159     1.0000 0.77200  0.83120  0.04040  Biso   1.000  O
  C317     1.0000 0.73150  0.81870  0.06260  Biso   1.000  C
  C318     1.0000 0.71210  0.84160  0.10130  Biso   1.000  C
  O160     1.0000 0.77200  0.33120  0.54040  Biso   1.000  O
  C319     1.0000 0.73150  0.31870  0.56260  Biso   1.000  C
  C320     1.0000 0.71210  0.34160  0.60130  Biso   1.000  C
  O161     1.0000 0.83120  0.54040  0.27200  Biso   1.000  O
  C321     1.0000 0.81870  0.56260  0.23150  Biso   1.000  C
  C322     1.0000 0.84160  0.60130  0.21210  Biso   1.000  C
  O162     1.0000 0.83120  0.04040  0.77200  Biso   1.000  O
  C323     1.0000 0.81870  0.06260  0.73150  Biso   1.000  C
  C324     1.0000 0.84160  0.10130  0.71210  Biso   1.000  C
  O163     1.0000 0.33120  0.54040  0.77200  Biso   1.000  O
  C325     1.0000 0.31870  0.56260  0.73150  Biso   1.000  C
  C326     1.0000 0.34160  0.60130  0.71210  Biso   1.000  C
  O164     1.0000 0.33120  0.04040  0.27200  Biso   1.000  O
  C327     1.0000 0.31870  0.06260  0.23150  Biso   1.000  C
  C328     1.0000 0.34160  0.10130  0.21210  Biso   1.000  C
  O165     1.0000 0.16880  0.54040  0.72800  Biso   1.000  O
  C329     1.0000 0.18130  0.56260  0.76850  Biso   1.000  C
  C330     1.0000 0.15840  0.60130  0.78790  Biso   1.000  C
  O166     1.0000 0.16880  0.04040  0.22800  Biso   1.000  O
  C331     1.0000 0.18130  0.06260  0.26850  Biso   1.000  C
  C332     1.0000 0.15840  0.10130  0.28790  Biso   1.000  C
  O167     1.0000 0.66880  0.54040  0.22800  Biso   1.000  O
  C333     1.0000 0.68130  0.56260  0.26850  Biso   1.000  C
  C334     1.0000 0.65840  0.60130  0.28790  Biso   1.000  C
  O168     1.0000 0.66880  0.04040  0.72800  Biso   1.000  O
  C335     1.0000 0.68130  0.06260  0.76850  Biso   1.000  C
  C336     1.0000 0.65840  0.10130  0.78790  Biso   1.000  C
  O169     1.0000 0.16880  0.45960  0.27200  Biso   1.000  O
  C337     1.0000 0.18130  0.43740  0.23150  Biso   1.000  C
  C338     1.0000 0.15840  0.39870  0.21210  Biso   1.000  C
  O170     1.0000 0.16880  0.95960  0.77200  Biso   1.000  O
  C339     1.0000 0.18130  0.93740  0.73150  Biso   1.000  C
  C340     1.0000 0.15840  0.89870  0.71210  Biso   1.000  C
  O171     1.0000 0.66880  0.45960  0.77200  Biso   1.000  O
  C341     1.0000 0.68130  0.43740  0.73150  Biso   1.000  C
  C342     1.0000 0.65840  0.39870  0.71210  Biso   1.000  C
  O172     1.0000 0.66880  0.95960  0.27200  Biso   1.000  O
  C343     1.0000 0.68130  0.93740  0.23150  Biso   1.000  C
  C344     1.0000 0.65840  0.89870  0.21210  Biso   1.000  C
  O173     1.0000 0.83120  0.45960  0.72800  Biso   1.000  O
  C345     1.0000 0.81870  0.43740  0.76850  Biso   1.000  C
  C346     1.0000 0.84160  0.39870  0.78790  Biso   1.000  C
  O174     1.0000 0.83120  0.95960  0.22800  Biso   1.000  O
  C347     1.0000 0.81870  0.93740  0.26850  Biso   1.000  C
  C348     1.0000 0.84160  0.89870  0.28790  Biso   1.000  C
  O175     1.0000 0.33120  0.45960  0.22800  Biso   1.000  O
  C349     1.0000 0.31870  0.43740  0.26850  Biso   1.000  C
  C350     1.0000 0.34160  0.39870  0.28790  Biso   1.000  C
  O176     1.0000 0.33120  0.95960  0.72800  Biso   1.000  O
  C351     1.0000 0.31870  0.93740  0.76850  Biso   1.000  C
  C352     1.0000 0.34160  0.89870  0.78790  Biso   1.000  C
  O177     1.0000 0.54040  0.72800  0.16880  Biso   1.000  O
  C353     1.0000 0.56260  0.76850  0.18130  Biso   1.000  C
  C354     1.0000 0.60130  0.78790  0.15840  Biso   1.000  C
  O178     1.0000 0.54040  0.22800  0.66880  Biso   1.000  O
  C355     1.0000 0.56260  0.26850  0.68130  Biso   1.000  C
  C356     1.0000 0.60130  0.28790  0.65840  Biso   1.000  C
  O179     1.0000 0.04040  0.72800  0.66880  Biso   1.000  O
  C357     1.0000 0.06260  0.76850  0.68130  Biso   1.000  C
  C358     1.0000 0.10130  0.78790  0.65840  Biso   1.000  C
  O180     1.0000 0.04040  0.22800  0.16880  Biso   1.000  O
  C359     1.0000 0.06260  0.26850  0.18130  Biso   1.000  C
  C360     1.0000 0.10130  0.28790  0.15840  Biso   1.000  C
  O181     1.0000 0.54040  0.27200  0.83120  Biso   1.000  O
  C361     1.0000 0.56260  0.23150  0.81870  Biso   1.000  C
  C362     1.0000 0.60130  0.21210  0.84160  Biso   1.000  C
  O182     1.0000 0.54040  0.77200  0.33120  Biso   1.000  O
  C363     1.0000 0.56260  0.73150  0.31870  Biso   1.000  C
  C364     1.0000 0.60130  0.71210  0.34160  Biso   1.000  C
  O183     1.0000 0.04040  0.27200  0.33120  Biso   1.000  O
  C365     1.0000 0.06260  0.23150  0.31870  Biso   1.000  C
  C366     1.0000 0.10130  0.21210  0.34160  Biso   1.000  C
  O184     1.0000 0.04040  0.77200  0.83120  Biso   1.000  O
  C367     1.0000 0.06260  0.73150  0.81870  Biso   1.000  C
  C368     1.0000 0.10130  0.71210  0.84160  Biso   1.000  C
  O185     1.0000 0.45960  0.72800  0.83120  Biso   1.000  O
  C369     1.0000 0.43740  0.76850  0.81870  Biso   1.000  C
  C370     1.0000 0.39870  0.78790  0.84160  Biso   1.000  C
  O186     1.0000 0.45960  0.22800  0.33120  Biso   1.000  O
  C371     1.0000 0.43740  0.26850  0.31870  Biso   1.000  C
  C372     1.0000 0.39870  0.28790  0.34160  Biso   1.000  C
  O187     1.0000 0.95960  0.72800  0.33120  Biso   1.000  O
  C373     1.0000 0.93740  0.76850  0.31870  Biso   1.000  C
  C374     1.0000 0.89870  0.78790  0.34160  Biso   1.000  C
  O188     1.0000 0.95960  0.22800  0.83120  Biso   1.000  O
  C375     1.0000 0.93740  0.26850  0.81870  Biso   1.000  C
  C376     1.0000 0.89870  0.28790  0.84160  Biso   1.000  C
  O189     1.0000 0.45960  0.27200  0.16880  Biso   1.000  O
  C377     1.0000 0.43740  0.23150  0.18130  Biso   1.000  C
  C378     1.0000 0.39870  0.21210  0.15840  Biso   1.000  C
  O190     1.0000 0.45960  0.77200  0.66880  Biso   1.000  O
  C379     1.0000 0.43740  0.73150  0.68130  Biso   1.000  C
  C380     1.0000 0.39870  0.71210  0.65840  Biso   1.000  C
  O191     1.0000 0.95960  0.27200  0.66880  Biso   1.000  O
  C381     1.0000 0.93740  0.23150  0.68130  Biso   1.000  C
  C382     1.0000 0.89870  0.21210  0.65840  Biso   1.000  C
  O192     1.0000 0.95960  0.77200  0.16880  Biso   1.000  O
  C383     1.0000 0.93740  0.73150  0.18130  Biso   1.000  C
  C384     1.0000 0.89870  0.71210  0.15840  Biso   1.000  C
  Cu1      1.0000 0.25000  0.25000  0.50000  Biso   1.000  Cu
  Cu2      1.0000 0.25000  0.75000  0.00000  Biso   1.000  Cu
  Cu3      1.0000 0.75000  0.75000  0.50000  Biso   1.000  Cu
  Cu4      1.0000 0.75000  0.25000  0.00000  Biso   1.000  Cu
  Cu5      1.0000 0.75000  0.25000  0.50000  Biso   1.000  Cu
  Cu6      1.0000 0.75000  0.75000  0.00000  Biso   1.000  Cu
  Cu7      1.0000 0.25000  0.25000  0.00000  Biso   1.000  Cu
  Cu8      1.0000 0.25000  0.75000  0.50000  Biso   1.000  Cu
  Cu9      1.0000 0.50000  0.25000  0.25000  Biso   1.000  Cu
  Cu10     1.0000 0.00000  0.25000  0.75000  Biso   1.000  Cu
  Cu11     1.0000 0.50000  0.75000  0.75000  Biso   1.000  Cu
  Cu12     1.0000 0.00000  0.75000  0.25000  Biso   1.000  Cu
  Cu13     1.0000 0.50000  0.75000  0.25000  Biso   1.000  Cu
  Cu14     1.0000 0.00000  0.75000  0.75000  Biso   1.000  Cu
  Cu15     1.0000 0.00000  0.25000  0.25000  Biso   1.000  Cu
  Cu16     1.0000 0.50000  0.25000  0.75000  Biso   1.000  Cu
  Cu17     1.0000 0.25000  0.50000  0.25000  Biso   1.000  Cu
  Cu18     1.0000 0.25000  0.00000  0.75000  Biso   1.000  Cu
  Cu19     1.0000 0.75000  0.50000  0.75000  Biso   1.000  Cu
  Cu20     1.0000 0.75000  0.00000  0.25000  Biso   1.000  Cu
  Cu21     1.0000 0.25000  0.50000  0.75000  Biso   1.000  Cu
  Cu22     1.0000 0.25000  0.00000  0.25000  Biso   1.000  Cu
  Cu23     1.0000 0.75000  0.50000  0.25000  Biso   1.000  Cu
  Cu24     1.0000 0.75000  0.00000  0.75000  Biso   1.000  Cu
  Cu25     1.0000 0.19385  0.30615  0.50000  Biso   1.000  Cu
  Cu26     1.0000 0.19385  0.80615  0.00000  Biso   1.000  Cu
  Cu27     1.0000 0.80615  0.69385  0.50000  Biso   1.000  Cu
  Cu28     1.0000 0.80615  0.19385  0.00000  Biso   1.000  Cu
  Cu29     1.0000 0.80615  0.30615  0.50000  Biso   1.000  Cu
  Cu30     1.0000 0.80615  0.80615  0.00000  Biso   1.000  Cu
  Cu31     1.0000 0.19385  0.69385  0.50000  Biso   1.000  Cu
  Cu32     1.0000 0.19385  0.19385  0.00000  Biso   1.000  Cu
  Cu33     1.0000 0.50000  0.19385  0.30615  Biso   1.000  Cu
  Cu34     1.0000 0.00000  0.19385  0.80615  Biso   1.000  Cu
  Cu35     1.0000 0.50000  0.80615  0.69385  Biso   1.000  Cu
  Cu36     1.0000 0.00000  0.80615  0.19385  Biso   1.000  Cu
  Cu37     1.0000 0.50000  0.80615  0.30615  Biso   1.000  Cu
  Cu38     1.0000 0.00000  0.80615  0.80615  Biso   1.000  Cu
  Cu39     1.0000 0.50000  0.19385  0.69385  Biso   1.000  Cu
  Cu40     1.0000 0.00000  0.19385  0.19385  Biso   1.000  Cu
  Cu41     1.0000 0.30615  0.50000  0.19385  Biso   1.000  Cu
  Cu42     1.0000 0.30615  0.00000  0.69385  Biso   1.000  Cu
  Cu43     1.0000 0.69385  0.50000  0.80615  Biso   1.000  Cu
  Cu44     1.0000 0.69385  0.00000  0.30615  Biso   1.000  Cu
  Cu45     1.0000 0.30615  0.50000  0.80615  Biso   1.000  Cu
  Cu46     1.0000 0.30615  0.00000  0.30615  Biso   1.000  Cu
  Cu47     1.0000 0.69385  0.50000  0.19385  Biso   1.000  Cu
  Cu48     1.0000 0.69385  0.00000  0.69385  Biso   1.000  Cu
  Cu49     1.0000 0.30615  0.19385  0.50000  Biso   1.000  Cu
  Cu50     1.0000 0.30615  0.69385  0.00000  Biso   1.000  Cu
  Cu51     1.0000 0.69385  0.80615  0.50000  Biso   1.000  Cu
  Cu52     1.0000 0.69385  0.30615  0.00000  Biso   1.000  Cu
  Cu53     1.0000 0.30615  0.80615  0.50000  Biso   1.000  Cu
  Cu54     1.0000 0.30615  0.30615  0.00000  Biso   1.000  Cu
  Cu55     1.0000 0.69385  0.19385  0.50000  Biso   1.000  Cu
  Cu56     1.0000 0.69385  0.69385  0.00000  Biso   1.000  Cu
  Cu57     1.0000 0.19385  0.50000  0.69385  Biso   1.000  Cu
  Cu58     1.0000 0.19385  0.00000  0.19385  Biso   1.000  Cu
  Cu59     1.0000 0.80615  0.50000  0.30615  Biso   1.000  Cu
  Cu60     1.0000 0.80615  0.00000  0.80615  Biso   1.000  Cu
  Cu61     1.0000 0.80615  0.50000  0.69385  Biso   1.000  Cu
  Cu62     1.0000 0.80615  0.00000  0.19385  Biso   1.000  Cu
  Cu63     1.0000 0.19385  0.50000  0.30615  Biso   1.000  Cu
  Cu64     1.0000 0.19385  0.00000  0.80615  Biso   1.000  Cu
  Cu65     1.0000 0.50000  0.30615  0.80615  Biso   1.000  Cu
  Cu66     1.0000 0.00000  0.30615  0.30615  Biso   1.000  Cu
  Cu67     1.0000 0.50000  0.69385  0.19385  Biso   1.000  Cu
  Cu68     1.0000 0.00000  0.69385  0.69385  Biso   1.000  Cu
  Cu69     1.0000 0.50000  0.30615  0.19385  Biso   1.000  Cu
  Cu70     1.0000 0.00000  0.30615  0.69385  Biso   1.000  Cu
  Cu71     1.0000 0.50000  0.69385  0.80615  Biso   1.000  Cu
  Cu72     1.0000 0.00000  0.69385  0.30615  Biso   1.000  Cu
  O193     1.0000 0.21930  0.21930  0.45630  Biso   1.000  O
  C385     1.0000 0.17520  0.17520  0.38320  Biso   1.000  C
  O194     1.0000 0.21930  0.71930  0.95630  Biso   1.000  O
  C386     1.0000 0.17520  0.67520  0.88320  Biso   1.000  C
  O195     1.0000 0.71930  0.21930  0.95630  Biso   1.000  O
  C387     1.0000 0.67520  0.17520  0.88320  Biso   1.000  C
  O196     1.0000 0.71930  0.71930  0.45630  Biso   1.000  O
  C388     1.0000 0.67520  0.67520  0.38320  Biso   1.000  C
  O197     1.0000 0.78070  0.78070  0.45630  Biso   1.000  O
  C389     1.0000 0.82480  0.82480  0.38320  Biso   1.000  C
  O198     1.0000 0.78070  0.28070  0.95630  Biso   1.000  O
  C390     1.0000 0.82480  0.32480  0.88320  Biso   1.000  C
  O199     1.0000 0.28070  0.78070  0.95630  Biso   1.000  O
  C391     1.0000 0.32480  0.82480  0.88320  Biso   1.000  C
  O200     1.0000 0.28070  0.28070  0.45630  Biso   1.000  O
  C392     1.0000 0.32480  0.32480  0.38320  Biso   1.000  C
  O201     1.0000 0.78070  0.21930  0.54370  Biso   1.000  O
  C393     1.0000 0.82480  0.17520  0.61680  Biso   1.000  C
  O202     1.0000 0.78070  0.71930  0.04370  Biso   1.000  O
  C394     1.0000 0.82480  0.67520  0.11680  Biso   1.000  C
  O203     1.0000 0.28070  0.21930  0.04370  Biso   1.000  O
  C395     1.0000 0.32480  0.17520  0.11680  Biso   1.000  C
  O204     1.0000 0.28070  0.71930  0.54370  Biso   1.000  O
  C396     1.0000 0.32480  0.67520  0.61680  Biso   1.000  C
  O205     1.0000 0.21930  0.78070  0.54370  Biso   1.000  O
  C397     1.0000 0.17520  0.82480  0.61680  Biso   1.000  C
  O206     1.0000 0.21930  0.28070  0.04370  Biso   1.000  O
  C398     1.0000 0.17520  0.32480  0.11680  Biso   1.000  C
  O207     1.0000 0.71930  0.78070  0.04370  Biso   1.000  O
  C399     1.0000 0.67520  0.82480  0.11680  Biso   1.000  C
  O208     1.0000 0.71930  0.28070  0.54370  Biso   1.000  O
  C400     1.0000 0.67520  0.32480  0.61680  Biso   1.000  C
  O209     1.0000 0.45630  0.21930  0.21930  Biso   1.000  O
  C401     1.0000 0.38320  0.17520  0.17520  Biso   1.000  C
  O210     1.0000 0.45630  0.71930  0.71930  Biso   1.000  O
  C402     1.0000 0.38320  0.67520  0.67520  Biso   1.000  C
  O211     1.0000 0.95630  0.21930  0.71930  Biso   1.000  O
  C403     1.0000 0.88320  0.17520  0.67520  Biso   1.000  C
  O212     1.0000 0.95630  0.71930  0.21930  Biso   1.000  O
  C404     1.0000 0.88320  0.67520  0.17520  Biso   1.000  C
  O213     1.0000 0.45630  0.78070  0.78070  Biso   1.000  O
  C405     1.0000 0.38320  0.82480  0.82480  Biso   1.000  C
  O214     1.0000 0.45630  0.28070  0.28070  Biso   1.000  O
  C406     1.0000 0.38320  0.32480  0.32480  Biso   1.000  C
  O215     1.0000 0.95630  0.78070  0.28070  Biso   1.000  O
  C407     1.0000 0.88320  0.82480  0.32480  Biso   1.000  C
  O216     1.0000 0.95630  0.28070  0.78070  Biso   1.000  O
  C408     1.0000 0.88320  0.32480  0.82480  Biso   1.000  C
  O217     1.0000 0.54370  0.78070  0.21930  Biso   1.000  O
  C409     1.0000 0.61680  0.82480  0.17520  Biso   1.000  C
  O218     1.0000 0.54370  0.28070  0.71930  Biso   1.000  O
  C410     1.0000 0.61680  0.32480  0.67520  Biso   1.000  C
  O219     1.0000 0.04370  0.78070  0.71930  Biso   1.000  O
  C411     1.0000 0.11680  0.82480  0.67520  Biso   1.000  C
  O220     1.0000 0.04370  0.28070  0.21930  Biso   1.000  O
  C412     1.0000 0.11680  0.32480  0.17520  Biso   1.000  C
  O221     1.0000 0.54370  0.21930  0.78070  Biso   1.000  O
  C413     1.0000 0.61680  0.17520  0.82480  Biso   1.000  C
  O222     1.0000 0.54370  0.71930  0.28070  Biso   1.000  O
  C414     1.0000 0.61680  0.67520  0.32480  Biso   1.000  C
  O223     1.0000 0.04370  0.21930  0.28070  Biso   1.000  O
  C415     1.0000 0.11680  0.17520  0.32480  Biso   1.000  C
  O224     1.0000 0.04370  0.71930  0.78070  Biso   1.000  O
  C416     1.0000 0.11680  0.67520  0.82480  Biso   1.000  C
  O225     1.0000 0.21930  0.45630  0.21930  Biso   1.000  O
  C417     1.0000 0.17520  0.38320  0.17520  Biso   1.000  C
  O226     1.0000 0.21930  0.95630  0.71930  Biso   1.000  O
  C418     1.0000 0.17520  0.88320  0.67520  Biso   1.000  C
  O227     1.0000 0.71930  0.45630  0.71930  Biso   1.000  O
  C419     1.0000 0.67520  0.38320  0.67520  Biso   1.000  C
  O228     1.0000 0.71930  0.95630  0.21930  Biso   1.000  O
  C420     1.0000 0.67520  0.88320  0.17520  Biso   1.000  C
  O229     1.0000 0.78070  0.45630  0.78070  Biso   1.000  O
  C421     1.0000 0.82480  0.38320  0.82480  Biso   1.000  C
  O230     1.0000 0.78070  0.95630  0.28070  Biso   1.000  O
  C422     1.0000 0.82480  0.88320  0.32480  Biso   1.000  C
  O231     1.0000 0.28070  0.45630  0.28070  Biso   1.000  O
  C423     1.0000 0.32480  0.38320  0.32480  Biso   1.000  C
  O232     1.0000 0.28070  0.95630  0.78070  Biso   1.000  O
  C424     1.0000 0.32480  0.88320  0.82480  Biso   1.000  C
  O233     1.0000 0.21930  0.54370  0.78070  Biso   1.000  O
  C425     1.0000 0.17520  0.61680  0.82480  Biso   1.000  C
  O234     1.0000 0.21930  0.04370  0.28070  Biso   1.000  O
  C426     1.0000 0.17520  0.11680  0.32480  Biso   1.000  C
  O235     1.0000 0.71930  0.54370  0.28070  Biso   1.000  O
  C427     1.0000 0.67520  0.61680  0.32480  Biso   1.000  C
  O236     1.0000 0.71930  0.04370  0.78070  Biso   1.000  O
  C428     1.0000 0.67520  0.11680  0.82480  Biso   1.000  C
  O237     1.0000 0.78070  0.54370  0.21930  Biso   1.000  O
  C429     1.0000 0.82480  0.61680  0.17520  Biso   1.000  C
  O238     1.0000 0.78070  0.04370  0.71930  Biso   1.000  O
  C430     1.0000 0.82480  0.11680  0.67520  Biso   1.000  C
  O239     1.0000 0.28070  0.54370  0.71930  Biso   1.000  O
  C431     1.0000 0.32480  0.61680  0.67520  Biso   1.000  C
  O240     1.0000 0.28070  0.04370  0.21930  Biso   1.000  O
  C432     1.0000 0.32480  0.11680  0.17520  Biso   1.000  C
  O241     1.0000 0.21930  0.21930  0.54370  Biso   1.000  O
  C433     1.0000 0.17520  0.17520  0.61680  Biso   1.000  C
  O242     1.0000 0.21930  0.71930  0.04370  Biso   1.000  O
  C434     1.0000 0.17520  0.67520  0.11680  Biso   1.000  C
  O243     1.0000 0.71930  0.21930  0.04370  Biso   1.000  O
  C435     1.0000 0.67520  0.17520  0.11680  Biso   1.000  C
  O244     1.0000 0.71930  0.71930  0.54370  Biso   1.000  O
  C436     1.0000 0.67520  0.67520  0.61680  Biso   1.000  C
  O245     1.0000 0.78070  0.78070  0.54370  Biso   1.000  O
  C437     1.0000 0.82480  0.82480  0.61680  Biso   1.000  C
  O246     1.0000 0.78070  0.28070  0.04370  Biso   1.000  O
  C438     1.0000 0.82480  0.32480  0.11680  Biso   1.000  C
  O247     1.0000 0.28070  0.78070  0.04370  Biso   1.000  O
  C439     1.0000 0.32480  0.82480  0.11680  Biso   1.000  C
  O248     1.0000 0.28070  0.28070  0.54370  Biso   1.000  O
  C440     1.0000 0.32480  0.32480  0.61680  Biso   1.000  C
  O249     1.0000 0.21930  0.78070  0.45630  Biso   1.000  O
  C441     1.0000 0.17520  0.82480  0.38320  Biso   1.000  C
  O250     1.0000 0.21930  0.28070  0.95630  Biso   1.000  O
  C442     1.0000 0.17520  0.32480  0.88320  Biso   1.000  C
  O251     1.0000 0.71930  0.78070  0.95630  Biso   1.000  O
  C443     1.0000 0.67520  0.82480  0.88320  Biso   1.000  C
  O252     1.0000 0.71930  0.28070  0.45630  Biso   1.000  O
  C444     1.0000 0.67520  0.32480  0.38320  Biso   1.000  C
  O253     1.0000 0.78070  0.21930  0.45630  Biso   1.000  O
  C445     1.0000 0.82480  0.17520  0.38320  Biso   1.000  C
  O254     1.0000 0.78070  0.71930  0.95630  Biso   1.000  O
  C446     1.0000 0.82480  0.67520  0.88320  Biso   1.000  C
  O255     1.0000 0.28070  0.21930  0.95630  Biso   1.000  O
  C447     1.0000 0.32480  0.17520  0.88320  Biso   1.000  C
  O256     1.0000 0.28070  0.71930  0.45630  Biso   1.000  O
  C448     1.0000 0.32480  0.67520  0.38320  Biso   1.000  C
  O257     1.0000 0.21930  0.45630  0.78070  Biso   1.000  O
  C449     1.0000 0.17520  0.38320  0.82480  Biso   1.000  C
  O258     1.0000 0.21930  0.95630  0.28070  Biso   1.000  O
  C450     1.0000 0.17520  0.88320  0.32480  Biso   1.000  C
  O259     1.0000 0.71930  0.45630  0.28070  Biso   1.000  O
  C451     1.0000 0.67520  0.38320  0.32480  Biso   1.000  C
  O260     1.0000 0.71930  0.95630  0.78070  Biso   1.000  O
  C452     1.0000 0.67520  0.88320  0.82480  Biso   1.000  C
  O261     1.0000 0.78070  0.45630  0.21930  Biso   1.000  O
  C453     1.0000 0.82480  0.38320  0.17520  Biso   1.000  C
  O262     1.0000 0.78070  0.95630  0.71930  Biso   1.000  O
  C454     1.0000 0.82480  0.88320  0.67520  Biso   1.000  C
  O263     1.0000 0.28070  0.45630  0.71930  Biso   1.000  O
  C455     1.0000 0.32480  0.38320  0.67520  Biso   1.000  C
  O264     1.0000 0.28070  0.95630  0.21930  Biso   1.000  O
  C456     1.0000 0.32480  0.88320  0.17520  Biso   1.000  C
  O265     1.0000 0.78070  0.54370  0.78070  Biso   1.000  O
  C457     1.0000 0.82480  0.61680  0.82480  Biso   1.000  C
  O266     1.0000 0.78070  0.04370  0.28070  Biso   1.000  O
  C458     1.0000 0.82480  0.11680  0.32480  Biso   1.000  C
  O267     1.0000 0.28070  0.54370  0.28070  Biso   1.000  O
  C459     1.0000 0.32480  0.61680  0.32480  Biso   1.000  C
  O268     1.0000 0.28070  0.04370  0.78070  Biso   1.000  O
  C460     1.0000 0.32480  0.11680  0.82480  Biso   1.000  C
  O269     1.0000 0.21930  0.54370  0.21930  Biso   1.000  O
  C461     1.0000 0.17520  0.61680  0.17520  Biso   1.000  C
  O270     1.0000 0.21930  0.04370  0.71930  Biso   1.000  O
  C462     1.0000 0.17520  0.11680  0.67520  Biso   1.000  C
  O271     1.0000 0.71930  0.54370  0.71930  Biso   1.000  O
  C463     1.0000 0.67520  0.61680  0.67520  Biso   1.000  C
  O272     1.0000 0.71930  0.04370  0.21930  Biso   1.000  O
  C464     1.0000 0.67520  0.11680  0.17520  Biso   1.000  C
  O273     1.0000 0.45630  0.21930  0.78070  Biso   1.000  O
  C465     1.0000 0.38320  0.17520  0.82480  Biso   1.000  C
  O274     1.0000 0.45630  0.71930  0.28070  Biso   1.000  O
  C466     1.0000 0.38320  0.67520  0.32480  Biso   1.000  C
  O275     1.0000 0.95630  0.21930  0.28070  Biso   1.000  O
  C467     1.0000 0.88320  0.17520  0.32480  Biso   1.000  C
  O276     1.0000 0.95630  0.71930  0.78070  Biso   1.000  O
  C468     1.0000 0.88320  0.67520  0.82480  Biso   1.000  C
  O277     1.0000 0.45630  0.78070  0.21930  Biso   1.000  O
  C469     1.0000 0.38320  0.82480  0.17520  Biso   1.000  C
  O278     1.0000 0.45630  0.28070  0.71930  Biso   1.000  O
  C470     1.0000 0.38320  0.32480  0.67520  Biso   1.000  C
  O279     1.0000 0.95630  0.78070  0.71930  Biso   1.000  O
  C471     1.0000 0.88320  0.82480  0.67520  Biso   1.000  C
  O280     1.0000 0.95630  0.28070  0.21930  Biso   1.000  O
  C472     1.0000 0.88320  0.32480  0.17520  Biso   1.000  C
  O281     1.0000 0.54370  0.21930  0.21930  Biso   1.000  O
  C473     1.0000 0.61680  0.17520  0.17520  Biso   1.000  C
  O282     1.0000 0.54370  0.71930  0.71930  Biso   1.000  O
  C474     1.0000 0.61680  0.67520  0.67520  Biso   1.000  C
  O283     1.0000 0.04370  0.21930  0.71930  Biso   1.000  O
  C475     1.0000 0.11680  0.17520  0.67520  Biso   1.000  C
  O284     1.0000 0.04370  0.71930  0.21930  Biso   1.000  O
  C476     1.0000 0.11680  0.67520  0.17520  Biso   1.000  C
  O285     1.0000 0.54370  0.78070  0.78070  Biso   1.000  O
  C477     1.0000 0.61680  0.82480  0.82480  Biso   1.000  C
  O286     1.0000 0.54370  0.28070  0.28070  Biso   1.000  O
  C478     1.0000 0.61680  0.32480  0.32480  Biso   1.000  C
  O287     1.0000 0.04370  0.78070  0.28070  Biso   1.000  O
  C479     1.0000 0.11680  0.82480  0.32480  Biso   1.000  C
  O288     1.0000 0.04370  0.28070  0.78070  Biso   1.000  O
  C480     1.0000 0.11680  0.32480  0.82480  Biso   1.000  C
  C481     1.0000 0.12350  0.23600  0.37650  Biso   1.000  C
  C482     1.0000 0.12350  0.73600  0.87650  Biso   1.000  C
  C483     1.0000 0.87650  0.76400  0.37650  Biso   1.000  C
  C484     1.0000 0.87650  0.26400  0.87650  Biso   1.000  C
  C485     1.0000 0.37650  0.26400  0.37650  Biso   1.000  C
  C486     1.0000 0.87650  0.23600  0.62350  Biso   1.000  C
  C487     1.0000 0.87650  0.73600  0.12350  Biso   1.000  C
  C488     1.0000 0.37650  0.23600  0.12350  Biso   1.000  C
  C489     1.0000 0.12350  0.76400  0.62350  Biso   1.000  C
  C490     1.0000 0.12350  0.26400  0.12350  Biso   1.000  C
  C491     1.0000 0.37650  0.12350  0.23600  Biso   1.000  C
  C492     1.0000 0.37650  0.62350  0.73600  Biso   1.000  C
  C493     1.0000 0.37650  0.87650  0.76400  Biso   1.000  C
  C494     1.0000 0.37650  0.37650  0.26400  Biso   1.000  C
  C495     1.0000 0.62350  0.87650  0.23600  Biso   1.000  C
  C496     1.0000 0.62350  0.37650  0.73600  Biso   1.000  C
  C497     1.0000 0.12350  0.37650  0.23600  Biso   1.000  C
  C498     1.0000 0.62350  0.12350  0.76400  Biso   1.000  C
  C499     1.0000 0.62350  0.62350  0.26400  Biso   1.000  C
  C500     1.0000 0.12350  0.12350  0.26400  Biso   1.000  C
  C501     1.0000 0.23600  0.37650  0.12350  Biso   1.000  C
  C502     1.0000 0.73600  0.37650  0.62350  Biso   1.000  C
  C503     1.0000 0.76400  0.37650  0.87650  Biso   1.000  C
  C504     1.0000 0.26400  0.37650  0.37650  Biso   1.000  C
  C505     1.0000 0.23600  0.62350  0.87650  Biso   1.000  C
  C506     1.0000 0.23600  0.12350  0.37650  Biso   1.000  C
  C507     1.0000 0.73600  0.62350  0.37650  Biso   1.000  C
  C508     1.0000 0.76400  0.62350  0.12350  Biso   1.000  C
  C509     1.0000 0.26400  0.62350  0.62350  Biso   1.000  C
  C510     1.0000 0.26400  0.12350  0.12350  Biso   1.000  C
  C511     1.0000 0.23600  0.12350  0.62350  Biso   1.000  C
  C512     1.0000 0.73600  0.12350  0.12350  Biso   1.000  C
  C513     1.0000 0.76400  0.87650  0.62350  Biso   1.000  C
  C514     1.0000 0.76400  0.37650  0.12350  Biso   1.000  C
  C515     1.0000 0.26400  0.87650  0.12350  Biso   1.000  C
  C516     1.0000 0.23600  0.87650  0.37650  Biso   1.000  C
  C517     1.0000 0.73600  0.87650  0.87650  Biso   1.000  C
  C518     1.0000 0.73600  0.37650  0.37650  Biso   1.000  C
  C519     1.0000 0.76400  0.12350  0.37650  Biso   1.000  C
  C520     1.0000 0.26400  0.12350  0.87650  Biso   1.000  C
  C521     1.0000 0.12350  0.37650  0.76400  Biso   1.000  C
  C522     1.0000 0.12350  0.87650  0.26400  Biso   1.000  C
  C523     1.0000 0.87650  0.37650  0.23600  Biso   1.000  C
  C524     1.0000 0.87650  0.87650  0.73600  Biso   1.000  C
  C525     1.0000 0.37650  0.37650  0.73600  Biso   1.000  C
  C526     1.0000 0.87650  0.62350  0.76400  Biso   1.000  C
  C527     1.0000 0.87650  0.12350  0.26400  Biso   1.000  C
  C528     1.0000 0.37650  0.12350  0.76400  Biso   1.000  C
  C529     1.0000 0.12350  0.62350  0.23600  Biso   1.000  C
  C530     1.0000 0.12350  0.12350  0.73600  Biso   1.000  C
  C531     1.0000 0.37650  0.23600  0.87650  Biso   1.000  C
  C532     1.0000 0.37650  0.73600  0.37650  Biso   1.000  C
  C533     1.0000 0.37650  0.76400  0.12350  Biso   1.000  C
  C534     1.0000 0.37650  0.26400  0.62350  Biso   1.000  C
  C535     1.0000 0.62350  0.23600  0.12350  Biso   1.000  C
  C536     1.0000 0.62350  0.73600  0.62350  Biso   1.000  C
  C537     1.0000 0.12350  0.73600  0.12350  Biso   1.000  C
  C538     1.0000 0.62350  0.76400  0.87650  Biso   1.000  C
  C539     1.0000 0.62350  0.26400  0.37650  Biso   1.000  C
  C540     1.0000 0.12350  0.76400  0.37650  Biso   1.000  C
  C541     1.0000 0.87650  0.76400  0.62350  Biso   1.000  C
  C542     1.0000 0.87650  0.26400  0.12350  Biso   1.000  C
  C543     1.0000 0.12350  0.23600  0.62350  Biso   1.000  C
  C544     1.0000 0.12350  0.26400  0.87650  Biso   1.000  C
  C545     1.0000 0.87650  0.23600  0.37650  Biso   1.000  C
  C546     1.0000 0.87650  0.73600  0.87650  Biso   1.000  C
  C547     1.0000 0.62350  0.87650  0.76400  Biso   1.000  C
  C548     1.0000 0.62350  0.37650  0.26400  Biso   1.000  C
  C549     1.0000 0.62350  0.12350  0.23600  Biso   1.000  C
  C550     1.0000 0.62350  0.62350  0.73600  Biso   1.000  C
  C551     1.0000 0.37650  0.62350  0.26400  Biso   1.000  C
  C552     1.0000 0.37650  0.87650  0.23600  Biso   1.000  C
  C553     1.0000 0.76400  0.62350  0.87650  Biso   1.000  C
  C554     1.0000 0.26400  0.62350  0.37650  Biso   1.000  C
  C555     1.0000 0.23600  0.62350  0.12350  Biso   1.000  C
  C556     1.0000 0.73600  0.62350  0.62350  Biso   1.000  C
  C557     1.0000 0.26400  0.37650  0.62350  Biso   1.000  C
  C558     1.0000 0.23600  0.37650  0.87650  Biso   1.000  C
  C559     1.0000 0.76400  0.87650  0.37650  Biso   1.000  C
  C560     1.0000 0.26400  0.87650  0.87650  Biso   1.000  C
  C561     1.0000 0.73600  0.12350  0.87650  Biso   1.000  C
  C562     1.0000 0.76400  0.12350  0.62350  Biso   1.000  C
  C563     1.0000 0.23600  0.87650  0.62350  Biso   1.000  C
  C564     1.0000 0.73600  0.87650  0.12350  Biso   1.000  C
  C565     1.0000 0.87650  0.62350  0.23600  Biso   1.000  C
  C566     1.0000 0.87650  0.12350  0.73600  Biso   1.000  C
  C567     1.0000 0.12350  0.62350  0.76400  Biso   1.000  C
  C568     1.0000 0.12350  0.87650  0.73600  Biso   1.000  C
  C569     1.0000 0.87650  0.37650  0.76400  Biso   1.000  C
  C570     1.0000 0.87650  0.87650  0.26400  Biso   1.000  C
  C571     1.0000 0.62350  0.76400  0.12350  Biso   1.000  C
  C572     1.0000 0.62350  0.26400  0.62350  Biso   1.000  C
  C573     1.0000 0.62350  0.23600  0.87650  Biso   1.000  C
  C574     1.0000 0.62350  0.73600  0.37650  Biso   1.000  C
  C575     1.0000 0.37650  0.76400  0.87650  Biso   1.000  C
  C576     1.0000 0.37650  0.73600  0.62350  Biso   1.000  C
  C577     1.0000 0.15780  0.15780  0.34220  Biso   1.000  C
  C578     1.0000 0.84220  0.84220  0.34220  Biso   1.000  C
  C579     1.0000 0.34220  0.34220  0.34220  Biso   1.000  C
  C580     1.0000 0.84220  0.15780  0.65780  Biso   1.000  C
  C581     1.0000 0.34220  0.15780  0.15780  Biso   1.000  C
  C582     1.0000 0.15780  0.84220  0.65780  Biso   1.000  C
  C583     1.0000 0.15780  0.34220  0.15780  Biso   1.000  C
  C584     1.0000 0.34220  0.65780  0.65780  Biso   1.000  C
  C585     1.0000 0.34220  0.84220  0.84220  Biso   1.000  C
  C586     1.0000 0.65780  0.84220  0.15780  Biso   1.000  C
  C587     1.0000 0.65780  0.34220  0.65780  Biso   1.000  C
  C588     1.0000 0.65780  0.15780  0.84220  Biso   1.000  C
  C589     1.0000 0.65780  0.65780  0.34220  Biso   1.000  C
  C590     1.0000 0.84220  0.34220  0.84220  Biso   1.000  C
  C591     1.0000 0.15780  0.65780  0.84220  Biso   1.000  C
  C592     1.0000 0.84220  0.65780  0.15780  Biso   1.000  C
  C593     1.0000 0.15780  0.15780  0.65780  Biso   1.000  C
  C594     1.0000 0.84220  0.84220  0.65780  Biso   1.000  C
  C595     1.0000 0.84220  0.34220  0.15780  Biso   1.000  C
  C596     1.0000 0.34220  0.84220  0.15780  Biso   1.000  C
  C597     1.0000 0.15780  0.84220  0.34220  Biso   1.000  C
  C598     1.0000 0.84220  0.15780  0.34220  Biso   1.000  C
  C599     1.0000 0.34220  0.65780  0.34220  Biso   1.000  C
  C600     1.0000 0.15780  0.34220  0.84220  Biso   1.000  C
  C601     1.0000 0.34220  0.34220  0.65780  Biso   1.000  C
  C602     1.0000 0.84220  0.65780  0.84220  Biso   1.000  C
  C603     1.0000 0.34220  0.15780  0.84220  Biso   1.000  C
  C604     1.0000 0.15780  0.65780  0.15780  Biso   1.000  C
  C605     1.0000 0.65780  0.15780  0.15780  Biso   1.000  C
  C606     1.0000 0.65780  0.65780  0.65780  Biso   1.000  C
  C607     1.0000 0.65780  0.84220  0.84220  Biso   1.000  C
  C608     1.0000 0.65780  0.34220  0.34220  Biso   1.000  C
