data_image0
_cell_length_a       35.5387
_cell_length_b       35.5387
_cell_length_c       53.2607
_cell_angle_alpha    90
_cell_angle_beta     90
_cell_angle_gamma    90

_symmetry_space_group_name_H-M    "P 1"
_symmetry_int_tables_number       1

loop_
  _symmetry_equiv_pos_as_xyz
  'x, y, z'

loop_
  _atom_site_label
  _atom_site_occupancy
  _atom_site_fract_x
  _atom_site_fract_y
  _atom_site_fract_z
  _atom_site_thermal_displace_type
  _atom_site_B_iso_or_equiv
  _atom_site_type_symbol
  Cd1      1.0000 0.19870  0.07812  0.14955  Biso   1.000  Cd
  Cd2      1.0000 0.12509  0.99128  0.15900  Biso   1.000  Cd
  Cd3      1.0000 0.08943  0.10622  0.16931  Biso   1.000  Cd
  Cd4      1.0000 0.16802  0.05573  0.22100  Biso   1.000  Cd
  Cd5      1.0000 0.97798  0.06007  0.16386  Biso   1.000  Cd
  Cd6      1.0000 0.09950  0.91172  0.21577  Biso   1.000  Cd
  Cd7      1.0000 0.05355  0.02219  0.21910  Biso   1.000  Cd
  Cd8      1.0000 0.13089  0.98961  0.27757  Biso   1.000  Cd
  Cd9      1.0000 0.00505  0.13376  0.21666  Biso   1.000  Cd
  Cd10     1.0000 0.09279  0.09592  0.27512  Biso   1.000  Cd
  Cd11     1.0000 0.92863  0.16112  0.27146  Biso   1.000  Cd
  Cd12     1.0000 0.97965  0.05427  0.27322  Biso   1.000  Cd
  Cd13     1.0000 0.90944  0.08543  0.33270  Biso   1.000  Cd
  Cd14     1.0000 0.94172  0.97486  0.32958  Biso   1.000  Cd
  Cd15     1.0000 0.01861  0.13484  0.32646  Biso   1.000  Cd
  Cd16     1.0000 0.92638  0.19705  0.34567  Biso   1.000  Cd
  Se1      1.0000 0.11045  0.04422  0.19187  Biso   1.000  Se
  Se2      1.0000 0.07827  0.96633  0.24628  Biso   1.000  Se
  Se3      1.0000 0.03438  0.08089  0.24568  Biso   1.000  Se
  Se4      1.0000 0.95949  0.11135  0.30112  Biso   1.000  Se
  Se5      1.0000 0.95042  0.11775  0.18644  Biso   1.000  Se
  Se6      1.0000 0.11802  0.04626  0.30631  Biso   1.000  Se
  S1       1.0000 0.89670  0.25160  0.36940  Biso   1.000  S
  S2       1.0000 0.17770  0.01660  0.13132  Biso   1.000  S
  S3       1.0000 0.14710  0.12700  0.14607  Biso   1.000  S
  S4       1.0000 0.22460  0.07400  0.19362  Biso   1.000  S
  S5       1.0000 0.93050  0.02820  0.13353  Biso   1.000  S
  S6       1.0000 0.15260  0.94350  0.18987  Biso   1.000  S
  S7       1.0000 0.03890  0.07790  0.14053  Biso   1.000  S
  S8       1.0000 0.18780  0.00280  0.24889  Biso   1.000  S
  S9       1.0000 0.05990  0.16010  0.19100  Biso   1.000  S
  S10      1.0000 0.14120  0.11440  0.24213  Biso   1.000  S
  S11      1.0000 0.87360  0.13680  0.24725  Biso   1.000  S
  S12      1.0000 0.85720  0.07330  0.30064  Biso   1.000  S
  S13      1.0000 0.98660  0.18580  0.24757  Biso   1.000  S
  S14      1.0000 0.06990  0.15520  0.29813  Biso   1.000  S
  S15      1.0000 0.91150  0.21540  0.30081  Biso   1.000  S
  S16      1.0000 0.93160  0.03130  0.35920  Biso   1.000  S
  S17      1.0000 0.89050  0.14050  0.35956  Biso   1.000  S
  S18      1.0000 0.03060  0.08070  0.35512  Biso   1.000  S
  S19      1.0000 0.99690  0.19230  0.35189  Biso   1.000  S
  C1       1.0000 0.16010  0.03370  0.10290  Biso   1.000  C
  C2       1.0000 0.18910  0.03950  0.08460  Biso   1.000  C
  C3       1.0000 0.17480  0.05550  0.06100  Biso   1.000  C
  C4       1.0000 0.13140  0.06510  0.05600  Biso   1.000  C
  C5       1.0000 0.10920  0.05700  0.07710  Biso   1.000  C
  C6       1.0000 0.12320  0.04470  0.10270  Biso   1.000  C
  C7       1.0000 0.90980  0.06490  0.11380  Biso   1.000  C
  C8       1.0000 0.90880  0.05800  0.08810  Biso   1.000  C
  C9       1.0000 0.89190  0.08380  0.07210  Biso   1.000  C
  C10      1.0000 0.87610  0.11650  0.08170  Biso   1.000  C
  C11      1.0000 0.87700  0.12340  0.10740  Biso   1.000  C
  C12      1.0000 0.89390  0.09760  0.12340  Biso   1.000  C
  C13      1.0000 0.17720  0.91110  0.17140  Biso   1.000  C
  C14      1.0000 0.16600  0.87050  0.17710  Biso   1.000  C
  C15      1.0000 0.19200  0.83910  0.16140  Biso   1.000  C
  C16      1.0000 0.22000  0.85180  0.14530  Biso   1.000  C
  C17      1.0000 0.22610  0.90130  0.14870  Biso   1.000  C
  C18      1.0000 0.20460  0.92420  0.15690  Biso   1.000  C
  C19      1.0000 0.02690  0.11280  0.12050  Biso   1.000  C
  C20      1.0000 0.99020  0.12510  0.11680  Biso   1.000  C
  C21      1.0000 0.98180  0.14900  0.09690  Biso   1.000  C
  C22      1.0000 0.01010  0.16060  0.08070  Biso   1.000  C
  C23      1.0000 0.04690  0.14830  0.08440  Biso   1.000  C
  C24      1.0000 0.05520  0.12440  0.10420  Biso   1.000  C
  C25      1.0000 0.85190  0.17610  0.23180  Biso   1.000  C
  C26      1.0000 0.86950  0.19670  0.21560  Biso   1.000  C
  C27      1.0000 0.96960  0.22670  0.23270  Biso   1.000  C
  C28      1.0000 0.95750  0.25540  0.24820  Biso   1.000  C
  C29      1.0000 0.94260  0.28920  0.23550  Biso   1.000  C
  C30      1.0000 0.94810  0.28750  0.20790  Biso   1.000  C
  C31      1.0000 0.95680  0.25900  0.19090  Biso   1.000  C
  C32      1.0000 0.97370  0.22960  0.20540  Biso   1.000  C
  C33      1.0000 0.85960  0.21920  0.29880  Biso   1.000  C
  C34      1.0000 0.83570  0.18690  0.30200  Biso   1.000  C
  C35      1.0000 0.79620  0.18970  0.30100  Biso   1.000  C
  C36      1.0000 0.78470  0.22530  0.29550  Biso   1.000  C
  C37      1.0000 0.80830  0.25300  0.28590  Biso   1.000  C
  C38      1.0000 0.84450  0.25680  0.28970  Biso   1.000  C
  C39      1.0000 0.88780  0.02590  0.38090  Biso   1.000  C
  C40      1.0000 0.85660  0.01490  0.36950  Biso   1.000  C
  C41      1.0000 0.90660  0.12880  0.39300  Biso   1.000  C
  C42      1.0000 0.06420  0.09780  0.37980  Biso   1.000  C
  C43      1.0000 0.10150  0.07220  0.38050  Biso   1.000  C
  C44      1.0000 0.01850  0.23080  0.33400  Biso   1.000  C
  C45      1.0000 0.01090  0.23460  0.30860  Biso   1.000  C
  C46      1.0000 0.02500  0.26520  0.29530  Biso   1.000  C
  C47      1.0000 0.04680  0.29200  0.30760  Biso   1.000  C
  C48      1.0000 0.05450  0.28820  0.33310  Biso   1.000  C
  C49      1.0000 0.04030  0.25760  0.34630  Biso   1.000  C
  Cd17     1.0000 0.69870  0.57812  0.64955  Biso   1.000  Cd
  Cd18     1.0000 0.62509  0.49128  0.65900  Biso   1.000  Cd
  Cd19     1.0000 0.58943  0.60622  0.66931  Biso   1.000  Cd
  Cd20     1.0000 0.66802  0.55573  0.72100  Biso   1.000  Cd
  Cd21     1.0000 0.47798  0.56007  0.66386  Biso   1.000  Cd
  Cd22     1.0000 0.59950  0.41172  0.71577  Biso   1.000  Cd
  Cd23     1.0000 0.55355  0.52219  0.71910  Biso   1.000  Cd
  Cd24     1.0000 0.63089  0.48961  0.77757  Biso   1.000  Cd
  Cd25     1.0000 0.50505  0.63376  0.71666  Biso   1.000  Cd
  Cd26     1.0000 0.59279  0.59592  0.77512  Biso   1.000  Cd
  Cd27     1.0000 0.42863  0.66112  0.77146  Biso   1.000  Cd
  Cd28     1.0000 0.47965  0.55427  0.77322  Biso   1.000  Cd
  Cd29     1.0000 0.40944  0.58543  0.83270  Biso   1.000  Cd
  Cd30     1.0000 0.44172  0.47486  0.82958  Biso   1.000  Cd
  Cd31     1.0000 0.51861  0.63484  0.82646  Biso   1.000  Cd
  Cd32     1.0000 0.42638  0.69705  0.84567  Biso   1.000  Cd
  Se7      1.0000 0.61045  0.54422  0.69187  Biso   1.000  Se
  Se8      1.0000 0.57827  0.46633  0.74628  Biso   1.000  Se
  Se9      1.0000 0.53438  0.58089  0.74568  Biso   1.000  Se
  Se10     1.0000 0.45949  0.61135  0.80112  Biso   1.000  Se
  Se11     1.0000 0.45042  0.61775  0.68644  Biso   1.000  Se
  Se12     1.0000 0.61802  0.54626  0.80631  Biso   1.000  Se
  S20      1.0000 0.39670  0.75160  0.86940  Biso   1.000  S
  S21      1.0000 0.67770  0.51660  0.63132  Biso   1.000  S
  S22      1.0000 0.64710  0.62700  0.64607  Biso   1.000  S
  S23      1.0000 0.72460  0.57400  0.69362  Biso   1.000  S
  S24      1.0000 0.43050  0.52820  0.63353  Biso   1.000  S
  S25      1.0000 0.65260  0.44350  0.68987  Biso   1.000  S
  S26      1.0000 0.53890  0.57790  0.64053  Biso   1.000  S
  S27      1.0000 0.68780  0.50280  0.74889  Biso   1.000  S
  S28      1.0000 0.55990  0.66010  0.69100  Biso   1.000  S
  S29      1.0000 0.64120  0.61440  0.74213  Biso   1.000  S
  S30      1.0000 0.37360  0.63680  0.74725  Biso   1.000  S
  S31      1.0000 0.35720  0.57330  0.80064  Biso   1.000  S
  S32      1.0000 0.48660  0.68580  0.74757  Biso   1.000  S
  S33      1.0000 0.56990  0.65520  0.79813  Biso   1.000  S
  S34      1.0000 0.41150  0.71540  0.80081  Biso   1.000  S
  S35      1.0000 0.43160  0.53130  0.85920  Biso   1.000  S
  S36      1.0000 0.39050  0.64050  0.85956  Biso   1.000  S
  S37      1.0000 0.53060  0.58070  0.85512  Biso   1.000  S
  S38      1.0000 0.49690  0.69230  0.85189  Biso   1.000  S
  C50      1.0000 0.66010  0.53370  0.60290  Biso   1.000  C
  C51      1.0000 0.68910  0.53950  0.58460  Biso   1.000  C
  C52      1.0000 0.67480  0.55550  0.56100  Biso   1.000  C
  C53      1.0000 0.63140  0.56510  0.55600  Biso   1.000  C
  C54      1.0000 0.60920  0.55700  0.57710  Biso   1.000  C
  C55      1.0000 0.62320  0.54470  0.60270  Biso   1.000  C
  C56      1.0000 0.40980  0.56490  0.61380  Biso   1.000  C
  C57      1.0000 0.40880  0.55800  0.58810  Biso   1.000  C
  C58      1.0000 0.39190  0.58380  0.57210  Biso   1.000  C
  C59      1.0000 0.37610  0.61650  0.58170  Biso   1.000  C
  C60      1.0000 0.37700  0.62340  0.60740  Biso   1.000  C
  C61      1.0000 0.39390  0.59760  0.62340  Biso   1.000  C
  C62      1.0000 0.67720  0.41110  0.67140  Biso   1.000  C
  C63      1.0000 0.66600  0.37050  0.67710  Biso   1.000  C
  C64      1.0000 0.69200  0.33910  0.66140  Biso   1.000  C
  C65      1.0000 0.72000  0.35180  0.64530  Biso   1.000  C
  C66      1.0000 0.72610  0.40130  0.64870  Biso   1.000  C
  C67      1.0000 0.70460  0.42420  0.65690  Biso   1.000  C
  C68      1.0000 0.52690  0.61280  0.62050  Biso   1.000  C
  C69      1.0000 0.49020  0.62510  0.61680  Biso   1.000  C
  C70      1.0000 0.48180  0.64900  0.59690  Biso   1.000  C
  C71      1.0000 0.51010  0.66060  0.58070  Biso   1.000  C
  C72      1.0000 0.54690  0.64830  0.58440  Biso   1.000  C
  C73      1.0000 0.55520  0.62440  0.60420  Biso   1.000  C
  C74      1.0000 0.35190  0.67610  0.73180  Biso   1.000  C
  C75      1.0000 0.36950  0.69670  0.71560  Biso   1.000  C
  C76      1.0000 0.46960  0.72670  0.73270  Biso   1.000  C
  C77      1.0000 0.45750  0.75540  0.74820  Biso   1.000  C
  C78      1.0000 0.44260  0.78920  0.73550  Biso   1.000  C
  C79      1.0000 0.44810  0.78750  0.70790  Biso   1.000  C
  C80      1.0000 0.45680  0.75900  0.69090  Biso   1.000  C
  C81      1.0000 0.47370  0.72960  0.70540  Biso   1.000  C
  C82      1.0000 0.35960  0.71920  0.79880  Biso   1.000  C
  C83      1.0000 0.33570  0.68690  0.80200  Biso   1.000  C
  C84      1.0000 0.29620  0.68970  0.80100  Biso   1.000  C
  C85      1.0000 0.28470  0.72530  0.79550  Biso   1.000  C
  C86      1.0000 0.30830  0.75300  0.78590  Biso   1.000  C
  C87      1.0000 0.34450  0.75680  0.78970  Biso   1.000  C
  C88      1.0000 0.38780  0.52590  0.88090  Biso   1.000  C
  C89      1.0000 0.35660  0.51490  0.86950  Biso   1.000  C
  C90      1.0000 0.40660  0.62880  0.89300  Biso   1.000  C
  C91      1.0000 0.56420  0.59780  0.87980  Biso   1.000  C
  C92      1.0000 0.60150  0.57220  0.88050  Biso   1.000  C
  C93      1.0000 0.51850  0.73080  0.83400  Biso   1.000  C
  C94      1.0000 0.51090  0.73460  0.80860  Biso   1.000  C
  C95      1.0000 0.52500  0.76520  0.79530  Biso   1.000  C
  C96      1.0000 0.54680  0.79200  0.80760  Biso   1.000  C
  C97      1.0000 0.55450  0.78820  0.83310  Biso   1.000  C
  C98      1.0000 0.54030  0.75760  0.84630  Biso   1.000  C
  Cd33     1.0000 0.80130  0.92188  0.14955  Biso   1.000  Cd
  Cd34     1.0000 0.87491  0.00872  0.15900  Biso   1.000  Cd
  Cd35     1.0000 0.91057  0.89378  0.16931  Biso   1.000  Cd
  Cd36     1.0000 0.83198  0.94427  0.22100  Biso   1.000  Cd
  Cd37     1.0000 0.02202  0.93993  0.16386  Biso   1.000  Cd
  Cd38     1.0000 0.90050  0.08828  0.21577  Biso   1.000  Cd
  Cd39     1.0000 0.94645  0.97781  0.21910  Biso   1.000  Cd
  Cd40     1.0000 0.86911  0.01039  0.27757  Biso   1.000  Cd
  Cd41     1.0000 0.99495  0.86624  0.21666  Biso   1.000  Cd
  Cd42     1.0000 0.90721  0.90408  0.27512  Biso   1.000  Cd
  Cd43     1.0000 0.07137  0.83888  0.27146  Biso   1.000  Cd
  Cd44     1.0000 0.02035  0.94573  0.27322  Biso   1.000  Cd
  Cd45     1.0000 0.09056  0.91457  0.33270  Biso   1.000  Cd
  Cd46     1.0000 0.05828  0.02514  0.32958  Biso   1.000  Cd
  Cd47     1.0000 0.98139  0.86516  0.32646  Biso   1.000  Cd
  Cd48     1.0000 0.07362  0.80295  0.34567  Biso   1.000  Cd
  Se13     1.0000 0.88955  0.95578  0.19187  Biso   1.000  Se
  Se14     1.0000 0.92173  0.03367  0.24628  Biso   1.000  Se
  Se15     1.0000 0.96562  0.91911  0.24568  Biso   1.000  Se
  Se16     1.0000 0.04051  0.88865  0.30112  Biso   1.000  Se
  Se17     1.0000 0.04958  0.88225  0.18644  Biso   1.000  Se
  Se18     1.0000 0.88198  0.95374  0.30631  Biso   1.000  Se
  S39      1.0000 0.10330  0.74840  0.36940  Biso   1.000  S
  S40      1.0000 0.82230  0.98340  0.13132  Biso   1.000  S
  S41      1.0000 0.85290  0.87300  0.14607  Biso   1.000  S
  S42      1.0000 0.77540  0.92600  0.19362  Biso   1.000  S
  S43      1.0000 0.06950  0.97180  0.13353  Biso   1.000  S
  S44      1.0000 0.84740  0.05650  0.18987  Biso   1.000  S
  S45      1.0000 0.96110  0.92210  0.14053  Biso   1.000  S
  S46      1.0000 0.81220  0.99720  0.24889  Biso   1.000  S
  S47      1.0000 0.94010  0.83990  0.19100  Biso   1.000  S
  S48      1.0000 0.85880  0.88560  0.24213  Biso   1.000  S
  S49      1.0000 0.12640  0.86320  0.24725  Biso   1.000  S
  S50      1.0000 0.14280  0.92670  0.30064  Biso   1.000  S
  S51      1.0000 0.01340  0.81420  0.24757  Biso   1.000  S
  S52      1.0000 0.93010  0.84480  0.29813  Biso   1.000  S
  S53      1.0000 0.08850  0.78460  0.30081  Biso   1.000  S
  S54      1.0000 0.06840  0.96870  0.35920  Biso   1.000  S
  S55      1.0000 0.10950  0.85950  0.35956  Biso   1.000  S
  S56      1.0000 0.96940  0.91930  0.35512  Biso   1.000  S
  S57      1.0000 0.00310  0.80770  0.35189  Biso   1.000  S
  C99      1.0000 0.83990  0.96630  0.10290  Biso   1.000  C
  C100     1.0000 0.81090  0.96050  0.08460  Biso   1.000  C
  C101     1.0000 0.82520  0.94450  0.06100  Biso   1.000  C
  C102     1.0000 0.86860  0.93490  0.05600  Biso   1.000  C
  C103     1.0000 0.89080  0.94300  0.07710  Biso   1.000  C
  C104     1.0000 0.87680  0.95530  0.10270  Biso   1.000  C
  C105     1.0000 0.09020  0.93510  0.11380  Biso   1.000  C
  C106     1.0000 0.09120  0.94200  0.08810  Biso   1.000  C
  C107     1.0000 0.10810  0.91620  0.07210  Biso   1.000  C
  C108     1.0000 0.12390  0.88350  0.08170  Biso   1.000  C
  C109     1.0000 0.12300  0.87660  0.10740  Biso   1.000  C
  C110     1.0000 0.10610  0.90240  0.12340  Biso   1.000  C
  C111     1.0000 0.82280  0.08890  0.17140  Biso   1.000  C
  C112     1.0000 0.83400  0.12950  0.17710  Biso   1.000  C
  C113     1.0000 0.80800  0.16090  0.16140  Biso   1.000  C
  C114     1.0000 0.78000  0.14820  0.14530  Biso   1.000  C
  C115     1.0000 0.77390  0.09870  0.14870  Biso   1.000  C
  C116     1.0000 0.79540  0.07580  0.15690  Biso   1.000  C
  C117     1.0000 0.97310  0.88720  0.12050  Biso   1.000  C
  C118     1.0000 0.00980  0.87490  0.11680  Biso   1.000  C
  C119     1.0000 0.01820  0.85100  0.09690  Biso   1.000  C
  C120     1.0000 0.98990  0.83940  0.08070  Biso   1.000  C
  C121     1.0000 0.95310  0.85170  0.08440  Biso   1.000  C
  C122     1.0000 0.94480  0.87560  0.10420  Biso   1.000  C
  C123     1.0000 0.14810  0.82390  0.23180  Biso   1.000  C
  C124     1.0000 0.13050  0.80330  0.21560  Biso   1.000  C
  C125     1.0000 0.03040  0.77330  0.23270  Biso   1.000  C
  C126     1.0000 0.04250  0.74460  0.24820  Biso   1.000  C
  C127     1.0000 0.05740  0.71080  0.23550  Biso   1.000  C
  C128     1.0000 0.05190  0.71250  0.20790  Biso   1.000  C
  C129     1.0000 0.04320  0.74100  0.19090  Biso   1.000  C
  C130     1.0000 0.02630  0.77040  0.20540  Biso   1.000  C
  C131     1.0000 0.14040  0.78080  0.29880  Biso   1.000  C
  C132     1.0000 0.16430  0.81310  0.30200  Biso   1.000  C
  C133     1.0000 0.20380  0.81030  0.30100  Biso   1.000  C
  C134     1.0000 0.21530  0.77470  0.29550  Biso   1.000  C
  C135     1.0000 0.19170  0.74700  0.28590  Biso   1.000  C
  C136     1.0000 0.15550  0.74320  0.28970  Biso   1.000  C
  C137     1.0000 0.11220  0.97410  0.38090  Biso   1.000  C
  C138     1.0000 0.14340  0.98510  0.36950  Biso   1.000  C
  C139     1.0000 0.09340  0.87120  0.39300  Biso   1.000  C
  C140     1.0000 0.93580  0.90220  0.37980  Biso   1.000  C
  C141     1.0000 0.89850  0.92780  0.38050  Biso   1.000  C
  C142     1.0000 0.98150  0.76920  0.33400  Biso   1.000  C
  C143     1.0000 0.98910  0.76540  0.30860  Biso   1.000  C
  C144     1.0000 0.97500  0.73480  0.29530  Biso   1.000  C
  C145     1.0000 0.95320  0.70800  0.30760  Biso   1.000  C
  C146     1.0000 0.94550  0.71180  0.33310  Biso   1.000  C
  C147     1.0000 0.95970  0.74240  0.34630  Biso   1.000  C
  Cd49     1.0000 0.30130  0.42188  0.64955  Biso   1.000  Cd
  Cd50     1.0000 0.37491  0.50872  0.65900  Biso   1.000  Cd
  Cd51     1.0000 0.41057  0.39378  0.66931  Biso   1.000  Cd
  Cd52     1.0000 0.33198  0.44427  0.72100  Biso   1.000  Cd
  Cd53     1.0000 0.52202  0.43993  0.66386  Biso   1.000  Cd
  Cd54     1.0000 0.40050  0.58828  0.71577  Biso   1.000  Cd
  Cd55     1.0000 0.44645  0.47781  0.71910  Biso   1.000  Cd
  Cd56     1.0000 0.36911  0.51039  0.77757  Biso   1.000  Cd
  Cd57     1.0000 0.49495  0.36624  0.71666  Biso   1.000  Cd
  Cd58     1.0000 0.40721  0.40408  0.77512  Biso   1.000  Cd
  Cd59     1.0000 0.57137  0.33888  0.77146  Biso   1.000  Cd
  Cd60     1.0000 0.52035  0.44573  0.77322  Biso   1.000  Cd
  Cd61     1.0000 0.59056  0.41457  0.83270  Biso   1.000  Cd
  Cd62     1.0000 0.55828  0.52514  0.82958  Biso   1.000  Cd
  Cd63     1.0000 0.48139  0.36516  0.82646  Biso   1.000  Cd
  Cd64     1.0000 0.57362  0.30295  0.84567  Biso   1.000  Cd
  Se19     1.0000 0.38955  0.45578  0.69187  Biso   1.000  Se
  Se20     1.0000 0.42173  0.53367  0.74628  Biso   1.000  Se
  Se21     1.0000 0.46562  0.41911  0.74568  Biso   1.000  Se
  Se22     1.0000 0.54051  0.38865  0.80112  Biso   1.000  Se
  Se23     1.0000 0.54958  0.38225  0.68644  Biso   1.000  Se
  Se24     1.0000 0.38198  0.45374  0.80631  Biso   1.000  Se
  S58      1.0000 0.60330  0.24840  0.86940  Biso   1.000  S
  S59      1.0000 0.32230  0.48340  0.63132  Biso   1.000  S
  S60      1.0000 0.35290  0.37300  0.64607  Biso   1.000  S
  S61      1.0000 0.27540  0.42600  0.69362  Biso   1.000  S
  S62      1.0000 0.56950  0.47180  0.63353  Biso   1.000  S
  S63      1.0000 0.34740  0.55650  0.68987  Biso   1.000  S
  S64      1.0000 0.46110  0.42210  0.64053  Biso   1.000  S
  S65      1.0000 0.31220  0.49720  0.74889  Biso   1.000  S
  S66      1.0000 0.44010  0.33990  0.69100  Biso   1.000  S
  S67      1.0000 0.35880  0.38560  0.74213  Biso   1.000  S
  S68      1.0000 0.62640  0.36320  0.74725  Biso   1.000  S
  S69      1.0000 0.64280  0.42670  0.80064  Biso   1.000  S
  S70      1.0000 0.51340  0.31420  0.74757  Biso   1.000  S
  S71      1.0000 0.43010  0.34480  0.79813  Biso   1.000  S
  S72      1.0000 0.58850  0.28460  0.80081  Biso   1.000  S
  S73      1.0000 0.56840  0.46870  0.85920  Biso   1.000  S
  S74      1.0000 0.60950  0.35950  0.85956  Biso   1.000  S
  S75      1.0000 0.46940  0.41930  0.85512  Biso   1.000  S
  S76      1.0000 0.50310  0.30770  0.85189  Biso   1.000  S
  C148     1.0000 0.33990  0.46630  0.60290  Biso   1.000  C
  C149     1.0000 0.31090  0.46050  0.58460  Biso   1.000  C
  C150     1.0000 0.32520  0.44450  0.56100  Biso   1.000  C
  C151     1.0000 0.36860  0.43490  0.55600  Biso   1.000  C
  C152     1.0000 0.39080  0.44300  0.57710  Biso   1.000  C
  C153     1.0000 0.37680  0.45530  0.60270  Biso   1.000  C
  C154     1.0000 0.59020  0.43510  0.61380  Biso   1.000  C
  C155     1.0000 0.59120  0.44200  0.58810  Biso   1.000  C
  C156     1.0000 0.60810  0.41620  0.57210  Biso   1.000  C
  C157     1.0000 0.62390  0.38350  0.58170  Biso   1.000  C
  C158     1.0000 0.62300  0.37660  0.60740  Biso   1.000  C
  C159     1.0000 0.60610  0.40240  0.62340  Biso   1.000  C
  C160     1.0000 0.32280  0.58890  0.67140  Biso   1.000  C
  C161     1.0000 0.33400  0.62950  0.67710  Biso   1.000  C
  C162     1.0000 0.30800  0.66090  0.66140  Biso   1.000  C
  C163     1.0000 0.28000  0.64820  0.64530  Biso   1.000  C
  C164     1.0000 0.27390  0.59870  0.64870  Biso   1.000  C
  C165     1.0000 0.29540  0.57580  0.65690  Biso   1.000  C
  C166     1.0000 0.47310  0.38720  0.62050  Biso   1.000  C
  C167     1.0000 0.50980  0.37490  0.61680  Biso   1.000  C
  C168     1.0000 0.51820  0.35100  0.59690  Biso   1.000  C
  C169     1.0000 0.48990  0.33940  0.58070  Biso   1.000  C
  C170     1.0000 0.45310  0.35170  0.58440  Biso   1.000  C
  C171     1.0000 0.44480  0.37560  0.60420  Biso   1.000  C
  C172     1.0000 0.64810  0.32390  0.73180  Biso   1.000  C
  C173     1.0000 0.63050  0.30330  0.71560  Biso   1.000  C
  C174     1.0000 0.53040  0.27330  0.73270  Biso   1.000  C
  C175     1.0000 0.54250  0.24460  0.74820  Biso   1.000  C
  C176     1.0000 0.55740  0.21080  0.73550  Biso   1.000  C
  C177     1.0000 0.55190  0.21250  0.70790  Biso   1.000  C
  C178     1.0000 0.54320  0.24100  0.69090  Biso   1.000  C
  C179     1.0000 0.52630  0.27040  0.70540  Biso   1.000  C
  C180     1.0000 0.64040  0.28080  0.79880  Biso   1.000  C
  C181     1.0000 0.66430  0.31310  0.80200  Biso   1.000  C
  C182     1.0000 0.70380  0.31030  0.80100  Biso   1.000  C
  C183     1.0000 0.71530  0.27470  0.79550  Biso   1.000  C
  C184     1.0000 0.69170  0.24700  0.78590  Biso   1.000  C
  C185     1.0000 0.65550  0.24320  0.78970  Biso   1.000  C
  C186     1.0000 0.61220  0.47410  0.88090  Biso   1.000  C
  C187     1.0000 0.64340  0.48510  0.86950  Biso   1.000  C
  C188     1.0000 0.59340  0.37120  0.89300  Biso   1.000  C
  C189     1.0000 0.43580  0.40220  0.87980  Biso   1.000  C
  C190     1.0000 0.39850  0.42780  0.88050  Biso   1.000  C
  C191     1.0000 0.48150  0.26920  0.83400  Biso   1.000  C
  C192     1.0000 0.48910  0.26540  0.80860  Biso   1.000  C
  C193     1.0000 0.47500  0.23480  0.79530  Biso   1.000  C
  C194     1.0000 0.45320  0.20800  0.80760  Biso   1.000  C
  C195     1.0000 0.44550  0.21180  0.83310  Biso   1.000  C
  C196     1.0000 0.45970  0.24240  0.84630  Biso   1.000  C
  Cd65     1.0000 0.42188  0.80130  0.89955  Biso   1.000  Cd
  Cd66     1.0000 0.50872  0.87491  0.90900  Biso   1.000  Cd
  Cd67     1.0000 0.39378  0.91057  0.91931  Biso   1.000  Cd
  Cd68     1.0000 0.44427  0.83198  0.97100  Biso   1.000  Cd
  Cd69     1.0000 0.43993  0.02202  0.91386  Biso   1.000  Cd
  Cd70     1.0000 0.58828  0.90050  0.96577  Biso   1.000  Cd
  Cd71     1.0000 0.47781  0.94645  0.96910  Biso   1.000  Cd
  Cd72     1.0000 0.51039  0.86911  0.02757  Biso   1.000  Cd
  Cd73     1.0000 0.36624  0.99495  0.96666  Biso   1.000  Cd
  Cd74     1.0000 0.40408  0.90721  0.02512  Biso   1.000  Cd
  Cd75     1.0000 0.33888  0.07137  0.02146  Biso   1.000  Cd
  Cd76     1.0000 0.44573  0.02035  0.02322  Biso   1.000  Cd
  Cd77     1.0000 0.41457  0.09056  0.08270  Biso   1.000  Cd
  Cd78     1.0000 0.52514  0.05828  0.07958  Biso   1.000  Cd
  Cd79     1.0000 0.36516  0.98139  0.07646  Biso   1.000  Cd
  Cd80     1.0000 0.30295  0.07362  0.09567  Biso   1.000  Cd
  Se25     1.0000 0.45578  0.88955  0.94187  Biso   1.000  Se
  Se26     1.0000 0.53367  0.92173  0.99628  Biso   1.000  Se
  Se27     1.0000 0.41911  0.96562  0.99568  Biso   1.000  Se
  Se28     1.0000 0.38865  0.04051  0.05112  Biso   1.000  Se
  Se29     1.0000 0.38225  0.04958  0.93644  Biso   1.000  Se
  Se30     1.0000 0.45374  0.88198  0.05631  Biso   1.000  Se
  S77      1.0000 0.24840  0.10330  0.11940  Biso   1.000  S
  S78      1.0000 0.48340  0.82230  0.88132  Biso   1.000  S
  S79      1.0000 0.37300  0.85290  0.89607  Biso   1.000  S
  S80      1.0000 0.42600  0.77540  0.94362  Biso   1.000  S
  S81      1.0000 0.47180  0.06950  0.88353  Biso   1.000  S
  S82      1.0000 0.55650  0.84740  0.93987  Biso   1.000  S
  S83      1.0000 0.42210  0.96110  0.89053  Biso   1.000  S
  S84      1.0000 0.49720  0.81220  0.99889  Biso   1.000  S
  S85      1.0000 0.33990  0.94010  0.94100  Biso   1.000  S
  S86      1.0000 0.38560  0.85880  0.99213  Biso   1.000  S
  S87      1.0000 0.36320  0.12640  0.99725  Biso   1.000  S
  S88      1.0000 0.42670  0.14280  0.05064  Biso   1.000  S
  S89      1.0000 0.31420  0.01340  0.99757  Biso   1.000  S
  S90      1.0000 0.34480  0.93010  0.04813  Biso   1.000  S
  S91      1.0000 0.28460  0.08850  0.05081  Biso   1.000  S
  S92      1.0000 0.46870  0.06840  0.10920  Biso   1.000  S
  S93      1.0000 0.35950  0.10950  0.10956  Biso   1.000  S
  S94      1.0000 0.41930  0.96940  0.10512  Biso   1.000  S
  S95      1.0000 0.30770  0.00310  0.10189  Biso   1.000  S
  C197     1.0000 0.46630  0.83990  0.85290  Biso   1.000  C
  C198     1.0000 0.46050  0.81090  0.83460  Biso   1.000  C
  C199     1.0000 0.44450  0.82520  0.81100  Biso   1.000  C
  C200     1.0000 0.43490  0.86860  0.80600  Biso   1.000  C
  C201     1.0000 0.44300  0.89080  0.82710  Biso   1.000  C
  C202     1.0000 0.45530  0.87680  0.85270  Biso   1.000  C
  C203     1.0000 0.43510  0.09020  0.86380  Biso   1.000  C
  C204     1.0000 0.44200  0.09120  0.83810  Biso   1.000  C
  C205     1.0000 0.41620  0.10810  0.82210  Biso   1.000  C
  C206     1.0000 0.38350  0.12390  0.83170  Biso   1.000  C
  C207     1.0000 0.37660  0.12300  0.85740  Biso   1.000  C
  C208     1.0000 0.40240  0.10610  0.87340  Biso   1.000  C
  C209     1.0000 0.58890  0.82280  0.92140  Biso   1.000  C
  C210     1.0000 0.62950  0.83400  0.92710  Biso   1.000  C
  C211     1.0000 0.66090  0.80800  0.91140  Biso   1.000  C
  C212     1.0000 0.64820  0.78000  0.89530  Biso   1.000  C
  C213     1.0000 0.59870  0.77390  0.89870  Biso   1.000  C
  C214     1.0000 0.57580  0.79540  0.90690  Biso   1.000  C
  C215     1.0000 0.38720  0.97310  0.87050  Biso   1.000  C
  C216     1.0000 0.37490  0.00980  0.86680  Biso   1.000  C
  C217     1.0000 0.35100  0.01820  0.84690  Biso   1.000  C
  C218     1.0000 0.33940  0.98990  0.83070  Biso   1.000  C
  C219     1.0000 0.35170  0.95310  0.83440  Biso   1.000  C
  C220     1.0000 0.37560  0.94480  0.85420  Biso   1.000  C
  C221     1.0000 0.32390  0.14810  0.98180  Biso   1.000  C
  C222     1.0000 0.30330  0.13050  0.96560  Biso   1.000  C
  C223     1.0000 0.27330  0.03040  0.98270  Biso   1.000  C
  C224     1.0000 0.24460  0.04250  0.99820  Biso   1.000  C
  C225     1.0000 0.21080  0.05740  0.98550  Biso   1.000  C
  C226     1.0000 0.21250  0.05190  0.95790  Biso   1.000  C
  C227     1.0000 0.24100  0.04320  0.94090  Biso   1.000  C
  C228     1.0000 0.27040  0.02630  0.95540  Biso   1.000  C
  C229     1.0000 0.28080  0.14040  0.04880  Biso   1.000  C
  C230     1.0000 0.31310  0.16430  0.05200  Biso   1.000  C
  C231     1.0000 0.31030  0.20380  0.05100  Biso   1.000  C
  C232     1.0000 0.27470  0.21530  0.04550  Biso   1.000  C
  C233     1.0000 0.24700  0.19170  0.03590  Biso   1.000  C
  C234     1.0000 0.24320  0.15550  0.03970  Biso   1.000  C
  C235     1.0000 0.47410  0.11220  0.13090  Biso   1.000  C
  C236     1.0000 0.48510  0.14340  0.11950  Biso   1.000  C
  C237     1.0000 0.37120  0.09340  0.14300  Biso   1.000  C
  C238     1.0000 0.40220  0.93580  0.12980  Biso   1.000  C
  C239     1.0000 0.42780  0.89850  0.13050  Biso   1.000  C
  C240     1.0000 0.26920  0.98150  0.08400  Biso   1.000  C
  C241     1.0000 0.26540  0.98910  0.05860  Biso   1.000  C
  C242     1.0000 0.23480  0.97500  0.04530  Biso   1.000  C
  C243     1.0000 0.20800  0.95320  0.05760  Biso   1.000  C
  C244     1.0000 0.21180  0.94550  0.08310  Biso   1.000  C
  C245     1.0000 0.24240  0.95970  0.09630  Biso   1.000  C
  Cd81     1.0000 0.92188  0.30130  0.39955  Biso   1.000  Cd
  Cd82     1.0000 0.00872  0.37491  0.40900  Biso   1.000  Cd
  Cd83     1.0000 0.89378  0.41057  0.41931  Biso   1.000  Cd
  Cd84     1.0000 0.94427  0.33198  0.47100  Biso   1.000  Cd
  Cd85     1.0000 0.93993  0.52202  0.41386  Biso   1.000  Cd
  Cd86     1.0000 0.08828  0.40050  0.46577  Biso   1.000  Cd
  Cd87     1.0000 0.97781  0.44645  0.46910  Biso   1.000  Cd
  Cd88     1.0000 0.01039  0.36911  0.52757  Biso   1.000  Cd
  Cd89     1.0000 0.86624  0.49495  0.46666  Biso   1.000  Cd
  Cd90     1.0000 0.90408  0.40721  0.52512  Biso   1.000  Cd
  Cd91     1.0000 0.83888  0.57137  0.52146  Biso   1.000  Cd
  Cd92     1.0000 0.94573  0.52035  0.52322  Biso   1.000  Cd
  Cd93     1.0000 0.91457  0.59056  0.58270  Biso   1.000  Cd
  Cd94     1.0000 0.02514  0.55828  0.57958  Biso   1.000  Cd
  Cd95     1.0000 0.86516  0.48139  0.57646  Biso   1.000  Cd
  Cd96     1.0000 0.80295  0.57362  0.59567  Biso   1.000  Cd
  Se31     1.0000 0.95578  0.38955  0.44187  Biso   1.000  Se
  Se32     1.0000 0.03367  0.42173  0.49628  Biso   1.000  Se
  Se33     1.0000 0.91911  0.46562  0.49568  Biso   1.000  Se
  Se34     1.0000 0.88865  0.54051  0.55112  Biso   1.000  Se
  Se35     1.0000 0.88225  0.54958  0.43644  Biso   1.000  Se
  Se36     1.0000 0.95374  0.38198  0.55631  Biso   1.000  Se
  S96      1.0000 0.74840  0.60330  0.61940  Biso   1.000  S
  S97      1.0000 0.98340  0.32230  0.38132  Biso   1.000  S
  S98      1.0000 0.87300  0.35290  0.39607  Biso   1.000  S
  S99      1.0000 0.92600  0.27540  0.44362  Biso   1.000  S
  S100     1.0000 0.97180  0.56950  0.38353  Biso   1.000  S
  S101     1.0000 0.05650  0.34740  0.43987  Biso   1.000  S
  S102     1.0000 0.92210  0.46110  0.39053  Biso   1.000  S
  S103     1.0000 0.99720  0.31220  0.49889  Biso   1.000  S
  S104     1.0000 0.83990  0.44010  0.44100  Biso   1.000  S
  S105     1.0000 0.88560  0.35880  0.49213  Biso   1.000  S
  S106     1.0000 0.86320  0.62640  0.49725  Biso   1.000  S
  S107     1.0000 0.92670  0.64280  0.55064  Biso   1.000  S
  S108     1.0000 0.81420  0.51340  0.49757  Biso   1.000  S
  S109     1.0000 0.84480  0.43010  0.54813  Biso   1.000  S
  S110     1.0000 0.78460  0.58850  0.55081  Biso   1.000  S
  S111     1.0000 0.96870  0.56840  0.60920  Biso   1.000  S
  S112     1.0000 0.85950  0.60950  0.60956  Biso   1.000  S
  S113     1.0000 0.91930  0.46940  0.60512  Biso   1.000  S
  S114     1.0000 0.80770  0.50310  0.60189  Biso   1.000  S
  C246     1.0000 0.96630  0.33990  0.35290  Biso   1.000  C
  C247     1.0000 0.96050  0.31090  0.33460  Biso   1.000  C
  C248     1.0000 0.94450  0.32520  0.31100  Biso   1.000  C
  C249     1.0000 0.93490  0.36860  0.30600  Biso   1.000  C
  C250     1.0000 0.94300  0.39080  0.32710  Biso   1.000  C
  C251     1.0000 0.95530  0.37680  0.35270  Biso   1.000  C
  C252     1.0000 0.93510  0.59020  0.36380  Biso   1.000  C
  C253     1.0000 0.94200  0.59120  0.33810  Biso   1.000  C
  C254     1.0000 0.91620  0.60810  0.32210  Biso   1.000  C
  C255     1.0000 0.88350  0.62390  0.33170  Biso   1.000  C
  C256     1.0000 0.87660  0.62300  0.35740  Biso   1.000  C
  C257     1.0000 0.90240  0.60610  0.37340  Biso   1.000  C
  C258     1.0000 0.08890  0.32280  0.42140  Biso   1.000  C
  C259     1.0000 0.12950  0.33400  0.42710  Biso   1.000  C
  C260     1.0000 0.16090  0.30800  0.41140  Biso   1.000  C
  C261     1.0000 0.14820  0.28000  0.39530  Biso   1.000  C
  C262     1.0000 0.09870  0.27390  0.39870  Biso   1.000  C
  C263     1.0000 0.07580  0.29540  0.40690  Biso   1.000  C
  C264     1.0000 0.88720  0.47310  0.37050  Biso   1.000  C
  C265     1.0000 0.87490  0.50980  0.36680  Biso   1.000  C
  C266     1.0000 0.85100  0.51820  0.34690  Biso   1.000  C
  C267     1.0000 0.83940  0.48990  0.33070  Biso   1.000  C
  C268     1.0000 0.85170  0.45310  0.33440  Biso   1.000  C
  C269     1.0000 0.87560  0.44480  0.35420  Biso   1.000  C
  C270     1.0000 0.82390  0.64810  0.48180  Biso   1.000  C
  C271     1.0000 0.80330  0.63050  0.46560  Biso   1.000  C
  C272     1.0000 0.77330  0.53040  0.48270  Biso   1.000  C
  C273     1.0000 0.74460  0.54250  0.49820  Biso   1.000  C
  C274     1.0000 0.71080  0.55740  0.48550  Biso   1.000  C
  C275     1.0000 0.71250  0.55190  0.45790  Biso   1.000  C
  C276     1.0000 0.74100  0.54320  0.44090  Biso   1.000  C
  C277     1.0000 0.77040  0.52630  0.45540  Biso   1.000  C
  C278     1.0000 0.78080  0.64040  0.54880  Biso   1.000  C
  C279     1.0000 0.81310  0.66430  0.55200  Biso   1.000  C
  C280     1.0000 0.81030  0.70380  0.55100  Biso   1.000  C
  C281     1.0000 0.77470  0.71530  0.54550  Biso   1.000  C
  C282     1.0000 0.74700  0.69170  0.53590  Biso   1.000  C
  C283     1.0000 0.74320  0.65550  0.53970  Biso   1.000  C
  C284     1.0000 0.97410  0.61220  0.63090  Biso   1.000  C
  C285     1.0000 0.98510  0.64340  0.61950  Biso   1.000  C
  C286     1.0000 0.87120  0.59340  0.64300  Biso   1.000  C
  C287     1.0000 0.90220  0.43580  0.62980  Biso   1.000  C
  C288     1.0000 0.92780  0.39850  0.63050  Biso   1.000  C
  C289     1.0000 0.76920  0.48150  0.58400  Biso   1.000  C
  C290     1.0000 0.76540  0.48910  0.55860  Biso   1.000  C
  C291     1.0000 0.73480  0.47500  0.54530  Biso   1.000  C
  C292     1.0000 0.70800  0.45320  0.55760  Biso   1.000  C
  C293     1.0000 0.71180  0.44550  0.58310  Biso   1.000  C
  C294     1.0000 0.74240  0.45970  0.59630  Biso   1.000  C
  Cd97     1.0000 0.57812  0.19870  0.89955  Biso   1.000  Cd
  Cd98     1.0000 0.49128  0.12509  0.90900  Biso   1.000  Cd
  Cd99     1.0000 0.60622  0.08943  0.91931  Biso   1.000  Cd
  Cd100    1.0000 0.55573  0.16802  0.97100  Biso   1.000  Cd
  Cd101    1.0000 0.56007  0.97798  0.91386  Biso   1.000  Cd
  Cd102    1.0000 0.41172  0.09950  0.96577  Biso   1.000  Cd
  Cd103    1.0000 0.52219  0.05355  0.96910  Biso   1.000  Cd
  Cd104    1.0000 0.48961  0.13089  0.02757  Biso   1.000  Cd
  Cd105    1.0000 0.63376  0.00505  0.96666  Biso   1.000  Cd
  Cd106    1.0000 0.59592  0.09279  0.02512  Biso   1.000  Cd
  Cd107    1.0000 0.66112  0.92863  0.02146  Biso   1.000  Cd
  Cd108    1.0000 0.55427  0.97965  0.02322  Biso   1.000  Cd
  Cd109    1.0000 0.58543  0.90944  0.08270  Biso   1.000  Cd
  Cd110    1.0000 0.47486  0.94172  0.07958  Biso   1.000  Cd
  Cd111    1.0000 0.63484  0.01861  0.07646  Biso   1.000  Cd
  Cd112    1.0000 0.69705  0.92638  0.09567  Biso   1.000  Cd
  Se37     1.0000 0.54422  0.11045  0.94187  Biso   1.000  Se
  Se38     1.0000 0.46633  0.07827  0.99628  Biso   1.000  Se
  Se39     1.0000 0.58089  0.03438  0.99568  Biso   1.000  Se
  Se40     1.0000 0.61135  0.95949  0.05112  Biso   1.000  Se
  Se41     1.0000 0.61775  0.95042  0.93644  Biso   1.000  Se
  Se42     1.0000 0.54626  0.11802  0.05631  Biso   1.000  Se
  S115     1.0000 0.75160  0.89670  0.11940  Biso   1.000  S
  S116     1.0000 0.51660  0.17770  0.88132  Biso   1.000  S
  S117     1.0000 0.62700  0.14710  0.89607  Biso   1.000  S
  S118     1.0000 0.57400  0.22460  0.94362  Biso   1.000  S
  S119     1.0000 0.52820  0.93050  0.88353  Biso   1.000  S
  S120     1.0000 0.44350  0.15260  0.93987  Biso   1.000  S
  S121     1.0000 0.57790  0.03890  0.89053  Biso   1.000  S
  S122     1.0000 0.50280  0.18780  0.99889  Biso   1.000  S
  S123     1.0000 0.66010  0.05990  0.94100  Biso   1.000  S
  S124     1.0000 0.61440  0.14120  0.99213  Biso   1.000  S
  S125     1.0000 0.63680  0.87360  0.99725  Biso   1.000  S
  S126     1.0000 0.57330  0.85720  0.05064  Biso   1.000  S
  S127     1.0000 0.68580  0.98660  0.99757  Biso   1.000  S
  S128     1.0000 0.65520  0.06990  0.04813  Biso   1.000  S
  S129     1.0000 0.71540  0.91150  0.05081  Biso   1.000  S
  S130     1.0000 0.53130  0.93160  0.10920  Biso   1.000  S
  S131     1.0000 0.64050  0.89050  0.10956  Biso   1.000  S
  S132     1.0000 0.58070  0.03060  0.10512  Biso   1.000  S
  S133     1.0000 0.69230  0.99690  0.10189  Biso   1.000  S
  C295     1.0000 0.53370  0.16010  0.85290  Biso   1.000  C
  C296     1.0000 0.53950  0.18910  0.83460  Biso   1.000  C
  C297     1.0000 0.55550  0.17480  0.81100  Biso   1.000  C
  C298     1.0000 0.56510  0.13140  0.80600  Biso   1.000  C
  C299     1.0000 0.55700  0.10920  0.82710  Biso   1.000  C
  C300     1.0000 0.54470  0.12320  0.85270  Biso   1.000  C
  C301     1.0000 0.56490  0.90980  0.86380  Biso   1.000  C
  C302     1.0000 0.55800  0.90880  0.83810  Biso   1.000  C
  C303     1.0000 0.58380  0.89190  0.82210  Biso   1.000  C
  C304     1.0000 0.61650  0.87610  0.83170  Biso   1.000  C
  C305     1.0000 0.62340  0.87700  0.85740  Biso   1.000  C
  C306     1.0000 0.59760  0.89390  0.87340  Biso   1.000  C
  C307     1.0000 0.41110  0.17720  0.92140  Biso   1.000  C
  C308     1.0000 0.37050  0.16600  0.92710  Biso   1.000  C
  C309     1.0000 0.33910  0.19200  0.91140  Biso   1.000  C
  C310     1.0000 0.35180  0.22000  0.89530  Biso   1.000  C
  C311     1.0000 0.40130  0.22610  0.89870  Biso   1.000  C
  C312     1.0000 0.42420  0.20460  0.90690  Biso   1.000  C
  C313     1.0000 0.61280  0.02690  0.87050  Biso   1.000  C
  C314     1.0000 0.62510  0.99020  0.86680  Biso   1.000  C
  C315     1.0000 0.64900  0.98180  0.84690  Biso   1.000  C
  C316     1.0000 0.66060  0.01010  0.83070  Biso   1.000  C
  C317     1.0000 0.64830  0.04690  0.83440  Biso   1.000  C
  C318     1.0000 0.62440  0.05520  0.85420  Biso   1.000  C
  C319     1.0000 0.67610  0.85190  0.98180  Biso   1.000  C
  C320     1.0000 0.69670  0.86950  0.96560  Biso   1.000  C
  C321     1.0000 0.72670  0.96960  0.98270  Biso   1.000  C
  C322     1.0000 0.75540  0.95750  0.99820  Biso   1.000  C
  C323     1.0000 0.78920  0.94260  0.98550  Biso   1.000  C
  C324     1.0000 0.78750  0.94810  0.95790  Biso   1.000  C
  C325     1.0000 0.75900  0.95680  0.94090  Biso   1.000  C
  C326     1.0000 0.72960  0.97370  0.95540  Biso   1.000  C
  C327     1.0000 0.71920  0.85960  0.04880  Biso   1.000  C
  C328     1.0000 0.68690  0.83570  0.05200  Biso   1.000  C
  C329     1.0000 0.68970  0.79620  0.05100  Biso   1.000  C
  C330     1.0000 0.72530  0.78470  0.04550  Biso   1.000  C
  C331     1.0000 0.75300  0.80830  0.03590  Biso   1.000  C
  C332     1.0000 0.75680  0.84450  0.03970  Biso   1.000  C
  C333     1.0000 0.52590  0.88780  0.13090  Biso   1.000  C
  C334     1.0000 0.51490  0.85660  0.11950  Biso   1.000  C
  C335     1.0000 0.62880  0.90660  0.14300  Biso   1.000  C
  C336     1.0000 0.59780  0.06420  0.12980  Biso   1.000  C
  C337     1.0000 0.57220  0.10150  0.13050  Biso   1.000  C
  C338     1.0000 0.73080  0.01850  0.08400  Biso   1.000  C
  C339     1.0000 0.73460  0.01090  0.05860  Biso   1.000  C
  C340     1.0000 0.76520  0.02500  0.04530  Biso   1.000  C
  C341     1.0000 0.79200  0.04680  0.05760  Biso   1.000  C
  C342     1.0000 0.78820  0.05450  0.08310  Biso   1.000  C
  C343     1.0000 0.75760  0.04030  0.09630  Biso   1.000  C
  Cd113    1.0000 0.07812  0.69870  0.39955  Biso   1.000  Cd
  Cd114    1.0000 0.99128  0.62509  0.40900  Biso   1.000  Cd
  Cd115    1.0000 0.10622  0.58943  0.41931  Biso   1.000  Cd
  Cd116    1.0000 0.05573  0.66802  0.47100  Biso   1.000  Cd
  Cd117    1.0000 0.06007  0.47798  0.41386  Biso   1.000  Cd
  Cd118    1.0000 0.91172  0.59950  0.46577  Biso   1.000  Cd
  Cd119    1.0000 0.02219  0.55355  0.46910  Biso   1.000  Cd
  Cd120    1.0000 0.98961  0.63089  0.52757  Biso   1.000  Cd
  Cd121    1.0000 0.13376  0.50505  0.46666  Biso   1.000  Cd
  Cd122    1.0000 0.09592  0.59279  0.52512  Biso   1.000  Cd
  Cd123    1.0000 0.16112  0.42863  0.52146  Biso   1.000  Cd
  Cd124    1.0000 0.05427  0.47965  0.52322  Biso   1.000  Cd
  Cd125    1.0000 0.08543  0.40944  0.58270  Biso   1.000  Cd
  Cd126    1.0000 0.97486  0.44172  0.57958  Biso   1.000  Cd
  Cd127    1.0000 0.13484  0.51861  0.57646  Biso   1.000  Cd
  Cd128    1.0000 0.19705  0.42638  0.59567  Biso   1.000  Cd
  Se43     1.0000 0.04422  0.61045  0.44187  Biso   1.000  Se
  Se44     1.0000 0.96633  0.57827  0.49628  Biso   1.000  Se
  Se45     1.0000 0.08089  0.53438  0.49568  Biso   1.000  Se
  Se46     1.0000 0.11135  0.45949  0.55112  Biso   1.000  Se
  Se47     1.0000 0.11775  0.45042  0.43644  Biso   1.000  Se
  Se48     1.0000 0.04626  0.61802  0.55631  Biso   1.000  Se
  S134     1.0000 0.25160  0.39670  0.61940  Biso   1.000  S
  S135     1.0000 0.01660  0.67770  0.38132  Biso   1.000  S
  S136     1.0000 0.12700  0.64710  0.39607  Biso   1.000  S
  S137     1.0000 0.07400  0.72460  0.44362  Biso   1.000  S
  S138     1.0000 0.02820  0.43050  0.38353  Biso   1.000  S
  S139     1.0000 0.94350  0.65260  0.43987  Biso   1.000  S
  S140     1.0000 0.07790  0.53890  0.39053  Biso   1.000  S
  S141     1.0000 0.00280  0.68780  0.49889  Biso   1.000  S
  S142     1.0000 0.16010  0.55990  0.44100  Biso   1.000  S
  S143     1.0000 0.11440  0.64120  0.49213  Biso   1.000  S
  S144     1.0000 0.13680  0.37360  0.49725  Biso   1.000  S
  S145     1.0000 0.07330  0.35720  0.55064  Biso   1.000  S
  S146     1.0000 0.18580  0.48660  0.49757  Biso   1.000  S
  S147     1.0000 0.15520  0.56990  0.54813  Biso   1.000  S
  S148     1.0000 0.21540  0.41150  0.55081  Biso   1.000  S
  S149     1.0000 0.03130  0.43160  0.60920  Biso   1.000  S
  S150     1.0000 0.14050  0.39050  0.60956  Biso   1.000  S
  S151     1.0000 0.08070  0.53060  0.60512  Biso   1.000  S
  S152     1.0000 0.19230  0.49690  0.60189  Biso   1.000  S
  C344     1.0000 0.03370  0.66010  0.35290  Biso   1.000  C
  C345     1.0000 0.03950  0.68910  0.33460  Biso   1.000  C
  C346     1.0000 0.05550  0.67480  0.31100  Biso   1.000  C
  C347     1.0000 0.06510  0.63140  0.30600  Biso   1.000  C
  C348     1.0000 0.05700  0.60920  0.32710  Biso   1.000  C
  C349     1.0000 0.04470  0.62320  0.35270  Biso   1.000  C
  C350     1.0000 0.06490  0.40980  0.36380  Biso   1.000  C
  C351     1.0000 0.05800  0.40880  0.33810  Biso   1.000  C
  C352     1.0000 0.08380  0.39190  0.32210  Biso   1.000  C
  C353     1.0000 0.11650  0.37610  0.33170  Biso   1.000  C
  C354     1.0000 0.12340  0.37700  0.35740  Biso   1.000  C
  C355     1.0000 0.09760  0.39390  0.37340  Biso   1.000  C
  C356     1.0000 0.91110  0.67720  0.42140  Biso   1.000  C
  C357     1.0000 0.87050  0.66600  0.42710  Biso   1.000  C
  C358     1.0000 0.83910  0.69200  0.41140  Biso   1.000  C
  C359     1.0000 0.85180  0.72000  0.39530  Biso   1.000  C
  C360     1.0000 0.90130  0.72610  0.39870  Biso   1.000  C
  C361     1.0000 0.92420  0.70460  0.40690  Biso   1.000  C
  C362     1.0000 0.11280  0.52690  0.37050  Biso   1.000  C
  C363     1.0000 0.12510  0.49020  0.36680  Biso   1.000  C
  C364     1.0000 0.14900  0.48180  0.34690  Biso   1.000  C
  C365     1.0000 0.16060  0.51010  0.33070  Biso   1.000  C
  C366     1.0000 0.14830  0.54690  0.33440  Biso   1.000  C
  C367     1.0000 0.12440  0.55520  0.35420  Biso   1.000  C
  C368     1.0000 0.17610  0.35190  0.48180  Biso   1.000  C
  C369     1.0000 0.19670  0.36950  0.46560  Biso   1.000  C
  C370     1.0000 0.22670  0.46960  0.48270  Biso   1.000  C
  C371     1.0000 0.25540  0.45750  0.49820  Biso   1.000  C
  C372     1.0000 0.28920  0.44260  0.48550  Biso   1.000  C
  C373     1.0000 0.28750  0.44810  0.45790  Biso   1.000  C
  C374     1.0000 0.25900  0.45680  0.44090  Biso   1.000  C
  C375     1.0000 0.22960  0.47370  0.45540  Biso   1.000  C
  C376     1.0000 0.21920  0.35960  0.54880  Biso   1.000  C
  C377     1.0000 0.18690  0.33570  0.55200  Biso   1.000  C
  C378     1.0000 0.18970  0.29620  0.55100  Biso   1.000  C
  C379     1.0000 0.22530  0.28470  0.54550  Biso   1.000  C
  C380     1.0000 0.25300  0.30830  0.53590  Biso   1.000  C
  C381     1.0000 0.25680  0.34450  0.53970  Biso   1.000  C
  C382     1.0000 0.02590  0.38780  0.63090  Biso   1.000  C
  C383     1.0000 0.01490  0.35660  0.61950  Biso   1.000  C
  C384     1.0000 0.12880  0.40660  0.64300  Biso   1.000  C
  C385     1.0000 0.09780  0.56420  0.62980  Biso   1.000  C
  C386     1.0000 0.07220  0.60150  0.63050  Biso   1.000  C
  C387     1.0000 0.23080  0.51850  0.58400  Biso   1.000  C
  C388     1.0000 0.23460  0.51090  0.55860  Biso   1.000  C
  C389     1.0000 0.26520  0.52500  0.54530  Biso   1.000  C
  C390     1.0000 0.29200  0.54680  0.55760  Biso   1.000  C
  C391     1.0000 0.28820  0.55450  0.58310  Biso   1.000  C
  C392     1.0000 0.25760  0.54030  0.59630  Biso   1.000  C
  Se49     1.0000 0.00000  0.00000  0.18918  Biso   1.000  Se
  Se50     1.0000 0.00000  0.00000  0.30337  Biso   1.000  Se
  Se51     1.0000 0.50000  0.50000  0.68918  Biso   1.000  Se
  Se52     1.0000 0.50000  0.50000  0.80337  Biso   1.000  Se
  Se53     1.0000 0.50000  0.00000  0.93918  Biso   1.000  Se
  Se54     1.0000 0.50000  0.00000  0.05337  Biso   1.000  Se
  Se55     1.0000 0.00000  0.50000  0.43918  Biso   1.000  Se
  Se56     1.0000 0.00000  0.50000  0.55337  Biso   1.000  Se
  Cd129    1.0000 0.07812  0.80130  0.85045  Biso   1.000  Cd
  Cd130    1.0000 0.99128  0.87491  0.84100  Biso   1.000  Cd
  Cd131    1.0000 0.10622  0.91057  0.83069  Biso   1.000  Cd
  Cd132    1.0000 0.05573  0.83198  0.77900  Biso   1.000  Cd
  Cd133    1.0000 0.06007  0.02202  0.83614  Biso   1.000  Cd
  Cd134    1.0000 0.91172  0.90050  0.78423  Biso   1.000  Cd
  Cd135    1.0000 0.02219  0.94645  0.78090  Biso   1.000  Cd
  Cd136    1.0000 0.98961  0.86911  0.72243  Biso   1.000  Cd
  Cd137    1.0000 0.13376  0.99495  0.78334  Biso   1.000  Cd
  Cd138    1.0000 0.09592  0.90721  0.72488  Biso   1.000  Cd
  Cd139    1.0000 0.16112  0.07137  0.72854  Biso   1.000  Cd
  Cd140    1.0000 0.05427  0.02035  0.72678  Biso   1.000  Cd
  Cd141    1.0000 0.08543  0.09056  0.66730  Biso   1.000  Cd
  Cd142    1.0000 0.97486  0.05828  0.67042  Biso   1.000  Cd
  Cd143    1.0000 0.13484  0.98139  0.67354  Biso   1.000  Cd
  Cd144    1.0000 0.19705  0.07362  0.65433  Biso   1.000  Cd
  Se57     1.0000 0.04422  0.88955  0.80813  Biso   1.000  Se
  Se58     1.0000 0.96633  0.92173  0.75372  Biso   1.000  Se
  Se59     1.0000 0.08089  0.96562  0.75432  Biso   1.000  Se
  Se60     1.0000 0.11135  0.04051  0.69888  Biso   1.000  Se
  Se61     1.0000 0.11775  0.04958  0.81356  Biso   1.000  Se
  Se62     1.0000 0.04626  0.88198  0.69369  Biso   1.000  Se
  S153     1.0000 0.25160  0.10330  0.63060  Biso   1.000  S
  S154     1.0000 0.01660  0.82230  0.86868  Biso   1.000  S
  S155     1.0000 0.12700  0.85290  0.85393  Biso   1.000  S
  S156     1.0000 0.07400  0.77540  0.80638  Biso   1.000  S
  S157     1.0000 0.02820  0.06950  0.86647  Biso   1.000  S
  S158     1.0000 0.94350  0.84740  0.81013  Biso   1.000  S
  S159     1.0000 0.07790  0.96110  0.85947  Biso   1.000  S
  S160     1.0000 0.00280  0.81220  0.75111  Biso   1.000  S
  S161     1.0000 0.16010  0.94010  0.80900  Biso   1.000  S
  S162     1.0000 0.11440  0.85880  0.75787  Biso   1.000  S
  S163     1.0000 0.13680  0.12640  0.75275  Biso   1.000  S
  S164     1.0000 0.07330  0.14280  0.69936  Biso   1.000  S
  S165     1.0000 0.18580  0.01340  0.75243  Biso   1.000  S
  S166     1.0000 0.15520  0.93010  0.70187  Biso   1.000  S
  S167     1.0000 0.21540  0.08850  0.69919  Biso   1.000  S
  S168     1.0000 0.03130  0.06840  0.64080  Biso   1.000  S
  S169     1.0000 0.14050  0.10950  0.64044  Biso   1.000  S
  S170     1.0000 0.08070  0.96940  0.64488  Biso   1.000  S
  S171     1.0000 0.19230  0.00310  0.64811  Biso   1.000  S
  C393     1.0000 0.03370  0.83990  0.89710  Biso   1.000  C
  C394     1.0000 0.03950  0.81090  0.91540  Biso   1.000  C
  C395     1.0000 0.05550  0.82520  0.93900  Biso   1.000  C
  C396     1.0000 0.06510  0.86860  0.94400  Biso   1.000  C
  C397     1.0000 0.05700  0.89080  0.92290  Biso   1.000  C
  C398     1.0000 0.04470  0.87680  0.89730  Biso   1.000  C
  C399     1.0000 0.06490  0.09020  0.88620  Biso   1.000  C
  C400     1.0000 0.05800  0.09120  0.91190  Biso   1.000  C
  C401     1.0000 0.08380  0.10810  0.92790  Biso   1.000  C
  C402     1.0000 0.11650  0.12390  0.91830  Biso   1.000  C
  C403     1.0000 0.12340  0.12300  0.89260  Biso   1.000  C
  C404     1.0000 0.09760  0.10610  0.87660  Biso   1.000  C
  C405     1.0000 0.91110  0.82280  0.82860  Biso   1.000  C
  C406     1.0000 0.87050  0.83400  0.82290  Biso   1.000  C
  C407     1.0000 0.83910  0.80800  0.83860  Biso   1.000  C
  C408     1.0000 0.85180  0.78000  0.85470  Biso   1.000  C
  C409     1.0000 0.90130  0.77390  0.85130  Biso   1.000  C
  C410     1.0000 0.92420  0.79540  0.84310  Biso   1.000  C
  C411     1.0000 0.11280  0.97310  0.87950  Biso   1.000  C
  C412     1.0000 0.12510  0.00980  0.88320  Biso   1.000  C
  C413     1.0000 0.14900  0.01820  0.90310  Biso   1.000  C
  C414     1.0000 0.16060  0.98990  0.91930  Biso   1.000  C
  C415     1.0000 0.14830  0.95310  0.91560  Biso   1.000  C
  C416     1.0000 0.12440  0.94480  0.89580  Biso   1.000  C
  C417     1.0000 0.17610  0.14810  0.76820  Biso   1.000  C
  C418     1.0000 0.19670  0.13050  0.78440  Biso   1.000  C
  C419     1.0000 0.22670  0.03040  0.76730  Biso   1.000  C
  C420     1.0000 0.25540  0.04250  0.75180  Biso   1.000  C
  C421     1.0000 0.28920  0.05740  0.76450  Biso   1.000  C
  C422     1.0000 0.28750  0.05190  0.79210  Biso   1.000  C
  C423     1.0000 0.25900  0.04320  0.80910  Biso   1.000  C
  C424     1.0000 0.22960  0.02630  0.79460  Biso   1.000  C
  C425     1.0000 0.21920  0.14040  0.70120  Biso   1.000  C
  C426     1.0000 0.18690  0.16430  0.69800  Biso   1.000  C
  C427     1.0000 0.18970  0.20380  0.69900  Biso   1.000  C
  C428     1.0000 0.22530  0.21530  0.70450  Biso   1.000  C
  C429     1.0000 0.25300  0.19170  0.71410  Biso   1.000  C
  C430     1.0000 0.25680  0.15550  0.71030  Biso   1.000  C
  C431     1.0000 0.02590  0.11220  0.61910  Biso   1.000  C
  C432     1.0000 0.01490  0.14340  0.63050  Biso   1.000  C
  C433     1.0000 0.12880  0.09340  0.60700  Biso   1.000  C
  C434     1.0000 0.09780  0.93580  0.62020  Biso   1.000  C
  C435     1.0000 0.07220  0.89850  0.61950  Biso   1.000  C
  C436     1.0000 0.23080  0.98150  0.66600  Biso   1.000  C
  C437     1.0000 0.23460  0.98910  0.69140  Biso   1.000  C
  C438     1.0000 0.26520  0.97500  0.70470  Biso   1.000  C
  C439     1.0000 0.29200  0.95320  0.69240  Biso   1.000  C
  C440     1.0000 0.28820  0.94550  0.66690  Biso   1.000  C
  C441     1.0000 0.25760  0.95970  0.65370  Biso   1.000  C
  Cd145    1.0000 0.57812  0.30130  0.35045  Biso   1.000  Cd
  Cd146    1.0000 0.49128  0.37491  0.34100  Biso   1.000  Cd
  Cd147    1.0000 0.60622  0.41057  0.33069  Biso   1.000  Cd
  Cd148    1.0000 0.55573  0.33198  0.27900  Biso   1.000  Cd
  Cd149    1.0000 0.56007  0.52202  0.33614  Biso   1.000  Cd
  Cd150    1.0000 0.41172  0.40050  0.28423  Biso   1.000  Cd
  Cd151    1.0000 0.52219  0.44645  0.28090  Biso   1.000  Cd
  Cd152    1.0000 0.48961  0.36911  0.22243  Biso   1.000  Cd
  Cd153    1.0000 0.63376  0.49495  0.28334  Biso   1.000  Cd
  Cd154    1.0000 0.59592  0.40721  0.22488  Biso   1.000  Cd
  Cd155    1.0000 0.66112  0.57137  0.22854  Biso   1.000  Cd
  Cd156    1.0000 0.55427  0.52035  0.22678  Biso   1.000  Cd
  Cd157    1.0000 0.58543  0.59056  0.16730  Biso   1.000  Cd
  Cd158    1.0000 0.47486  0.55828  0.17042  Biso   1.000  Cd
  Cd159    1.0000 0.63484  0.48139  0.17354  Biso   1.000  Cd
  Cd160    1.0000 0.69705  0.57362  0.15433  Biso   1.000  Cd
  Se63     1.0000 0.54422  0.38955  0.30813  Biso   1.000  Se
  Se64     1.0000 0.46633  0.42173  0.25372  Biso   1.000  Se
  Se65     1.0000 0.58089  0.46562  0.25432  Biso   1.000  Se
  Se66     1.0000 0.61135  0.54051  0.19888  Biso   1.000  Se
  Se67     1.0000 0.61775  0.54958  0.31356  Biso   1.000  Se
  Se68     1.0000 0.54626  0.38198  0.19369  Biso   1.000  Se
  S172     1.0000 0.75160  0.60330  0.13060  Biso   1.000  S
  S173     1.0000 0.51660  0.32230  0.36868  Biso   1.000  S
  S174     1.0000 0.62700  0.35290  0.35393  Biso   1.000  S
  S175     1.0000 0.57400  0.27540  0.30638  Biso   1.000  S
  S176     1.0000 0.52820  0.56950  0.36647  Biso   1.000  S
  S177     1.0000 0.44350  0.34740  0.31013  Biso   1.000  S
  S178     1.0000 0.57790  0.46110  0.35947  Biso   1.000  S
  S179     1.0000 0.50280  0.31220  0.25111  Biso   1.000  S
  S180     1.0000 0.66010  0.44010  0.30900  Biso   1.000  S
  S181     1.0000 0.61440  0.35880  0.25787  Biso   1.000  S
  S182     1.0000 0.63680  0.62640  0.25275  Biso   1.000  S
  S183     1.0000 0.57330  0.64280  0.19936  Biso   1.000  S
  S184     1.0000 0.68580  0.51340  0.25243  Biso   1.000  S
  S185     1.0000 0.65520  0.43010  0.20187  Biso   1.000  S
  S186     1.0000 0.71540  0.58850  0.19919  Biso   1.000  S
  S187     1.0000 0.53130  0.56840  0.14080  Biso   1.000  S
  S188     1.0000 0.64050  0.60950  0.14044  Biso   1.000  S
  S189     1.0000 0.58070  0.46940  0.14488  Biso   1.000  S
  S190     1.0000 0.69230  0.50310  0.14811  Biso   1.000  S
  C442     1.0000 0.53370  0.33990  0.39710  Biso   1.000  C
  C443     1.0000 0.53950  0.31090  0.41540  Biso   1.000  C
  C444     1.0000 0.55550  0.32520  0.43900  Biso   1.000  C
  C445     1.0000 0.56510  0.36860  0.44400  Biso   1.000  C
  C446     1.0000 0.55700  0.39080  0.42290  Biso   1.000  C
  C447     1.0000 0.54470  0.37680  0.39730  Biso   1.000  C
  C448     1.0000 0.56490  0.59020  0.38620  Biso   1.000  C
  C449     1.0000 0.55800  0.59120  0.41190  Biso   1.000  C
  C450     1.0000 0.58380  0.60810  0.42790  Biso   1.000  C
  C451     1.0000 0.61650  0.62390  0.41830  Biso   1.000  C
  C452     1.0000 0.62340  0.62300  0.39260  Biso   1.000  C
  C453     1.0000 0.59760  0.60610  0.37660  Biso   1.000  C
  C454     1.0000 0.41110  0.32280  0.32860  Biso   1.000  C
  C455     1.0000 0.37050  0.33400  0.32290  Biso   1.000  C
  C456     1.0000 0.33910  0.30800  0.33860  Biso   1.000  C
  C457     1.0000 0.35180  0.28000  0.35470  Biso   1.000  C
  C458     1.0000 0.40130  0.27390  0.35130  Biso   1.000  C
  C459     1.0000 0.42420  0.29540  0.34310  Biso   1.000  C
  C460     1.0000 0.61280  0.47310  0.37950  Biso   1.000  C
  C461     1.0000 0.62510  0.50980  0.38320  Biso   1.000  C
  C462     1.0000 0.64900  0.51820  0.40310  Biso   1.000  C
  C463     1.0000 0.66060  0.48990  0.41930  Biso   1.000  C
  C464     1.0000 0.64830  0.45310  0.41560  Biso   1.000  C
  C465     1.0000 0.62440  0.44480  0.39580  Biso   1.000  C
  C466     1.0000 0.67610  0.64810  0.26820  Biso   1.000  C
  C467     1.0000 0.69670  0.63050  0.28440  Biso   1.000  C
  C468     1.0000 0.72670  0.53040  0.26730  Biso   1.000  C
  C469     1.0000 0.75540  0.54250  0.25180  Biso   1.000  C
  C470     1.0000 0.78920  0.55740  0.26450  Biso   1.000  C
  C471     1.0000 0.78750  0.55190  0.29210  Biso   1.000  C
  C472     1.0000 0.75900  0.54320  0.30910  Biso   1.000  C
  C473     1.0000 0.72960  0.52630  0.29460  Biso   1.000  C
  C474     1.0000 0.71920  0.64040  0.20120  Biso   1.000  C
  C475     1.0000 0.68690  0.66430  0.19800  Biso   1.000  C
  C476     1.0000 0.68970  0.70380  0.19900  Biso   1.000  C
  C477     1.0000 0.72530  0.71530  0.20450  Biso   1.000  C
  C478     1.0000 0.75300  0.69170  0.21410  Biso   1.000  C
  C479     1.0000 0.75680  0.65550  0.21030  Biso   1.000  C
  C480     1.0000 0.52590  0.61220  0.11910  Biso   1.000  C
  C481     1.0000 0.51490  0.64340  0.13050  Biso   1.000  C
  C482     1.0000 0.62880  0.59340  0.10700  Biso   1.000  C
  C483     1.0000 0.59780  0.43580  0.12020  Biso   1.000  C
  C484     1.0000 0.57220  0.39850  0.11950  Biso   1.000  C
  C485     1.0000 0.73080  0.48150  0.16600  Biso   1.000  C
  C486     1.0000 0.73460  0.48910  0.19140  Biso   1.000  C
  C487     1.0000 0.76520  0.47500  0.20470  Biso   1.000  C
  C488     1.0000 0.79200  0.45320  0.19240  Biso   1.000  C
  C489     1.0000 0.78820  0.44550  0.16690  Biso   1.000  C
  C490     1.0000 0.75760  0.45970  0.15370  Biso   1.000  C
  Cd161    1.0000 0.92188  0.19870  0.85045  Biso   1.000  Cd
  Cd162    1.0000 0.00872  0.12509  0.84100  Biso   1.000  Cd
  Cd163    1.0000 0.89378  0.08943  0.83069  Biso   1.000  Cd
  Cd164    1.0000 0.94427  0.16802  0.77900  Biso   1.000  Cd
  Cd165    1.0000 0.93993  0.97798  0.83614  Biso   1.000  Cd
  Cd166    1.0000 0.08828  0.09950  0.78423  Biso   1.000  Cd
  Cd167    1.0000 0.97781  0.05355  0.78090  Biso   1.000  Cd
  Cd168    1.0000 0.01039  0.13089  0.72243  Biso   1.000  Cd
  Cd169    1.0000 0.86624  0.00505  0.78334  Biso   1.000  Cd
  Cd170    1.0000 0.90408  0.09279  0.72488  Biso   1.000  Cd
  Cd171    1.0000 0.83888  0.92863  0.72854  Biso   1.000  Cd
  Cd172    1.0000 0.94573  0.97965  0.72678  Biso   1.000  Cd
  Cd173    1.0000 0.91457  0.90944  0.66730  Biso   1.000  Cd
  Cd174    1.0000 0.02514  0.94172  0.67042  Biso   1.000  Cd
  Cd175    1.0000 0.86516  0.01861  0.67354  Biso   1.000  Cd
  Cd176    1.0000 0.80295  0.92638  0.65433  Biso   1.000  Cd
  Se69     1.0000 0.95578  0.11045  0.80813  Biso   1.000  Se
  Se70     1.0000 0.03367  0.07827  0.75372  Biso   1.000  Se
  Se71     1.0000 0.91911  0.03438  0.75432  Biso   1.000  Se
  Se72     1.0000 0.88865  0.95949  0.69888  Biso   1.000  Se
  Se73     1.0000 0.88225  0.95042  0.81356  Biso   1.000  Se
  Se74     1.0000 0.95374  0.11802  0.69369  Biso   1.000  Se
  S191     1.0000 0.74840  0.89670  0.63060  Biso   1.000  S
  S192     1.0000 0.98340  0.17770  0.86868  Biso   1.000  S
  S193     1.0000 0.87300  0.14710  0.85393  Biso   1.000  S
  S194     1.0000 0.92600  0.22460  0.80638  Biso   1.000  S
  S195     1.0000 0.97180  0.93050  0.86647  Biso   1.000  S
  S196     1.0000 0.05650  0.15260  0.81013  Biso   1.000  S
  S197     1.0000 0.92210  0.03890  0.85947  Biso   1.000  S
  S198     1.0000 0.99720  0.18780  0.75111  Biso   1.000  S
  S199     1.0000 0.83990  0.05990  0.80900  Biso   1.000  S
  S200     1.0000 0.88560  0.14120  0.75787  Biso   1.000  S
  S201     1.0000 0.86320  0.87360  0.75275  Biso   1.000  S
  S202     1.0000 0.92670  0.85720  0.69936  Biso   1.000  S
  S203     1.0000 0.81420  0.98660  0.75243  Biso   1.000  S
  S204     1.0000 0.84480  0.06990  0.70187  Biso   1.000  S
  S205     1.0000 0.78460  0.91150  0.69919  Biso   1.000  S
  S206     1.0000 0.96870  0.93160  0.64080  Biso   1.000  S
  S207     1.0000 0.85950  0.89050  0.64044  Biso   1.000  S
  S208     1.0000 0.91930  0.03060  0.64488  Biso   1.000  S
  S209     1.0000 0.80770  0.99690  0.64811  Biso   1.000  S
  C491     1.0000 0.96630  0.16010  0.89710  Biso   1.000  C
  C492     1.0000 0.96050  0.18910  0.91540  Biso   1.000  C
  C493     1.0000 0.94450  0.17480  0.93900  Biso   1.000  C
  C494     1.0000 0.93490  0.13140  0.94400  Biso   1.000  C
  C495     1.0000 0.94300  0.10920  0.92290  Biso   1.000  C
  C496     1.0000 0.95530  0.12320  0.89730  Biso   1.000  C
  C497     1.0000 0.93510  0.90980  0.88620  Biso   1.000  C
  C498     1.0000 0.94200  0.90880  0.91190  Biso   1.000  C
  C499     1.0000 0.91620  0.89190  0.92790  Biso   1.000  C
  C500     1.0000 0.88350  0.87610  0.91830  Biso   1.000  C
  C501     1.0000 0.87660  0.87700  0.89260  Biso   1.000  C
  C502     1.0000 0.90240  0.89390  0.87660  Biso   1.000  C
  C503     1.0000 0.08890  0.17720  0.82860  Biso   1.000  C
  C504     1.0000 0.12950  0.16600  0.82290  Biso   1.000  C
  C505     1.0000 0.16090  0.19200  0.83860  Biso   1.000  C
  C506     1.0000 0.14820  0.22000  0.85470  Biso   1.000  C
  C507     1.0000 0.09870  0.22610  0.85130  Biso   1.000  C
  C508     1.0000 0.07580  0.20460  0.84310  Biso   1.000  C
  C509     1.0000 0.88720  0.02690  0.87950  Biso   1.000  C
  C510     1.0000 0.87490  0.99020  0.88320  Biso   1.000  C
  C511     1.0000 0.85100  0.98180  0.90310  Biso   1.000  C
  C512     1.0000 0.83940  0.01010  0.91930  Biso   1.000  C
  C513     1.0000 0.85170  0.04690  0.91560  Biso   1.000  C
  C514     1.0000 0.87560  0.05520  0.89580  Biso   1.000  C
  C515     1.0000 0.82390  0.85190  0.76820  Biso   1.000  C
  C516     1.0000 0.80330  0.86950  0.78440  Biso   1.000  C
  C517     1.0000 0.77330  0.96960  0.76730  Biso   1.000  C
  C518     1.0000 0.74460  0.95750  0.75180  Biso   1.000  C
  C519     1.0000 0.71080  0.94260  0.76450  Biso   1.000  C
  C520     1.0000 0.71250  0.94810  0.79210  Biso   1.000  C
  C521     1.0000 0.74100  0.95680  0.80910  Biso   1.000  C
  C522     1.0000 0.77040  0.97370  0.79460  Biso   1.000  C
  C523     1.0000 0.78080  0.85960  0.70120  Biso   1.000  C
  C524     1.0000 0.81310  0.83570  0.69800  Biso   1.000  C
  C525     1.0000 0.81030  0.79620  0.69900  Biso   1.000  C
  C526     1.0000 0.77470  0.78470  0.70450  Biso   1.000  C
  C527     1.0000 0.74700  0.80830  0.71410  Biso   1.000  C
  C528     1.0000 0.74320  0.84450  0.71030  Biso   1.000  C
  C529     1.0000 0.97410  0.88780  0.61910  Biso   1.000  C
  C530     1.0000 0.98510  0.85660  0.63050  Biso   1.000  C
  C531     1.0000 0.87120  0.90660  0.60700  Biso   1.000  C
  C532     1.0000 0.90220  0.06420  0.62020  Biso   1.000  C
  C533     1.0000 0.92780  0.10150  0.61950  Biso   1.000  C
  C534     1.0000 0.76920  0.01850  0.66600  Biso   1.000  C
  C535     1.0000 0.76540  0.01090  0.69140  Biso   1.000  C
  C536     1.0000 0.73480  0.02500  0.70470  Biso   1.000  C
  C537     1.0000 0.70800  0.04680  0.69240  Biso   1.000  C
  C538     1.0000 0.71180  0.05450  0.66690  Biso   1.000  C
  C539     1.0000 0.74240  0.04030  0.65370  Biso   1.000  C
  Cd177    1.0000 0.42188  0.69870  0.35045  Biso   1.000  Cd
  Cd178    1.0000 0.50872  0.62509  0.34100  Biso   1.000  Cd
  Cd179    1.0000 0.39378  0.58943  0.33069  Biso   1.000  Cd
  Cd180    1.0000 0.44427  0.66802  0.27900  Biso   1.000  Cd
  Cd181    1.0000 0.43993  0.47798  0.33614  Biso   1.000  Cd
  Cd182    1.0000 0.58828  0.59950  0.28423  Biso   1.000  Cd
  Cd183    1.0000 0.47781  0.55355  0.28090  Biso   1.000  Cd
  Cd184    1.0000 0.51039  0.63089  0.22243  Biso   1.000  Cd
  Cd185    1.0000 0.36624  0.50505  0.28334  Biso   1.000  Cd
  Cd186    1.0000 0.40408  0.59279  0.22488  Biso   1.000  Cd
  Cd187    1.0000 0.33888  0.42863  0.22854  Biso   1.000  Cd
  Cd188    1.0000 0.44573  0.47965  0.22678  Biso   1.000  Cd
  Cd189    1.0000 0.41457  0.40944  0.16730  Biso   1.000  Cd
  Cd190    1.0000 0.52514  0.44172  0.17042  Biso   1.000  Cd
  Cd191    1.0000 0.36516  0.51861  0.17354  Biso   1.000  Cd
  Cd192    1.0000 0.30295  0.42638  0.15433  Biso   1.000  Cd
  Se75     1.0000 0.45578  0.61045  0.30813  Biso   1.000  Se
  Se76     1.0000 0.53367  0.57827  0.25372  Biso   1.000  Se
  Se77     1.0000 0.41911  0.53438  0.25432  Biso   1.000  Se
  Se78     1.0000 0.38865  0.45949  0.19888  Biso   1.000  Se
  Se79     1.0000 0.38225  0.45042  0.31356  Biso   1.000  Se
  Se80     1.0000 0.45374  0.61802  0.19369  Biso   1.000  Se
  S210     1.0000 0.24840  0.39670  0.13060  Biso   1.000  S
  S211     1.0000 0.48340  0.67770  0.36868  Biso   1.000  S
  S212     1.0000 0.37300  0.64710  0.35393  Biso   1.000  S
  S213     1.0000 0.42600  0.72460  0.30638  Biso   1.000  S
  S214     1.0000 0.47180  0.43050  0.36647  Biso   1.000  S
  S215     1.0000 0.55650  0.65260  0.31013  Biso   1.000  S
  S216     1.0000 0.42210  0.53890  0.35947  Biso   1.000  S
  S217     1.0000 0.49720  0.68780  0.25111  Biso   1.000  S
  S218     1.0000 0.33990  0.55990  0.30900  Biso   1.000  S
  S219     1.0000 0.38560  0.64120  0.25787  Biso   1.000  S
  S220     1.0000 0.36320  0.37360  0.25275  Biso   1.000  S
  S221     1.0000 0.42670  0.35720  0.19936  Biso   1.000  S
  S222     1.0000 0.31420  0.48660  0.25243  Biso   1.000  S
  S223     1.0000 0.34480  0.56990  0.20187  Biso   1.000  S
  S224     1.0000 0.28460  0.41150  0.19919  Biso   1.000  S
  S225     1.0000 0.46870  0.43160  0.14080  Biso   1.000  S
  S226     1.0000 0.35950  0.39050  0.14044  Biso   1.000  S
  S227     1.0000 0.41930  0.53060  0.14488  Biso   1.000  S
  S228     1.0000 0.30770  0.49690  0.14811  Biso   1.000  S
  C540     1.0000 0.46630  0.66010  0.39710  Biso   1.000  C
  C541     1.0000 0.46050  0.68910  0.41540  Biso   1.000  C
  C542     1.0000 0.44450  0.67480  0.43900  Biso   1.000  C
  C543     1.0000 0.43490  0.63140  0.44400  Biso   1.000  C
  C544     1.0000 0.44300  0.60920  0.42290  Biso   1.000  C
  C545     1.0000 0.45530  0.62320  0.39730  Biso   1.000  C
  C546     1.0000 0.43510  0.40980  0.38620  Biso   1.000  C
  C547     1.0000 0.44200  0.40880  0.41190  Biso   1.000  C
  C548     1.0000 0.41620  0.39190  0.42790  Biso   1.000  C
  C549     1.0000 0.38350  0.37610  0.41830  Biso   1.000  C
  C550     1.0000 0.37660  0.37700  0.39260  Biso   1.000  C
  C551     1.0000 0.40240  0.39390  0.37660  Biso   1.000  C
  C552     1.0000 0.58890  0.67720  0.32860  Biso   1.000  C
  C553     1.0000 0.62950  0.66600  0.32290  Biso   1.000  C
  C554     1.0000 0.66090  0.69200  0.33860  Biso   1.000  C
  C555     1.0000 0.64820  0.72000  0.35470  Biso   1.000  C
  C556     1.0000 0.59870  0.72610  0.35130  Biso   1.000  C
  C557     1.0000 0.57580  0.70460  0.34310  Biso   1.000  C
  C558     1.0000 0.38720  0.52690  0.37950  Biso   1.000  C
  C559     1.0000 0.37490  0.49020  0.38320  Biso   1.000  C
  C560     1.0000 0.35100  0.48180  0.40310  Biso   1.000  C
  C561     1.0000 0.33940  0.51010  0.41930  Biso   1.000  C
  C562     1.0000 0.35170  0.54690  0.41560  Biso   1.000  C
  C563     1.0000 0.37560  0.55520  0.39580  Biso   1.000  C
  C564     1.0000 0.32390  0.35190  0.26820  Biso   1.000  C
  C565     1.0000 0.30330  0.36950  0.28440  Biso   1.000  C
  C566     1.0000 0.27330  0.46960  0.26730  Biso   1.000  C
  C567     1.0000 0.24460  0.45750  0.25180  Biso   1.000  C
  C568     1.0000 0.21080  0.44260  0.26450  Biso   1.000  C
  C569     1.0000 0.21250  0.44810  0.29210  Biso   1.000  C
  C570     1.0000 0.24100  0.45680  0.30910  Biso   1.000  C
  C571     1.0000 0.27040  0.47370  0.29460  Biso   1.000  C
  C572     1.0000 0.28080  0.35960  0.20120  Biso   1.000  C
  C573     1.0000 0.31310  0.33570  0.19800  Biso   1.000  C
  C574     1.0000 0.31030  0.29620  0.19900  Biso   1.000  C
  C575     1.0000 0.27470  0.28470  0.20450  Biso   1.000  C
  C576     1.0000 0.24700  0.30830  0.21410  Biso   1.000  C
  C577     1.0000 0.24320  0.34450  0.21030  Biso   1.000  C
  C578     1.0000 0.47410  0.38780  0.11910  Biso   1.000  C
  C579     1.0000 0.48510  0.35660  0.13050  Biso   1.000  C
  C580     1.0000 0.37120  0.40660  0.10700  Biso   1.000  C
  C581     1.0000 0.40220  0.56420  0.12020  Biso   1.000  C
  C582     1.0000 0.42780  0.60150  0.11950  Biso   1.000  C
  C583     1.0000 0.26920  0.51850  0.16600  Biso   1.000  C
  C584     1.0000 0.26540  0.51090  0.19140  Biso   1.000  C
  C585     1.0000 0.23480  0.52500  0.20470  Biso   1.000  C
  C586     1.0000 0.20800  0.54680  0.19240  Biso   1.000  C
  C587     1.0000 0.21180  0.55450  0.16690  Biso   1.000  C
  C588     1.0000 0.24240  0.54030  0.15370  Biso   1.000  C
  Cd193    1.0000 0.30130  0.07812  0.60045  Biso   1.000  Cd
  Cd194    1.0000 0.37491  0.99128  0.59100  Biso   1.000  Cd
  Cd195    1.0000 0.41057  0.10622  0.58069  Biso   1.000  Cd
  Cd196    1.0000 0.33198  0.05573  0.52900  Biso   1.000  Cd
  Cd197    1.0000 0.52202  0.06007  0.58614  Biso   1.000  Cd
  Cd198    1.0000 0.40050  0.91172  0.53423  Biso   1.000  Cd
  Cd199    1.0000 0.44645  0.02219  0.53090  Biso   1.000  Cd
  Cd200    1.0000 0.36911  0.98961  0.47243  Biso   1.000  Cd
  Cd201    1.0000 0.49495  0.13376  0.53334  Biso   1.000  Cd
  Cd202    1.0000 0.40721  0.09592  0.47488  Biso   1.000  Cd
  Cd203    1.0000 0.57137  0.16112  0.47854  Biso   1.000  Cd
  Cd204    1.0000 0.52035  0.05427  0.47678  Biso   1.000  Cd
  Cd205    1.0000 0.59056  0.08543  0.41730  Biso   1.000  Cd
  Cd206    1.0000 0.55828  0.97486  0.42042  Biso   1.000  Cd
  Cd207    1.0000 0.48139  0.13484  0.42354  Biso   1.000  Cd
  Cd208    1.0000 0.57362  0.19705  0.40433  Biso   1.000  Cd
  Se81     1.0000 0.38955  0.04422  0.55813  Biso   1.000  Se
  Se82     1.0000 0.42173  0.96633  0.50372  Biso   1.000  Se
  Se83     1.0000 0.46562  0.08089  0.50432  Biso   1.000  Se
  Se84     1.0000 0.54051  0.11135  0.44888  Biso   1.000  Se
  Se85     1.0000 0.54958  0.11775  0.56356  Biso   1.000  Se
  Se86     1.0000 0.38198  0.04626  0.44369  Biso   1.000  Se
  S229     1.0000 0.60330  0.25160  0.38060  Biso   1.000  S
  S230     1.0000 0.32230  0.01660  0.61868  Biso   1.000  S
  S231     1.0000 0.35290  0.12700  0.60393  Biso   1.000  S
  S232     1.0000 0.27540  0.07400  0.55638  Biso   1.000  S
  S233     1.0000 0.56950  0.02820  0.61647  Biso   1.000  S
  S234     1.0000 0.34740  0.94350  0.56013  Biso   1.000  S
  S235     1.0000 0.46110  0.07790  0.60947  Biso   1.000  S
  S236     1.0000 0.31220  0.00280  0.50111  Biso   1.000  S
  S237     1.0000 0.44010  0.16010  0.55900  Biso   1.000  S
  S238     1.0000 0.35880  0.11440  0.50787  Biso   1.000  S
  S239     1.0000 0.62640  0.13680  0.50275  Biso   1.000  S
  S240     1.0000 0.64280  0.07330  0.44936  Biso   1.000  S
  S241     1.0000 0.51340  0.18580  0.50243  Biso   1.000  S
  S242     1.0000 0.43010  0.15520  0.45187  Biso   1.000  S
  S243     1.0000 0.58850  0.21540  0.44919  Biso   1.000  S
  S244     1.0000 0.56840  0.03130  0.39080  Biso   1.000  S
  S245     1.0000 0.60950  0.14050  0.39044  Biso   1.000  S
  S246     1.0000 0.46940  0.08070  0.39488  Biso   1.000  S
  S247     1.0000 0.50310  0.19230  0.39811  Biso   1.000  S
  C589     1.0000 0.33990  0.03370  0.64710  Biso   1.000  C
  C590     1.0000 0.31090  0.03950  0.66540  Biso   1.000  C
  C591     1.0000 0.32520  0.05550  0.68900  Biso   1.000  C
  C592     1.0000 0.36860  0.06510  0.69400  Biso   1.000  C
  C593     1.0000 0.39080  0.05700  0.67290  Biso   1.000  C
  C594     1.0000 0.37680  0.04470  0.64730  Biso   1.000  C
  C595     1.0000 0.59020  0.06490  0.63620  Biso   1.000  C
  C596     1.0000 0.59120  0.05800  0.66190  Biso   1.000  C
  C597     1.0000 0.60810  0.08380  0.67790  Biso   1.000  C
  C598     1.0000 0.62390  0.11650  0.66830  Biso   1.000  C
  C599     1.0000 0.62300  0.12340  0.64260  Biso   1.000  C
  C600     1.0000 0.60610  0.09760  0.62660  Biso   1.000  C
  C601     1.0000 0.32280  0.91110  0.57860  Biso   1.000  C
  C602     1.0000 0.33400  0.87050  0.57290  Biso   1.000  C
  C603     1.0000 0.30800  0.83910  0.58860  Biso   1.000  C
  C604     1.0000 0.28000  0.85180  0.60470  Biso   1.000  C
  C605     1.0000 0.27390  0.90130  0.60130  Biso   1.000  C
  C606     1.0000 0.29540  0.92420  0.59310  Biso   1.000  C
  C607     1.0000 0.47310  0.11280  0.62950  Biso   1.000  C
  C608     1.0000 0.50980  0.12510  0.63320  Biso   1.000  C
  C609     1.0000 0.51820  0.14900  0.65310  Biso   1.000  C
  C610     1.0000 0.48990  0.16060  0.66930  Biso   1.000  C
  C611     1.0000 0.45310  0.14830  0.66560  Biso   1.000  C
  C612     1.0000 0.44480  0.12440  0.64580  Biso   1.000  C
  C613     1.0000 0.64810  0.17610  0.51820  Biso   1.000  C
  C614     1.0000 0.63050  0.19670  0.53440  Biso   1.000  C
  C615     1.0000 0.53040  0.22670  0.51730  Biso   1.000  C
  C616     1.0000 0.54250  0.25540  0.50180  Biso   1.000  C
  C617     1.0000 0.55740  0.28920  0.51450  Biso   1.000  C
  C618     1.0000 0.55190  0.28750  0.54210  Biso   1.000  C
  C619     1.0000 0.54320  0.25900  0.55910  Biso   1.000  C
  C620     1.0000 0.52630  0.22960  0.54460  Biso   1.000  C
  C621     1.0000 0.64040  0.21920  0.45120  Biso   1.000  C
  C622     1.0000 0.66430  0.18690  0.44800  Biso   1.000  C
  C623     1.0000 0.70380  0.18970  0.44900  Biso   1.000  C
  C624     1.0000 0.71530  0.22530  0.45450  Biso   1.000  C
  C625     1.0000 0.69170  0.25300  0.46410  Biso   1.000  C
  C626     1.0000 0.65550  0.25680  0.46030  Biso   1.000  C
  C627     1.0000 0.61220  0.02590  0.36910  Biso   1.000  C
  C628     1.0000 0.64340  0.01490  0.38050  Biso   1.000  C
  C629     1.0000 0.59340  0.12880  0.35700  Biso   1.000  C
  C630     1.0000 0.43580  0.09780  0.37020  Biso   1.000  C
  C631     1.0000 0.39850  0.07220  0.36950  Biso   1.000  C
  C632     1.0000 0.48150  0.23080  0.41600  Biso   1.000  C
  C633     1.0000 0.48910  0.23460  0.44140  Biso   1.000  C
  C634     1.0000 0.47500  0.26520  0.45470  Biso   1.000  C
  C635     1.0000 0.45320  0.29200  0.44240  Biso   1.000  C
  C636     1.0000 0.44550  0.28820  0.41690  Biso   1.000  C
  C637     1.0000 0.45970  0.25760  0.40370  Biso   1.000  C
  Cd209    1.0000 0.80130  0.57812  0.10045  Biso   1.000  Cd
  Cd210    1.0000 0.87491  0.49128  0.09100  Biso   1.000  Cd
  Cd211    1.0000 0.91057  0.60622  0.08069  Biso   1.000  Cd
  Cd212    1.0000 0.83198  0.55573  0.02900  Biso   1.000  Cd
  Cd213    1.0000 0.02202  0.56007  0.08614  Biso   1.000  Cd
  Cd214    1.0000 0.90050  0.41172  0.03423  Biso   1.000  Cd
  Cd215    1.0000 0.94645  0.52219  0.03090  Biso   1.000  Cd
  Cd216    1.0000 0.86911  0.48961  0.97243  Biso   1.000  Cd
  Cd217    1.0000 0.99495  0.63376  0.03334  Biso   1.000  Cd
  Cd218    1.0000 0.90721  0.59592  0.97488  Biso   1.000  Cd
  Cd219    1.0000 0.07137  0.66112  0.97854  Biso   1.000  Cd
  Cd220    1.0000 0.02035  0.55427  0.97678  Biso   1.000  Cd
  Cd221    1.0000 0.09056  0.58543  0.91730  Biso   1.000  Cd
  Cd222    1.0000 0.05828  0.47486  0.92042  Biso   1.000  Cd
  Cd223    1.0000 0.98139  0.63484  0.92354  Biso   1.000  Cd
  Cd224    1.0000 0.07362  0.69705  0.90433  Biso   1.000  Cd
  Se87     1.0000 0.88955  0.54422  0.05813  Biso   1.000  Se
  Se88     1.0000 0.92173  0.46633  0.00372  Biso   1.000  Se
  Se89     1.0000 0.96562  0.58089  0.00432  Biso   1.000  Se
  Se90     1.0000 0.04051  0.61135  0.94888  Biso   1.000  Se
  Se91     1.0000 0.04958  0.61775  0.06356  Biso   1.000  Se
  Se92     1.0000 0.88198  0.54626  0.94369  Biso   1.000  Se
  S248     1.0000 0.10330  0.75160  0.88060  Biso   1.000  S
  S249     1.0000 0.82230  0.51660  0.11868  Biso   1.000  S
  S250     1.0000 0.85290  0.62700  0.10393  Biso   1.000  S
  S251     1.0000 0.77540  0.57400  0.05638  Biso   1.000  S
  S252     1.0000 0.06950  0.52820  0.11647  Biso   1.000  S
  S253     1.0000 0.84740  0.44350  0.06013  Biso   1.000  S
  S254     1.0000 0.96110  0.57790  0.10947  Biso   1.000  S
  S255     1.0000 0.81220  0.50280  0.00111  Biso   1.000  S
  S256     1.0000 0.94010  0.66010  0.05900  Biso   1.000  S
  S257     1.0000 0.85880  0.61440  0.00787  Biso   1.000  S
  S258     1.0000 0.12640  0.63680  0.00275  Biso   1.000  S
  S259     1.0000 0.14280  0.57330  0.94936  Biso   1.000  S
  S260     1.0000 0.01340  0.68580  0.00243  Biso   1.000  S
  S261     1.0000 0.93010  0.65520  0.95187  Biso   1.000  S
  S262     1.0000 0.08850  0.71540  0.94919  Biso   1.000  S
  S263     1.0000 0.06840  0.53130  0.89080  Biso   1.000  S
  S264     1.0000 0.10950  0.64050  0.89044  Biso   1.000  S
  S265     1.0000 0.96940  0.58070  0.89488  Biso   1.000  S
  S266     1.0000 0.00310  0.69230  0.89811  Biso   1.000  S
  C638     1.0000 0.83990  0.53370  0.14710  Biso   1.000  C
  C639     1.0000 0.81090  0.53950  0.16540  Biso   1.000  C
  C640     1.0000 0.82520  0.55550  0.18900  Biso   1.000  C
  C641     1.0000 0.86860  0.56510  0.19400  Biso   1.000  C
  C642     1.0000 0.89080  0.55700  0.17290  Biso   1.000  C
  C643     1.0000 0.87680  0.54470  0.14730  Biso   1.000  C
  C644     1.0000 0.09020  0.56490  0.13620  Biso   1.000  C
  C645     1.0000 0.09120  0.55800  0.16190  Biso   1.000  C
  C646     1.0000 0.10810  0.58380  0.17790  Biso   1.000  C
  C647     1.0000 0.12390  0.61650  0.16830  Biso   1.000  C
  C648     1.0000 0.12300  0.62340  0.14260  Biso   1.000  C
  C649     1.0000 0.10610  0.59760  0.12660  Biso   1.000  C
  C650     1.0000 0.82280  0.41110  0.07860  Biso   1.000  C
  C651     1.0000 0.83400  0.37050  0.07290  Biso   1.000  C
  C652     1.0000 0.80800  0.33910  0.08860  Biso   1.000  C
  C653     1.0000 0.78000  0.35180  0.10470  Biso   1.000  C
  C654     1.0000 0.77390  0.40130  0.10130  Biso   1.000  C
  C655     1.0000 0.79540  0.42420  0.09310  Biso   1.000  C
  C656     1.0000 0.97310  0.61280  0.12950  Biso   1.000  C
  C657     1.0000 0.00980  0.62510  0.13320  Biso   1.000  C
  C658     1.0000 0.01820  0.64900  0.15310  Biso   1.000  C
  C659     1.0000 0.98990  0.66060  0.16930  Biso   1.000  C
  C660     1.0000 0.95310  0.64830  0.16560  Biso   1.000  C
  C661     1.0000 0.94480  0.62440  0.14580  Biso   1.000  C
  C662     1.0000 0.14810  0.67610  0.01820  Biso   1.000  C
  C663     1.0000 0.13050  0.69670  0.03440  Biso   1.000  C
  C664     1.0000 0.03040  0.72670  0.01730  Biso   1.000  C
  C665     1.0000 0.04250  0.75540  0.00180  Biso   1.000  C
  C666     1.0000 0.05740  0.78920  0.01450  Biso   1.000  C
  C667     1.0000 0.05190  0.78750  0.04210  Biso   1.000  C
  C668     1.0000 0.04320  0.75900  0.05910  Biso   1.000  C
  C669     1.0000 0.02630  0.72960  0.04460  Biso   1.000  C
  C670     1.0000 0.14040  0.71920  0.95120  Biso   1.000  C
  C671     1.0000 0.16430  0.68690  0.94800  Biso   1.000  C
  C672     1.0000 0.20380  0.68970  0.94900  Biso   1.000  C
  C673     1.0000 0.21530  0.72530  0.95450  Biso   1.000  C
  C674     1.0000 0.19170  0.75300  0.96410  Biso   1.000  C
  C675     1.0000 0.15550  0.75680  0.96030  Biso   1.000  C
  C676     1.0000 0.11220  0.52590  0.86910  Biso   1.000  C
  C677     1.0000 0.14340  0.51490  0.88050  Biso   1.000  C
  C678     1.0000 0.09340  0.62880  0.85700  Biso   1.000  C
  C679     1.0000 0.93580  0.59780  0.87020  Biso   1.000  C
  C680     1.0000 0.89850  0.57220  0.86950  Biso   1.000  C
  C681     1.0000 0.98150  0.73080  0.91600  Biso   1.000  C
  C682     1.0000 0.98910  0.73460  0.94140  Biso   1.000  C
  C683     1.0000 0.97500  0.76520  0.95470  Biso   1.000  C
  C684     1.0000 0.95320  0.79200  0.94240  Biso   1.000  C
  C685     1.0000 0.94550  0.78820  0.91690  Biso   1.000  C
  C686     1.0000 0.95970  0.75760  0.90370  Biso   1.000  C
  Cd225    1.0000 0.69870  0.92188  0.60045  Biso   1.000  Cd
  Cd226    1.0000 0.62509  0.00872  0.59100  Biso   1.000  Cd
  Cd227    1.0000 0.58943  0.89378  0.58069  Biso   1.000  Cd
  Cd228    1.0000 0.66802  0.94427  0.52900  Biso   1.000  Cd
  Cd229    1.0000 0.47798  0.93993  0.58614  Biso   1.000  Cd
  Cd230    1.0000 0.59950  0.08828  0.53423  Biso   1.000  Cd
  Cd231    1.0000 0.55355  0.97781  0.53090  Biso   1.000  Cd
  Cd232    1.0000 0.63089  0.01039  0.47243  Biso   1.000  Cd
  Cd233    1.0000 0.50505  0.86624  0.53334  Biso   1.000  Cd
  Cd234    1.0000 0.59279  0.90408  0.47488  Biso   1.000  Cd
  Cd235    1.0000 0.42863  0.83888  0.47854  Biso   1.000  Cd
  Cd236    1.0000 0.47965  0.94573  0.47678  Biso   1.000  Cd
  Cd237    1.0000 0.40944  0.91457  0.41730  Biso   1.000  Cd
  Cd238    1.0000 0.44172  0.02514  0.42042  Biso   1.000  Cd
  Cd239    1.0000 0.51861  0.86516  0.42354  Biso   1.000  Cd
  Cd240    1.0000 0.42638  0.80295  0.40433  Biso   1.000  Cd
  Se93     1.0000 0.61045  0.95578  0.55813  Biso   1.000  Se
  Se94     1.0000 0.57827  0.03367  0.50372  Biso   1.000  Se
  Se95     1.0000 0.53438  0.91911  0.50432  Biso   1.000  Se
  Se96     1.0000 0.45949  0.88865  0.44888  Biso   1.000  Se
  Se97     1.0000 0.45042  0.88225  0.56356  Biso   1.000  Se
  Se98     1.0000 0.61802  0.95374  0.44369  Biso   1.000  Se
  S267     1.0000 0.39670  0.74840  0.38060  Biso   1.000  S
  S268     1.0000 0.67770  0.98340  0.61868  Biso   1.000  S
  S269     1.0000 0.64710  0.87300  0.60393  Biso   1.000  S
  S270     1.0000 0.72460  0.92600  0.55638  Biso   1.000  S
  S271     1.0000 0.43050  0.97180  0.61647  Biso   1.000  S
  S272     1.0000 0.65260  0.05650  0.56013  Biso   1.000  S
  S273     1.0000 0.53890  0.92210  0.60947  Biso   1.000  S
  S274     1.0000 0.68780  0.99720  0.50111  Biso   1.000  S
  S275     1.0000 0.55990  0.83990  0.55900  Biso   1.000  S
  S276     1.0000 0.64120  0.88560  0.50787  Biso   1.000  S
  S277     1.0000 0.37360  0.86320  0.50275  Biso   1.000  S
  S278     1.0000 0.35720  0.92670  0.44936  Biso   1.000  S
  S279     1.0000 0.48660  0.81420  0.50243  Biso   1.000  S
  S280     1.0000 0.56990  0.84480  0.45187  Biso   1.000  S
  S281     1.0000 0.41150  0.78460  0.44919  Biso   1.000  S
  S282     1.0000 0.43160  0.96870  0.39080  Biso   1.000  S
  S283     1.0000 0.39050  0.85950  0.39044  Biso   1.000  S
  S284     1.0000 0.53060  0.91930  0.39488  Biso   1.000  S
  S285     1.0000 0.49690  0.80770  0.39811  Biso   1.000  S
  C687     1.0000 0.66010  0.96630  0.64710  Biso   1.000  C
  C688     1.0000 0.68910  0.96050  0.66540  Biso   1.000  C
  C689     1.0000 0.67480  0.94450  0.68900  Biso   1.000  C
  C690     1.0000 0.63140  0.93490  0.69400  Biso   1.000  C
  C691     1.0000 0.60920  0.94300  0.67290  Biso   1.000  C
  C692     1.0000 0.62320  0.95530  0.64730  Biso   1.000  C
  C693     1.0000 0.40980  0.93510  0.63620  Biso   1.000  C
  C694     1.0000 0.40880  0.94200  0.66190  Biso   1.000  C
  C695     1.0000 0.39190  0.91620  0.67790  Biso   1.000  C
  C696     1.0000 0.37610  0.88350  0.66830  Biso   1.000  C
  C697     1.0000 0.37700  0.87660  0.64260  Biso   1.000  C
  C698     1.0000 0.39390  0.90240  0.62660  Biso   1.000  C
  C699     1.0000 0.67720  0.08890  0.57860  Biso   1.000  C
  C700     1.0000 0.66600  0.12950  0.57290  Biso   1.000  C
  C701     1.0000 0.69200  0.16090  0.58860  Biso   1.000  C
  C702     1.0000 0.72000  0.14820  0.60470  Biso   1.000  C
  C703     1.0000 0.72610  0.09870  0.60130  Biso   1.000  C
  C704     1.0000 0.70460  0.07580  0.59310  Biso   1.000  C
  C705     1.0000 0.52690  0.88720  0.62950  Biso   1.000  C
  C706     1.0000 0.49020  0.87490  0.63320  Biso   1.000  C
  C707     1.0000 0.48180  0.85100  0.65310  Biso   1.000  C
  C708     1.0000 0.51010  0.83940  0.66930  Biso   1.000  C
  C709     1.0000 0.54690  0.85170  0.66560  Biso   1.000  C
  C710     1.0000 0.55520  0.87560  0.64580  Biso   1.000  C
  C711     1.0000 0.35190  0.82390  0.51820  Biso   1.000  C
  C712     1.0000 0.36950  0.80330  0.53440  Biso   1.000  C
  C713     1.0000 0.46960  0.77330  0.51730  Biso   1.000  C
  C714     1.0000 0.45750  0.74460  0.50180  Biso   1.000  C
  C715     1.0000 0.44260  0.71080  0.51450  Biso   1.000  C
  C716     1.0000 0.44810  0.71250  0.54210  Biso   1.000  C
  C717     1.0000 0.45680  0.74100  0.55910  Biso   1.000  C
  C718     1.0000 0.47370  0.77040  0.54460  Biso   1.000  C
  C719     1.0000 0.35960  0.78080  0.45120  Biso   1.000  C
  C720     1.0000 0.33570  0.81310  0.44800  Biso   1.000  C
  C721     1.0000 0.29620  0.81030  0.44900  Biso   1.000  C
  C722     1.0000 0.28470  0.77470  0.45450  Biso   1.000  C
  C723     1.0000 0.30830  0.74700  0.46410  Biso   1.000  C
  C724     1.0000 0.34450  0.74320  0.46030  Biso   1.000  C
  C725     1.0000 0.38780  0.97410  0.36910  Biso   1.000  C
  C726     1.0000 0.35660  0.98510  0.38050  Biso   1.000  C
  C727     1.0000 0.40660  0.87120  0.35700  Biso   1.000  C
  C728     1.0000 0.56420  0.90220  0.37020  Biso   1.000  C
  C729     1.0000 0.60150  0.92780  0.36950  Biso   1.000  C
  C730     1.0000 0.51850  0.76920  0.41600  Biso   1.000  C
  C731     1.0000 0.51090  0.76540  0.44140  Biso   1.000  C
  C732     1.0000 0.52500  0.73480  0.45470  Biso   1.000  C
  C733     1.0000 0.54680  0.70800  0.44240  Biso   1.000  C
  C734     1.0000 0.55450  0.71180  0.41690  Biso   1.000  C
  C735     1.0000 0.54030  0.74240  0.40370  Biso   1.000  C
  Cd241    1.0000 0.19870  0.42188  0.10045  Biso   1.000  Cd
  Cd242    1.0000 0.12509  0.50872  0.09100  Biso   1.000  Cd
  Cd243    1.0000 0.08943  0.39378  0.08069  Biso   1.000  Cd
  Cd244    1.0000 0.16802  0.44427  0.02900  Biso   1.000  Cd
  Cd245    1.0000 0.97798  0.43993  0.08614  Biso   1.000  Cd
  Cd246    1.0000 0.09950  0.58828  0.03423  Biso   1.000  Cd
  Cd247    1.0000 0.05355  0.47781  0.03090  Biso   1.000  Cd
  Cd248    1.0000 0.13089  0.51039  0.97243  Biso   1.000  Cd
  Cd249    1.0000 0.00505  0.36624  0.03334  Biso   1.000  Cd
  Cd250    1.0000 0.09279  0.40408  0.97488  Biso   1.000  Cd
  Cd251    1.0000 0.92863  0.33888  0.97854  Biso   1.000  Cd
  Cd252    1.0000 0.97965  0.44573  0.97678  Biso   1.000  Cd
  Cd253    1.0000 0.90944  0.41457  0.91730  Biso   1.000  Cd
  Cd254    1.0000 0.94172  0.52514  0.92042  Biso   1.000  Cd
  Cd255    1.0000 0.01861  0.36516  0.92354  Biso   1.000  Cd
  Cd256    1.0000 0.92638  0.30295  0.90433  Biso   1.000  Cd
  Se99     1.0000 0.11045  0.45578  0.05813  Biso   1.000  Se
  Se100    1.0000 0.07827  0.53367  0.00372  Biso   1.000  Se
  Se101    1.0000 0.03438  0.41911  0.00432  Biso   1.000  Se
  Se102    1.0000 0.95949  0.38865  0.94888  Biso   1.000  Se
  Se103    1.0000 0.95042  0.38225  0.06356  Biso   1.000  Se
  Se104    1.0000 0.11802  0.45374  0.94369  Biso   1.000  Se
  S286     1.0000 0.89670  0.24840  0.88060  Biso   1.000  S
  S287     1.0000 0.17770  0.48340  0.11868  Biso   1.000  S
  S288     1.0000 0.14710  0.37300  0.10393  Biso   1.000  S
  S289     1.0000 0.22460  0.42600  0.05638  Biso   1.000  S
  S290     1.0000 0.93050  0.47180  0.11647  Biso   1.000  S
  S291     1.0000 0.15260  0.55650  0.06013  Biso   1.000  S
  S292     1.0000 0.03890  0.42210  0.10947  Biso   1.000  S
  S293     1.0000 0.18780  0.49720  0.00111  Biso   1.000  S
  S294     1.0000 0.05990  0.33990  0.05900  Biso   1.000  S
  S295     1.0000 0.14120  0.38560  0.00787  Biso   1.000  S
  S296     1.0000 0.87360  0.36320  0.00275  Biso   1.000  S
  S297     1.0000 0.85720  0.42670  0.94936  Biso   1.000  S
  S298     1.0000 0.98660  0.31420  0.00243  Biso   1.000  S
  S299     1.0000 0.06990  0.34480  0.95187  Biso   1.000  S
  S300     1.0000 0.91150  0.28460  0.94919  Biso   1.000  S
  S301     1.0000 0.93160  0.46870  0.89080  Biso   1.000  S
  S302     1.0000 0.89050  0.35950  0.89044  Biso   1.000  S
  S303     1.0000 0.03060  0.41930  0.89488  Biso   1.000  S
  S304     1.0000 0.99690  0.30770  0.89811  Biso   1.000  S
  C736     1.0000 0.16010  0.46630  0.14710  Biso   1.000  C
  C737     1.0000 0.18910  0.46050  0.16540  Biso   1.000  C
  C738     1.0000 0.17480  0.44450  0.18900  Biso   1.000  C
  C739     1.0000 0.13140  0.43490  0.19400  Biso   1.000  C
  C740     1.0000 0.10920  0.44300  0.17290  Biso   1.000  C
  C741     1.0000 0.12320  0.45530  0.14730  Biso   1.000  C
  C742     1.0000 0.90980  0.43510  0.13620  Biso   1.000  C
  C743     1.0000 0.90880  0.44200  0.16190  Biso   1.000  C
  C744     1.0000 0.89190  0.41620  0.17790  Biso   1.000  C
  C745     1.0000 0.87610  0.38350  0.16830  Biso   1.000  C
  C746     1.0000 0.87700  0.37660  0.14260  Biso   1.000  C
  C747     1.0000 0.89390  0.40240  0.12660  Biso   1.000  C
  C748     1.0000 0.17720  0.58890  0.07860  Biso   1.000  C
  C749     1.0000 0.16600  0.62950  0.07290  Biso   1.000  C
  C750     1.0000 0.19200  0.66090  0.08860  Biso   1.000  C
  C751     1.0000 0.22000  0.64820  0.10470  Biso   1.000  C
  C752     1.0000 0.22610  0.59870  0.10130  Biso   1.000  C
  C753     1.0000 0.20460  0.57580  0.09310  Biso   1.000  C
  C754     1.0000 0.02690  0.38720  0.12950  Biso   1.000  C
  C755     1.0000 0.99020  0.37490  0.13320  Biso   1.000  C
  C756     1.0000 0.98180  0.35100  0.15310  Biso   1.000  C
  C757     1.0000 0.01010  0.33940  0.16930  Biso   1.000  C
  C758     1.0000 0.04690  0.35170  0.16560  Biso   1.000  C
  C759     1.0000 0.05520  0.37560  0.14580  Biso   1.000  C
  C760     1.0000 0.85190  0.32390  0.01820  Biso   1.000  C
  C761     1.0000 0.86950  0.30330  0.03440  Biso   1.000  C
  C762     1.0000 0.96960  0.27330  0.01730  Biso   1.000  C
  C763     1.0000 0.95750  0.24460  0.00180  Biso   1.000  C
  C764     1.0000 0.94260  0.21080  0.01450  Biso   1.000  C
  C765     1.0000 0.94810  0.21250  0.04210  Biso   1.000  C
  C766     1.0000 0.95680  0.24100  0.05910  Biso   1.000  C
  C767     1.0000 0.97370  0.27040  0.04460  Biso   1.000  C
  C768     1.0000 0.85960  0.28080  0.95120  Biso   1.000  C
  C769     1.0000 0.83570  0.31310  0.94800  Biso   1.000  C
  C770     1.0000 0.79620  0.31030  0.94900  Biso   1.000  C
  C771     1.0000 0.78470  0.27470  0.95450  Biso   1.000  C
  C772     1.0000 0.80830  0.24700  0.96410  Biso   1.000  C
  C773     1.0000 0.84450  0.24320  0.96030  Biso   1.000  C
  C774     1.0000 0.88780  0.47410  0.86910  Biso   1.000  C
  C775     1.0000 0.85660  0.48510  0.88050  Biso   1.000  C
  C776     1.0000 0.90660  0.37120  0.85700  Biso   1.000  C
  C777     1.0000 0.06420  0.40220  0.87020  Biso   1.000  C
  C778     1.0000 0.10150  0.42780  0.86950  Biso   1.000  C
  C779     1.0000 0.01850  0.26920  0.91600  Biso   1.000  C
  C780     1.0000 0.01090  0.26540  0.94140  Biso   1.000  C
  C781     1.0000 0.02500  0.23480  0.95470  Biso   1.000  C
  C782     1.0000 0.04680  0.20800  0.94240  Biso   1.000  C
  C783     1.0000 0.05450  0.21180  0.91690  Biso   1.000  C
  C784     1.0000 0.04030  0.24240  0.90370  Biso   1.000  C
  Se105    1.0000 0.00000  0.00000  0.81082  Biso   1.000  Se
  Se106    1.0000 0.00000  0.00000  0.69663  Biso   1.000  Se
  Se107    1.0000 0.50000  0.50000  0.31082  Biso   1.000  Se
  Se108    1.0000 0.50000  0.50000  0.19663  Biso   1.000  Se
  Se109    1.0000 0.50000  0.00000  0.56082  Biso   1.000  Se
  Se110    1.0000 0.50000  0.00000  0.44663  Biso   1.000  Se
  Se111    1.0000 0.00000  0.50000  0.06082  Biso   1.000  Se
  Se112    1.0000 0.00000  0.50000  0.94663  Biso   1.000  Se
