data_image0
_cell_length_a       21.858
_cell_length_b       21.858
_cell_length_c       25.131
_cell_angle_alpha    90
_cell_angle_beta     90
_cell_angle_gamma    90

_symmetry_space_group_name_H-M    "P 1"
_symmetry_int_tables_number       1

loop_
  _symmetry_equiv_pos_as_xyz
  'x, y, z'

loop_
  _atom_site_label
  _atom_site_occupancy
  _atom_site_fract_x
  _atom_site_fract_y
  _atom_site_fract_z
  _atom_site_thermal_displace_type
  _atom_site_B_iso_or_equiv
  _atom_site_type_symbol
  Cu1      1.0000 0.02536  0.94152  0.47572  Biso   1.000  Cu
  Br1      1.0000 0.91961  0.95232  0.51232  Biso   1.000  Br
  Se1      1.0000 0.99633  0.80312  0.47466  Biso   1.000  Se
  Se2      1.0000 0.13698  0.94871  0.40152  Biso   1.000  Se
  N1       1.0000 0.06720  0.88560  0.52830  Biso   1.000  N
  C1       1.0000 0.05310  0.82600  0.52970  Biso   1.000  C
  C2       1.0000 0.07680  0.78610  0.56750  Biso   1.000  C
  H1       1.0000 0.06610  0.74400  0.56710  Biso   1.000  H
  C3       1.0000 0.11620  0.80910  0.60570  Biso   1.000  C
  H2       1.0000 0.13340  0.78290  0.63190  Biso   1.000  H
  C4       1.0000 0.13010  0.87120  0.60490  Biso   1.000  C
  H3       1.0000 0.15700  0.88820  0.63070  Biso   1.000  H
  C5       1.0000 0.10490  0.90700  0.56710  Biso   1.000  C
  H4       1.0000 0.11400  0.94950  0.56760  Biso   1.000  H
  N2       1.0000 0.01170  0.93570  0.39540  Biso   1.000  N
  C6       1.0000 0.06110  0.93900  0.36460  Biso   1.000  C
  C7       1.0000 0.05420  0.93540  0.31070  Biso   1.000  C
  H5       1.0000 0.08890  0.93800  0.28810  Biso   1.000  H
  C8       1.0000 0.99660  0.92810  0.28910  Biso   1.000  C
  H6       1.0000 0.99190  0.92580  0.25160  Biso   1.000  H
  C9       1.0000 0.94750  0.92410  0.32030  Biso   1.000  C
  H7       1.0000 0.90780  0.91880  0.30570  Biso   1.000  H
  C10      1.0000 0.95630  0.92820  0.37480  Biso   1.000  C
  H8       1.0000 0.92190  0.92550  0.39780  Biso   1.000  H
  Cu2      1.0000 0.52536  0.44152  0.97572  Biso   1.000  Cu
  Br2      1.0000 0.41961  0.45232  0.01232  Biso   1.000  Br
  Se3      1.0000 0.49633  0.30312  0.97466  Biso   1.000  Se
  Se4      1.0000 0.63698  0.44871  0.90152  Biso   1.000  Se
  N3       1.0000 0.56720  0.38560  0.02830  Biso   1.000  N
  C11      1.0000 0.55310  0.32600  0.02970  Biso   1.000  C
  C12      1.0000 0.57680  0.28610  0.06750  Biso   1.000  C
  H9       1.0000 0.56610  0.24400  0.06710  Biso   1.000  H
  C13      1.0000 0.61620  0.30910  0.10570  Biso   1.000  C
  H10      1.0000 0.63340  0.28290  0.13190  Biso   1.000  H
  C14      1.0000 0.63010  0.37120  0.10490  Biso   1.000  C
  H11      1.0000 0.65700  0.38820  0.13070  Biso   1.000  H
  C15      1.0000 0.60490  0.40700  0.06710  Biso   1.000  C
  H12      1.0000 0.61400  0.44950  0.06760  Biso   1.000  H
  N4       1.0000 0.51170  0.43570  0.89540  Biso   1.000  N
  C16      1.0000 0.56110  0.43900  0.86460  Biso   1.000  C
  C17      1.0000 0.55420  0.43540  0.81070  Biso   1.000  C
  H13      1.0000 0.58890  0.43800  0.78810  Biso   1.000  H
  C18      1.0000 0.49660  0.42810  0.78910  Biso   1.000  C
  H14      1.0000 0.49190  0.42580  0.75160  Biso   1.000  H
  C19      1.0000 0.44750  0.42410  0.82030  Biso   1.000  C
  H15      1.0000 0.40780  0.41880  0.80570  Biso   1.000  H
  C20      1.0000 0.45630  0.42820  0.87480  Biso   1.000  C
  H16      1.0000 0.42190  0.42550  0.89780  Biso   1.000  H
  Cu3      1.0000 0.47464  0.05848  0.97572  Biso   1.000  Cu
  Br3      1.0000 0.58039  0.04768  0.01232  Biso   1.000  Br
  Se5      1.0000 0.50367  0.19688  0.97466  Biso   1.000  Se
  Se6      1.0000 0.36302  0.05129  0.90152  Biso   1.000  Se
  N5       1.0000 0.43280  0.11440  0.02830  Biso   1.000  N
  C21      1.0000 0.44690  0.17400  0.02970  Biso   1.000  C
  C22      1.0000 0.42320  0.21390  0.06750  Biso   1.000  C
  H17      1.0000 0.43390  0.25600  0.06710  Biso   1.000  H
  C23      1.0000 0.38380  0.19090  0.10570  Biso   1.000  C
  H18      1.0000 0.36660  0.21710  0.13190  Biso   1.000  H
  C24      1.0000 0.36990  0.12880  0.10490  Biso   1.000  C
  H19      1.0000 0.34300  0.11180  0.13070  Biso   1.000  H
  C25      1.0000 0.39510  0.09300  0.06710  Biso   1.000  C
  H20      1.0000 0.38600  0.05050  0.06760  Biso   1.000  H
  N6       1.0000 0.48830  0.06430  0.89540  Biso   1.000  N
  C26      1.0000 0.43890  0.06100  0.86460  Biso   1.000  C
  C27      1.0000 0.44580  0.06460  0.81070  Biso   1.000  C
  H21      1.0000 0.41110  0.06200  0.78810  Biso   1.000  H
  C28      1.0000 0.50340  0.07190  0.78910  Biso   1.000  C
  H22      1.0000 0.50810  0.07420  0.75160  Biso   1.000  H
  C29      1.0000 0.55250  0.07590  0.82030  Biso   1.000  C
  H23      1.0000 0.59220  0.08120  0.80570  Biso   1.000  H
  C30      1.0000 0.54370  0.07180  0.87480  Biso   1.000  C
  H24      1.0000 0.57810  0.07450  0.89780  Biso   1.000  H
  Cu4      1.0000 0.97464  0.55848  0.47572  Biso   1.000  Cu
  Br4      1.0000 0.08039  0.54768  0.51232  Biso   1.000  Br
  Se7      1.0000 0.00367  0.69688  0.47466  Biso   1.000  Se
  Se8      1.0000 0.86302  0.55129  0.40152  Biso   1.000  Se
  N7       1.0000 0.93280  0.61440  0.52830  Biso   1.000  N
  C31      1.0000 0.94690  0.67400  0.52970  Biso   1.000  C
  C32      1.0000 0.92320  0.71390  0.56750  Biso   1.000  C
  H25      1.0000 0.93390  0.75600  0.56710  Biso   1.000  H
  C33      1.0000 0.88380  0.69090  0.60570  Biso   1.000  C
  H26      1.0000 0.86660  0.71710  0.63190  Biso   1.000  H
  C34      1.0000 0.86990  0.62880  0.60490  Biso   1.000  C
  H27      1.0000 0.84300  0.61180  0.63070  Biso   1.000  H
  C35      1.0000 0.89510  0.59300  0.56710  Biso   1.000  C
  H28      1.0000 0.88600  0.55050  0.56760  Biso   1.000  H
  N8       1.0000 0.98830  0.56430  0.39540  Biso   1.000  N
  C36      1.0000 0.93890  0.56100  0.36460  Biso   1.000  C
  C37      1.0000 0.94580  0.56460  0.31070  Biso   1.000  C
  H29      1.0000 0.91110  0.56200  0.28810  Biso   1.000  H
  C38      1.0000 0.00340  0.57190  0.28910  Biso   1.000  C
  H30      1.0000 0.00810  0.57420  0.25160  Biso   1.000  H
  C39      1.0000 0.05250  0.57590  0.32030  Biso   1.000  C
  H31      1.0000 0.09220  0.58120  0.30570  Biso   1.000  H
  C40      1.0000 0.04370  0.57180  0.37480  Biso   1.000  C
  H32      1.0000 0.07810  0.57450  0.39780  Biso   1.000  H
  Cu5      1.0000 0.19152  0.77536  0.27428  Biso   1.000  Cu
  Br5      1.0000 0.20232  0.66961  0.23768  Biso   1.000  Br
  Se9      1.0000 0.05312  0.74633  0.27534  Biso   1.000  Se
  Se10     1.0000 0.19871  0.88698  0.34848  Biso   1.000  Se
  N9       1.0000 0.13560  0.81720  0.22170  Biso   1.000  N
  C41      1.0000 0.07600  0.80310  0.22030  Biso   1.000  C
  C42      1.0000 0.03610  0.82680  0.18250  Biso   1.000  C
  H33      1.0000 0.99400  0.81610  0.18290  Biso   1.000  H
  C43      1.0000 0.05910  0.86620  0.14430  Biso   1.000  C
  H34      1.0000 0.03290  0.88340  0.11810  Biso   1.000  H
  C44      1.0000 0.12120  0.88010  0.14510  Biso   1.000  C
  H35      1.0000 0.13820  0.90700  0.11930  Biso   1.000  H
  C45      1.0000 0.15700  0.85490  0.18290  Biso   1.000  C
  H36      1.0000 0.19950  0.86400  0.18240  Biso   1.000  H
  N10      1.0000 0.18570  0.76170  0.35460  Biso   1.000  N
  C46      1.0000 0.18900  0.81110  0.38540  Biso   1.000  C
  C47      1.0000 0.18540  0.80420  0.43930  Biso   1.000  C
  H37      1.0000 0.18800  0.83890  0.46190  Biso   1.000  H
  C48      1.0000 0.17810  0.74660  0.46090  Biso   1.000  C
  H38      1.0000 0.17580  0.74190  0.49840  Biso   1.000  H
  C49      1.0000 0.17410  0.69750  0.42970  Biso   1.000  C
  H39      1.0000 0.16880  0.65780  0.44430  Biso   1.000  H
  C50      1.0000 0.17820  0.70630  0.37520  Biso   1.000  C
  H40      1.0000 0.17550  0.67190  0.35220  Biso   1.000  H
  Cu6      1.0000 0.69152  0.27536  0.77428  Biso   1.000  Cu
  Br6      1.0000 0.70232  0.16961  0.73768  Biso   1.000  Br
  Se11     1.0000 0.55312  0.24633  0.77534  Biso   1.000  Se
  Se12     1.0000 0.69871  0.38698  0.84848  Biso   1.000  Se
  N11      1.0000 0.63560  0.31720  0.72170  Biso   1.000  N
  C51      1.0000 0.57600  0.30310  0.72030  Biso   1.000  C
  C52      1.0000 0.53610  0.32680  0.68250  Biso   1.000  C
  H41      1.0000 0.49400  0.31610  0.68290  Biso   1.000  H
  C53      1.0000 0.55910  0.36620  0.64430  Biso   1.000  C
  H42      1.0000 0.53290  0.38340  0.61810  Biso   1.000  H
  C54      1.0000 0.62120  0.38010  0.64510  Biso   1.000  C
  H43      1.0000 0.63820  0.40700  0.61930  Biso   1.000  H
  C55      1.0000 0.65700  0.35490  0.68290  Biso   1.000  C
  H44      1.0000 0.69950  0.36400  0.68240  Biso   1.000  H
  N12      1.0000 0.68570  0.26170  0.85460  Biso   1.000  N
  C56      1.0000 0.68900  0.31110  0.88540  Biso   1.000  C
  C57      1.0000 0.68540  0.30420  0.93930  Biso   1.000  C
  H45      1.0000 0.68800  0.33890  0.96190  Biso   1.000  H
  C58      1.0000 0.67810  0.24660  0.96090  Biso   1.000  C
  H46      1.0000 0.67580  0.24190  0.99840  Biso   1.000  H
  C59      1.0000 0.67410  0.19750  0.92970  Biso   1.000  C
  H47      1.0000 0.66880  0.15780  0.94430  Biso   1.000  H
  C60      1.0000 0.67820  0.20630  0.87520  Biso   1.000  C
  H48      1.0000 0.67550  0.17190  0.85220  Biso   1.000  H
  Cu7      1.0000 0.30848  0.22464  0.77428  Biso   1.000  Cu
  Br7      1.0000 0.29768  0.33039  0.73768  Biso   1.000  Br
  Se13     1.0000 0.44688  0.25367  0.77534  Biso   1.000  Se
  Se14     1.0000 0.30129  0.11302  0.84848  Biso   1.000  Se
  N13      1.0000 0.36440  0.18280  0.72170  Biso   1.000  N
  C61      1.0000 0.42400  0.19690  0.72030  Biso   1.000  C
  C62      1.0000 0.46390  0.17320  0.68250  Biso   1.000  C
  H49      1.0000 0.50600  0.18390  0.68290  Biso   1.000  H
  C63      1.0000 0.44090  0.13380  0.64430  Biso   1.000  C
  H50      1.0000 0.46710  0.11660  0.61810  Biso   1.000  H
  C64      1.0000 0.37880  0.11990  0.64510  Biso   1.000  C
  H51      1.0000 0.36180  0.09300  0.61930  Biso   1.000  H
  C65      1.0000 0.34300  0.14510  0.68290  Biso   1.000  C
  H52      1.0000 0.30050  0.13600  0.68240  Biso   1.000  H
  N14      1.0000 0.31430  0.23830  0.85460  Biso   1.000  N
  C66      1.0000 0.31100  0.18890  0.88540  Biso   1.000  C
  C67      1.0000 0.31460  0.19580  0.93930  Biso   1.000  C
  H53      1.0000 0.31200  0.16110  0.96190  Biso   1.000  H
  C68      1.0000 0.32190  0.25340  0.96090  Biso   1.000  C
  H54      1.0000 0.32420  0.25810  0.99840  Biso   1.000  H
  C69      1.0000 0.32590  0.30250  0.92970  Biso   1.000  C
  H55      1.0000 0.33120  0.34220  0.94430  Biso   1.000  H
  C70      1.0000 0.32180  0.29370  0.87520  Biso   1.000  C
  H56      1.0000 0.32450  0.32810  0.85220  Biso   1.000  H
  Cu8      1.0000 0.80848  0.72464  0.27428  Biso   1.000  Cu
  Br8      1.0000 0.79768  0.83039  0.23768  Biso   1.000  Br
  Se15     1.0000 0.94688  0.75367  0.27534  Biso   1.000  Se
  Se16     1.0000 0.80129  0.61302  0.34848  Biso   1.000  Se
  N15      1.0000 0.86440  0.68280  0.22170  Biso   1.000  N
  C71      1.0000 0.92400  0.69690  0.22030  Biso   1.000  C
  C72      1.0000 0.96390  0.67320  0.18250  Biso   1.000  C
  H57      1.0000 0.00600  0.68390  0.18290  Biso   1.000  H
  C73      1.0000 0.94090  0.63380  0.14430  Biso   1.000  C
  H58      1.0000 0.96710  0.61660  0.11810  Biso   1.000  H
  C74      1.0000 0.87880  0.61990  0.14510  Biso   1.000  C
  H59      1.0000 0.86180  0.59300  0.11930  Biso   1.000  H
  C75      1.0000 0.84300  0.64510  0.18290  Biso   1.000  C
  H60      1.0000 0.80050  0.63600  0.18240  Biso   1.000  H
  N16      1.0000 0.81430  0.73830  0.35460  Biso   1.000  N
  C76      1.0000 0.81100  0.68890  0.38540  Biso   1.000  C
  C77      1.0000 0.81460  0.69580  0.43930  Biso   1.000  C
  H61      1.0000 0.81200  0.66110  0.46190  Biso   1.000  H
  C78      1.0000 0.82190  0.75340  0.46090  Biso   1.000  C
  H62      1.0000 0.82420  0.75810  0.49840  Biso   1.000  H
  C79      1.0000 0.82590  0.80250  0.42970  Biso   1.000  C
  H63      1.0000 0.83120  0.84220  0.44430  Biso   1.000  H
  C80      1.0000 0.82180  0.79370  0.37520  Biso   1.000  C
  H64      1.0000 0.82450  0.82810  0.35220  Biso   1.000  H
  Cu9      1.0000 0.97464  0.05848  0.52428  Biso   1.000  Cu
  Br9      1.0000 0.08039  0.04768  0.48768  Biso   1.000  Br
  Se17     1.0000 0.00367  0.19688  0.52534  Biso   1.000  Se
  Se18     1.0000 0.86302  0.05129  0.59848  Biso   1.000  Se
  N17      1.0000 0.93280  0.11440  0.47170  Biso   1.000  N
  C81      1.0000 0.94690  0.17400  0.47030  Biso   1.000  C
  C82      1.0000 0.92320  0.21390  0.43250  Biso   1.000  C
  H65      1.0000 0.93390  0.25600  0.43290  Biso   1.000  H
  C83      1.0000 0.88380  0.19090  0.39430  Biso   1.000  C
  H66      1.0000 0.86660  0.21710  0.36810  Biso   1.000  H
  C84      1.0000 0.86990  0.12880  0.39510  Biso   1.000  C
  H67      1.0000 0.84300  0.11180  0.36930  Biso   1.000  H
  C85      1.0000 0.89510  0.09300  0.43290  Biso   1.000  C
  H68      1.0000 0.88600  0.05050  0.43240  Biso   1.000  H
  N18      1.0000 0.98830  0.06430  0.60460  Biso   1.000  N
  C86      1.0000 0.93890  0.06100  0.63540  Biso   1.000  C
  C87      1.0000 0.94580  0.06460  0.68930  Biso   1.000  C
  H69      1.0000 0.91110  0.06200  0.71190  Biso   1.000  H
  C88      1.0000 0.00340  0.07190  0.71090  Biso   1.000  C
  H70      1.0000 0.00810  0.07420  0.74840  Biso   1.000  H
  C89      1.0000 0.05250  0.07590  0.67970  Biso   1.000  C
  H71      1.0000 0.09220  0.08120  0.69430  Biso   1.000  H
  C90      1.0000 0.04370  0.07180  0.62520  Biso   1.000  C
  H72      1.0000 0.07810  0.07450  0.60220  Biso   1.000  H
  Cu10     1.0000 0.47464  0.55848  0.02428  Biso   1.000  Cu
  Br10     1.0000 0.58039  0.54768  0.98768  Biso   1.000  Br
  Se19     1.0000 0.50367  0.69688  0.02534  Biso   1.000  Se
  Se20     1.0000 0.36302  0.55129  0.09848  Biso   1.000  Se
  N19      1.0000 0.43280  0.61440  0.97170  Biso   1.000  N
  C91      1.0000 0.44690  0.67400  0.97030  Biso   1.000  C
  C92      1.0000 0.42320  0.71390  0.93250  Biso   1.000  C
  H73      1.0000 0.43390  0.75600  0.93290  Biso   1.000  H
  C93      1.0000 0.38380  0.69090  0.89430  Biso   1.000  C
  H74      1.0000 0.36660  0.71710  0.86810  Biso   1.000  H
  C94      1.0000 0.36990  0.62880  0.89510  Biso   1.000  C
  H75      1.0000 0.34300  0.61180  0.86930  Biso   1.000  H
  C95      1.0000 0.39510  0.59300  0.93290  Biso   1.000  C
  H76      1.0000 0.38600  0.55050  0.93240  Biso   1.000  H
  N20      1.0000 0.48830  0.56430  0.10460  Biso   1.000  N
  C96      1.0000 0.43890  0.56100  0.13540  Biso   1.000  C
  C97      1.0000 0.44580  0.56460  0.18930  Biso   1.000  C
  H77      1.0000 0.41110  0.56200  0.21190  Biso   1.000  H
  C98      1.0000 0.50340  0.57190  0.21090  Biso   1.000  C
  H78      1.0000 0.50810  0.57420  0.24840  Biso   1.000  H
  C99      1.0000 0.55250  0.57590  0.17970  Biso   1.000  C
  H79      1.0000 0.59220  0.58120  0.19430  Biso   1.000  H
  C100     1.0000 0.54370  0.57180  0.12520  Biso   1.000  C
  H80      1.0000 0.57810  0.57450  0.10220  Biso   1.000  H
  Cu11     1.0000 0.52536  0.94152  0.02428  Biso   1.000  Cu
  Br11     1.0000 0.41961  0.95232  0.98768  Biso   1.000  Br
  Se21     1.0000 0.49633  0.80312  0.02534  Biso   1.000  Se
  Se22     1.0000 0.63698  0.94871  0.09848  Biso   1.000  Se
  N21      1.0000 0.56720  0.88560  0.97170  Biso   1.000  N
  C101     1.0000 0.55310  0.82600  0.97030  Biso   1.000  C
  C102     1.0000 0.57680  0.78610  0.93250  Biso   1.000  C
  H81      1.0000 0.56610  0.74400  0.93290  Biso   1.000  H
  C103     1.0000 0.61620  0.80910  0.89430  Biso   1.000  C
  H82      1.0000 0.63340  0.78290  0.86810  Biso   1.000  H
  C104     1.0000 0.63010  0.87120  0.89510  Biso   1.000  C
  H83      1.0000 0.65700  0.88820  0.86930  Biso   1.000  H
  C105     1.0000 0.60490  0.90700  0.93290  Biso   1.000  C
  H84      1.0000 0.61400  0.94950  0.93240  Biso   1.000  H
  N22      1.0000 0.51170  0.93570  0.10460  Biso   1.000  N
  C106     1.0000 0.56110  0.93900  0.13540  Biso   1.000  C
  C107     1.0000 0.55420  0.93540  0.18930  Biso   1.000  C
  H85      1.0000 0.58890  0.93800  0.21190  Biso   1.000  H
  C108     1.0000 0.49660  0.92810  0.21090  Biso   1.000  C
  H86      1.0000 0.49190  0.92580  0.24840  Biso   1.000  H
  C109     1.0000 0.44750  0.92410  0.17970  Biso   1.000  C
  H87      1.0000 0.40780  0.91880  0.19430  Biso   1.000  H
  C110     1.0000 0.45630  0.92820  0.12520  Biso   1.000  C
  H88      1.0000 0.42190  0.92550  0.10220  Biso   1.000  H
  Cu12     1.0000 0.02536  0.44152  0.52428  Biso   1.000  Cu
  Br12     1.0000 0.91961  0.45232  0.48768  Biso   1.000  Br
  Se23     1.0000 0.99633  0.30312  0.52534  Biso   1.000  Se
  Se24     1.0000 0.13698  0.44871  0.59848  Biso   1.000  Se
  N23      1.0000 0.06720  0.38560  0.47170  Biso   1.000  N
  C111     1.0000 0.05310  0.32600  0.47030  Biso   1.000  C
  C112     1.0000 0.07680  0.28610  0.43250  Biso   1.000  C
  H89      1.0000 0.06610  0.24400  0.43290  Biso   1.000  H
  C113     1.0000 0.11620  0.30910  0.39430  Biso   1.000  C
  H90      1.0000 0.13340  0.28290  0.36810  Biso   1.000  H
  C114     1.0000 0.13010  0.37120  0.39510  Biso   1.000  C
  H91      1.0000 0.15700  0.38820  0.36930  Biso   1.000  H
  C115     1.0000 0.10490  0.40700  0.43290  Biso   1.000  C
  H92      1.0000 0.11400  0.44950  0.43240  Biso   1.000  H
  N24      1.0000 0.01170  0.43570  0.60460  Biso   1.000  N
  C116     1.0000 0.06110  0.43900  0.63540  Biso   1.000  C
  C117     1.0000 0.05420  0.43540  0.68930  Biso   1.000  C
  H93      1.0000 0.08890  0.43800  0.71190  Biso   1.000  H
  C118     1.0000 0.99660  0.42810  0.71090  Biso   1.000  C
  H94      1.0000 0.99190  0.42580  0.74840  Biso   1.000  H
  C119     1.0000 0.94750  0.42410  0.67970  Biso   1.000  C
  H95      1.0000 0.90780  0.41880  0.69430  Biso   1.000  H
  C120     1.0000 0.95630  0.42820  0.62520  Biso   1.000  C
  H96      1.0000 0.92190  0.42550  0.60220  Biso   1.000  H
  Cu13     1.0000 0.80848  0.22464  0.72572  Biso   1.000  Cu
  Br13     1.0000 0.79768  0.33039  0.76232  Biso   1.000  Br
  Se25     1.0000 0.94688  0.25367  0.72466  Biso   1.000  Se
  Se26     1.0000 0.80129  0.11302  0.65152  Biso   1.000  Se
  N25      1.0000 0.86440  0.18280  0.77830  Biso   1.000  N
  C121     1.0000 0.92400  0.19690  0.77970  Biso   1.000  C
  C122     1.0000 0.96390  0.17320  0.81750  Biso   1.000  C
  H97      1.0000 0.00600  0.18390  0.81710  Biso   1.000  H
  C123     1.0000 0.94090  0.13380  0.85570  Biso   1.000  C
  H98      1.0000 0.96710  0.11660  0.88190  Biso   1.000  H
  C124     1.0000 0.87880  0.11990  0.85490  Biso   1.000  C
  H99      1.0000 0.86180  0.09300  0.88070  Biso   1.000  H
  C125     1.0000 0.84300  0.14510  0.81710  Biso   1.000  C
  H100     1.0000 0.80050  0.13600  0.81760  Biso   1.000  H
  N26      1.0000 0.81430  0.23830  0.64540  Biso   1.000  N
  C126     1.0000 0.81100  0.18890  0.61460  Biso   1.000  C
  C127     1.0000 0.81460  0.19580  0.56070  Biso   1.000  C
  H101     1.0000 0.81200  0.16110  0.53810  Biso   1.000  H
  C128     1.0000 0.82190  0.25340  0.53910  Biso   1.000  C
  H102     1.0000 0.82420  0.25810  0.50160  Biso   1.000  H
  C129     1.0000 0.82590  0.30250  0.57030  Biso   1.000  C
  H103     1.0000 0.83120  0.34220  0.55570  Biso   1.000  H
  C130     1.0000 0.82180  0.29370  0.62480  Biso   1.000  C
  H104     1.0000 0.82450  0.32810  0.64780  Biso   1.000  H
  Cu14     1.0000 0.30848  0.72464  0.22572  Biso   1.000  Cu
  Br14     1.0000 0.29768  0.83039  0.26232  Biso   1.000  Br
  Se27     1.0000 0.44688  0.75367  0.22466  Biso   1.000  Se
  Se28     1.0000 0.30129  0.61302  0.15152  Biso   1.000  Se
  N27      1.0000 0.36440  0.68280  0.27830  Biso   1.000  N
  C131     1.0000 0.42400  0.69690  0.27970  Biso   1.000  C
  C132     1.0000 0.46390  0.67320  0.31750  Biso   1.000  C
  H105     1.0000 0.50600  0.68390  0.31710  Biso   1.000  H
  C133     1.0000 0.44090  0.63380  0.35570  Biso   1.000  C
  H106     1.0000 0.46710  0.61660  0.38190  Biso   1.000  H
  C134     1.0000 0.37880  0.61990  0.35490  Biso   1.000  C
  H107     1.0000 0.36180  0.59300  0.38070  Biso   1.000  H
  C135     1.0000 0.34300  0.64510  0.31710  Biso   1.000  C
  H108     1.0000 0.30050  0.63600  0.31760  Biso   1.000  H
  N28      1.0000 0.31430  0.73830  0.14540  Biso   1.000  N
  C136     1.0000 0.31100  0.68890  0.11460  Biso   1.000  C
  C137     1.0000 0.31460  0.69580  0.06070  Biso   1.000  C
  H109     1.0000 0.31200  0.66110  0.03810  Biso   1.000  H
  C138     1.0000 0.32190  0.75340  0.03910  Biso   1.000  C
  H110     1.0000 0.32420  0.75810  0.00160  Biso   1.000  H
  C139     1.0000 0.32590  0.80250  0.07030  Biso   1.000  C
  H111     1.0000 0.33120  0.84220  0.05570  Biso   1.000  H
  C140     1.0000 0.32180  0.79370  0.12480  Biso   1.000  C
  H112     1.0000 0.32450  0.82810  0.14780  Biso   1.000  H
  Cu15     1.0000 0.69152  0.77536  0.22572  Biso   1.000  Cu
  Br15     1.0000 0.70232  0.66961  0.26232  Biso   1.000  Br
  Se29     1.0000 0.55312  0.74633  0.22466  Biso   1.000  Se
  Se30     1.0000 0.69871  0.88698  0.15152  Biso   1.000  Se
  N29      1.0000 0.63560  0.81720  0.27830  Biso   1.000  N
  C141     1.0000 0.57600  0.80310  0.27970  Biso   1.000  C
  C142     1.0000 0.53610  0.82680  0.31750  Biso   1.000  C
  H113     1.0000 0.49400  0.81610  0.31710  Biso   1.000  H
  C143     1.0000 0.55910  0.86620  0.35570  Biso   1.000  C
  H114     1.0000 0.53290  0.88340  0.38190  Biso   1.000  H
  C144     1.0000 0.62120  0.88010  0.35490  Biso   1.000  C
  H115     1.0000 0.63820  0.90700  0.38070  Biso   1.000  H
  C145     1.0000 0.65700  0.85490  0.31710  Biso   1.000  C
  H116     1.0000 0.69950  0.86400  0.31760  Biso   1.000  H
  N30      1.0000 0.68570  0.76170  0.14540  Biso   1.000  N
  C146     1.0000 0.68900  0.81110  0.11460  Biso   1.000  C
  C147     1.0000 0.68540  0.80420  0.06070  Biso   1.000  C
  H117     1.0000 0.68800  0.83890  0.03810  Biso   1.000  H
  C148     1.0000 0.67810  0.74660  0.03910  Biso   1.000  C
  H118     1.0000 0.67580  0.74190  0.00160  Biso   1.000  H
  C149     1.0000 0.67410  0.69750  0.07030  Biso   1.000  C
  H119     1.0000 0.66880  0.65780  0.05570  Biso   1.000  H
  C150     1.0000 0.67820  0.70630  0.12480  Biso   1.000  C
  H120     1.0000 0.67550  0.67190  0.14780  Biso   1.000  H
  Cu16     1.0000 0.19152  0.27536  0.72572  Biso   1.000  Cu
  Br16     1.0000 0.20232  0.16961  0.76232  Biso   1.000  Br
  Se31     1.0000 0.05312  0.24633  0.72466  Biso   1.000  Se
  Se32     1.0000 0.19871  0.38698  0.65152  Biso   1.000  Se
  N31      1.0000 0.13560  0.31720  0.77830  Biso   1.000  N
  C151     1.0000 0.07600  0.30310  0.77970  Biso   1.000  C
  C152     1.0000 0.03610  0.32680  0.81750  Biso   1.000  C
  H121     1.0000 0.99400  0.31610  0.81710  Biso   1.000  H
  C153     1.0000 0.05910  0.36620  0.85570  Biso   1.000  C
  H122     1.0000 0.03290  0.38340  0.88190  Biso   1.000  H
  C154     1.0000 0.12120  0.38010  0.85490  Biso   1.000  C
  H123     1.0000 0.13820  0.40700  0.88070  Biso   1.000  H
  C155     1.0000 0.15700  0.35490  0.81710  Biso   1.000  C
  H124     1.0000 0.19950  0.36400  0.81760  Biso   1.000  H
  N32      1.0000 0.18570  0.26170  0.64540  Biso   1.000  N
  C156     1.0000 0.18900  0.31110  0.61460  Biso   1.000  C
  C157     1.0000 0.18540  0.30420  0.56070  Biso   1.000  C
  H125     1.0000 0.18800  0.33890  0.53810  Biso   1.000  H
  C158     1.0000 0.17810  0.24660  0.53910  Biso   1.000  C
  H126     1.0000 0.17580  0.24190  0.50160  Biso   1.000  H
  C159     1.0000 0.17410  0.19750  0.57030  Biso   1.000  C
  H127     1.0000 0.16880  0.15780  0.55570  Biso   1.000  H
  C160     1.0000 0.17820  0.20630  0.62480  Biso   1.000  C
  H128     1.0000 0.17550  0.17190  0.64780  Biso   1.000  H
  Cu17     1.0000 0.30848  0.77536  0.72572  Biso   1.000  Cu
  Br17     1.0000 0.29768  0.66961  0.76232  Biso   1.000  Br
  Se33     1.0000 0.44688  0.74633  0.72466  Biso   1.000  Se
  Se34     1.0000 0.30129  0.88698  0.65152  Biso   1.000  Se
  N33      1.0000 0.36440  0.81720  0.77830  Biso   1.000  N
  C161     1.0000 0.42400  0.80310  0.77970  Biso   1.000  C
  C162     1.0000 0.46390  0.82680  0.81750  Biso   1.000  C
  H129     1.0000 0.50600  0.81610  0.81710  Biso   1.000  H
  C163     1.0000 0.44090  0.86620  0.85570  Biso   1.000  C
  H130     1.0000 0.46710  0.88340  0.88190  Biso   1.000  H
  C164     1.0000 0.37880  0.88010  0.85490  Biso   1.000  C
  H131     1.0000 0.36180  0.90700  0.88070  Biso   1.000  H
  C165     1.0000 0.34300  0.85490  0.81710  Biso   1.000  C
  H132     1.0000 0.30050  0.86400  0.81760  Biso   1.000  H
  N34      1.0000 0.31430  0.76170  0.64540  Biso   1.000  N
  C166     1.0000 0.31100  0.81110  0.61460  Biso   1.000  C
  C167     1.0000 0.31460  0.80420  0.56070  Biso   1.000  C
  H133     1.0000 0.31200  0.83890  0.53810  Biso   1.000  H
  C168     1.0000 0.32190  0.74660  0.53910  Biso   1.000  C
  H134     1.0000 0.32420  0.74190  0.50160  Biso   1.000  H
  C169     1.0000 0.32590  0.69750  0.57030  Biso   1.000  C
  H135     1.0000 0.33120  0.65780  0.55570  Biso   1.000  H
  C170     1.0000 0.32180  0.70630  0.62480  Biso   1.000  C
  H136     1.0000 0.32450  0.67190  0.64780  Biso   1.000  H
  Cu18     1.0000 0.80848  0.27536  0.22572  Biso   1.000  Cu
  Br18     1.0000 0.79768  0.16961  0.26232  Biso   1.000  Br
  Se35     1.0000 0.94688  0.24633  0.22466  Biso   1.000  Se
  Se36     1.0000 0.80129  0.38698  0.15152  Biso   1.000  Se
  N35      1.0000 0.86440  0.31720  0.27830  Biso   1.000  N
  C171     1.0000 0.92400  0.30310  0.27970  Biso   1.000  C
  C172     1.0000 0.96390  0.32680  0.31750  Biso   1.000  C
  H137     1.0000 0.00600  0.31610  0.31710  Biso   1.000  H
  C173     1.0000 0.94090  0.36620  0.35570  Biso   1.000  C
  H138     1.0000 0.96710  0.38340  0.38190  Biso   1.000  H
  C174     1.0000 0.87880  0.38010  0.35490  Biso   1.000  C
  H139     1.0000 0.86180  0.40700  0.38070  Biso   1.000  H
  C175     1.0000 0.84300  0.35490  0.31710  Biso   1.000  C
  H140     1.0000 0.80050  0.36400  0.31760  Biso   1.000  H
  N36      1.0000 0.81430  0.26170  0.14540  Biso   1.000  N
  C176     1.0000 0.81100  0.31110  0.11460  Biso   1.000  C
  C177     1.0000 0.81460  0.30420  0.06070  Biso   1.000  C
  H141     1.0000 0.81200  0.33890  0.03810  Biso   1.000  H
  C178     1.0000 0.82190  0.24660  0.03910  Biso   1.000  C
  H142     1.0000 0.82420  0.24190  0.00160  Biso   1.000  H
  C179     1.0000 0.82590  0.19750  0.07030  Biso   1.000  C
  H143     1.0000 0.83120  0.15780  0.05570  Biso   1.000  H
  C180     1.0000 0.82180  0.20630  0.12480  Biso   1.000  C
  H144     1.0000 0.82450  0.17190  0.14780  Biso   1.000  H
  Cu19     1.0000 0.19152  0.22464  0.22572  Biso   1.000  Cu
  Br19     1.0000 0.20232  0.33039  0.26232  Biso   1.000  Br
  Se37     1.0000 0.05312  0.25367  0.22466  Biso   1.000  Se
  Se38     1.0000 0.19871  0.11302  0.15152  Biso   1.000  Se
  N37      1.0000 0.13560  0.18280  0.27830  Biso   1.000  N
  C181     1.0000 0.07600  0.19690  0.27970  Biso   1.000  C
  C182     1.0000 0.03610  0.17320  0.31750  Biso   1.000  C
  H145     1.0000 0.99400  0.18390  0.31710  Biso   1.000  H
  C183     1.0000 0.05910  0.13380  0.35570  Biso   1.000  C
  H146     1.0000 0.03290  0.11660  0.38190  Biso   1.000  H
  C184     1.0000 0.12120  0.11990  0.35490  Biso   1.000  C
  H147     1.0000 0.13820  0.09300  0.38070  Biso   1.000  H
  C185     1.0000 0.15700  0.14510  0.31710  Biso   1.000  C
  H148     1.0000 0.19950  0.13600  0.31760  Biso   1.000  H
  N38      1.0000 0.18570  0.23830  0.14540  Biso   1.000  N
  C186     1.0000 0.18900  0.18890  0.11460  Biso   1.000  C
  C187     1.0000 0.18540  0.19580  0.06070  Biso   1.000  C
  H149     1.0000 0.18800  0.16110  0.03810  Biso   1.000  H
  C188     1.0000 0.17810  0.25340  0.03910  Biso   1.000  C
  H150     1.0000 0.17580  0.25810  0.00160  Biso   1.000  H
  C189     1.0000 0.17410  0.30250  0.07030  Biso   1.000  C
  H151     1.0000 0.16880  0.34220  0.05570  Biso   1.000  H
  C190     1.0000 0.17820  0.29370  0.12480  Biso   1.000  C
  H152     1.0000 0.17550  0.32810  0.14780  Biso   1.000  H
  Cu20     1.0000 0.69152  0.72464  0.72572  Biso   1.000  Cu
  Br20     1.0000 0.70232  0.83039  0.76232  Biso   1.000  Br
  Se39     1.0000 0.55312  0.75367  0.72466  Biso   1.000  Se
  Se40     1.0000 0.69871  0.61302  0.65152  Biso   1.000  Se
  N39      1.0000 0.63560  0.68280  0.77830  Biso   1.000  N
  C191     1.0000 0.57600  0.69690  0.77970  Biso   1.000  C
  C192     1.0000 0.53610  0.67320  0.81750  Biso   1.000  C
  H153     1.0000 0.49400  0.68390  0.81710  Biso   1.000  H
  C193     1.0000 0.55910  0.63380  0.85570  Biso   1.000  C
  H154     1.0000 0.53290  0.61660  0.88190  Biso   1.000  H
  C194     1.0000 0.62120  0.61990  0.85490  Biso   1.000  C
  H155     1.0000 0.63820  0.59300  0.88070  Biso   1.000  H
  C195     1.0000 0.65700  0.64510  0.81710  Biso   1.000  C
  H156     1.0000 0.69950  0.63600  0.81760  Biso   1.000  H
  N40      1.0000 0.68570  0.73830  0.64540  Biso   1.000  N
  C196     1.0000 0.68900  0.68890  0.61460  Biso   1.000  C
  C197     1.0000 0.68540  0.69580  0.56070  Biso   1.000  C
  H157     1.0000 0.68800  0.66110  0.53810  Biso   1.000  H
  C198     1.0000 0.67810  0.75340  0.53910  Biso   1.000  C
  H158     1.0000 0.67580  0.75810  0.50160  Biso   1.000  H
  C199     1.0000 0.67410  0.80250  0.57030  Biso   1.000  C
  H159     1.0000 0.66880  0.84220  0.55570  Biso   1.000  H
  C200     1.0000 0.67820  0.79370  0.62480  Biso   1.000  C
  H160     1.0000 0.67550  0.82810  0.64780  Biso   1.000  H
  Cu21     1.0000 0.47464  0.94152  0.52428  Biso   1.000  Cu
  Br21     1.0000 0.58039  0.95232  0.48768  Biso   1.000  Br
  Se41     1.0000 0.50367  0.80312  0.52534  Biso   1.000  Se
  Se42     1.0000 0.36302  0.94871  0.59848  Biso   1.000  Se
  N41      1.0000 0.43280  0.88560  0.47170  Biso   1.000  N
  C201     1.0000 0.44690  0.82600  0.47030  Biso   1.000  C
  C202     1.0000 0.42320  0.78610  0.43250  Biso   1.000  C
  H161     1.0000 0.43390  0.74400  0.43290  Biso   1.000  H
  C203     1.0000 0.38380  0.80910  0.39430  Biso   1.000  C
  H162     1.0000 0.36660  0.78290  0.36810  Biso   1.000  H
  C204     1.0000 0.36990  0.87120  0.39510  Biso   1.000  C
  H163     1.0000 0.34300  0.88820  0.36930  Biso   1.000  H
  C205     1.0000 0.39510  0.90700  0.43290  Biso   1.000  C
  H164     1.0000 0.38600  0.94950  0.43240  Biso   1.000  H
  N42      1.0000 0.48830  0.93570  0.60460  Biso   1.000  N
  C206     1.0000 0.43890  0.93900  0.63540  Biso   1.000  C
  C207     1.0000 0.44580  0.93540  0.68930  Biso   1.000  C
  H165     1.0000 0.41110  0.93800  0.71190  Biso   1.000  H
  C208     1.0000 0.50340  0.92810  0.71090  Biso   1.000  C
  H166     1.0000 0.50810  0.92580  0.74840  Biso   1.000  H
  C209     1.0000 0.55250  0.92410  0.67970  Biso   1.000  C
  H167     1.0000 0.59220  0.91880  0.69430  Biso   1.000  H
  C210     1.0000 0.54370  0.92820  0.62520  Biso   1.000  C
  H168     1.0000 0.57810  0.92550  0.60220  Biso   1.000  H
  Cu22     1.0000 0.97464  0.44152  0.02428  Biso   1.000  Cu
  Br22     1.0000 0.08039  0.45232  0.98768  Biso   1.000  Br
  Se43     1.0000 0.00367  0.30312  0.02534  Biso   1.000  Se
  Se44     1.0000 0.86302  0.44871  0.09848  Biso   1.000  Se
  N43      1.0000 0.93280  0.38560  0.97170  Biso   1.000  N
  C211     1.0000 0.94690  0.32600  0.97030  Biso   1.000  C
  C212     1.0000 0.92320  0.28610  0.93250  Biso   1.000  C
  H169     1.0000 0.93390  0.24400  0.93290  Biso   1.000  H
  C213     1.0000 0.88380  0.30910  0.89430  Biso   1.000  C
  H170     1.0000 0.86660  0.28290  0.86810  Biso   1.000  H
  C214     1.0000 0.86990  0.37120  0.89510  Biso   1.000  C
  H171     1.0000 0.84300  0.38820  0.86930  Biso   1.000  H
  C215     1.0000 0.89510  0.40700  0.93290  Biso   1.000  C
  H172     1.0000 0.88600  0.44950  0.93240  Biso   1.000  H
  N44      1.0000 0.98830  0.43570  0.10460  Biso   1.000  N
  C216     1.0000 0.93890  0.43900  0.13540  Biso   1.000  C
  C217     1.0000 0.94580  0.43540  0.18930  Biso   1.000  C
  H173     1.0000 0.91110  0.43800  0.21190  Biso   1.000  H
  C218     1.0000 0.00340  0.42810  0.21090  Biso   1.000  C
  H174     1.0000 0.00810  0.42580  0.24840  Biso   1.000  H
  C219     1.0000 0.05250  0.42410  0.17970  Biso   1.000  C
  H175     1.0000 0.09220  0.41880  0.19430  Biso   1.000  H
  C220     1.0000 0.04370  0.42820  0.12520  Biso   1.000  C
  H176     1.0000 0.07810  0.42550  0.10220  Biso   1.000  H
  Cu23     1.0000 0.02536  0.05848  0.02428  Biso   1.000  Cu
  Br23     1.0000 0.91961  0.04768  0.98768  Biso   1.000  Br
  Se45     1.0000 0.99633  0.19688  0.02534  Biso   1.000  Se
  Se46     1.0000 0.13698  0.05129  0.09848  Biso   1.000  Se
  N45      1.0000 0.06720  0.11440  0.97170  Biso   1.000  N
  C221     1.0000 0.05310  0.17400  0.97030  Biso   1.000  C
  C222     1.0000 0.07680  0.21390  0.93250  Biso   1.000  C
  H177     1.0000 0.06610  0.25600  0.93290  Biso   1.000  H
  C223     1.0000 0.11620  0.19090  0.89430  Biso   1.000  C
  H178     1.0000 0.13340  0.21710  0.86810  Biso   1.000  H
  C224     1.0000 0.13010  0.12880  0.89510  Biso   1.000  C
  H179     1.0000 0.15700  0.11180  0.86930  Biso   1.000  H
  C225     1.0000 0.10490  0.09300  0.93290  Biso   1.000  C
  H180     1.0000 0.11400  0.05050  0.93240  Biso   1.000  H
  N46      1.0000 0.01170  0.06430  0.10460  Biso   1.000  N
  C226     1.0000 0.06110  0.06100  0.13540  Biso   1.000  C
  C227     1.0000 0.05420  0.06460  0.18930  Biso   1.000  C
  H181     1.0000 0.08890  0.06200  0.21190  Biso   1.000  H
  C228     1.0000 0.99660  0.07190  0.21090  Biso   1.000  C
  H182     1.0000 0.99190  0.07420  0.24840  Biso   1.000  H
  C229     1.0000 0.94750  0.07590  0.17970  Biso   1.000  C
  H183     1.0000 0.90780  0.08120  0.19430  Biso   1.000  H
  C230     1.0000 0.95630  0.07180  0.12520  Biso   1.000  C
  H184     1.0000 0.92190  0.07450  0.10220  Biso   1.000  H
  Cu24     1.0000 0.52536  0.55848  0.52428  Biso   1.000  Cu
  Br24     1.0000 0.41961  0.54768  0.48768  Biso   1.000  Br
  Se47     1.0000 0.49633  0.69688  0.52534  Biso   1.000  Se
  Se48     1.0000 0.63698  0.55129  0.59848  Biso   1.000  Se
  N47      1.0000 0.56720  0.61440  0.47170  Biso   1.000  N
  C231     1.0000 0.55310  0.67400  0.47030  Biso   1.000  C
  C232     1.0000 0.57680  0.71390  0.43250  Biso   1.000  C
  H185     1.0000 0.56610  0.75600  0.43290  Biso   1.000  H
  C233     1.0000 0.61620  0.69090  0.39430  Biso   1.000  C
  H186     1.0000 0.63340  0.71710  0.36810  Biso   1.000  H
  C234     1.0000 0.63010  0.62880  0.39510  Biso   1.000  C
  H187     1.0000 0.65700  0.61180  0.36930  Biso   1.000  H
  C235     1.0000 0.60490  0.59300  0.43290  Biso   1.000  C
  H188     1.0000 0.61400  0.55050  0.43240  Biso   1.000  H
  N48      1.0000 0.51170  0.56430  0.60460  Biso   1.000  N
  C236     1.0000 0.56110  0.56100  0.63540  Biso   1.000  C
  C237     1.0000 0.55420  0.56460  0.68930  Biso   1.000  C
  H189     1.0000 0.58890  0.56200  0.71190  Biso   1.000  H
  C238     1.0000 0.49660  0.57190  0.71090  Biso   1.000  C
  H190     1.0000 0.49190  0.57420  0.74840  Biso   1.000  H
  C239     1.0000 0.44750  0.57590  0.67970  Biso   1.000  C
  H191     1.0000 0.40780  0.58120  0.69430  Biso   1.000  H
  C240     1.0000 0.45630  0.57180  0.62520  Biso   1.000  C
  H192     1.0000 0.42190  0.57450  0.60220  Biso   1.000  H
  Cu25     1.0000 0.69152  0.22464  0.27428  Biso   1.000  Cu
  Br25     1.0000 0.70232  0.33039  0.23768  Biso   1.000  Br
  Se49     1.0000 0.55312  0.25367  0.27534  Biso   1.000  Se
  Se50     1.0000 0.69871  0.11302  0.34848  Biso   1.000  Se
  N49      1.0000 0.63560  0.18280  0.22170  Biso   1.000  N
  C241     1.0000 0.57600  0.19690  0.22030  Biso   1.000  C
  C242     1.0000 0.53610  0.17320  0.18250  Biso   1.000  C
  H193     1.0000 0.49400  0.18390  0.18290  Biso   1.000  H
  C243     1.0000 0.55910  0.13380  0.14430  Biso   1.000  C
  H194     1.0000 0.53290  0.11660  0.11810  Biso   1.000  H
  C244     1.0000 0.62120  0.11990  0.14510  Biso   1.000  C
  H195     1.0000 0.63820  0.09300  0.11930  Biso   1.000  H
  C245     1.0000 0.65700  0.14510  0.18290  Biso   1.000  C
  H196     1.0000 0.69950  0.13600  0.18240  Biso   1.000  H
  N50      1.0000 0.68570  0.23830  0.35460  Biso   1.000  N
  C246     1.0000 0.68900  0.18890  0.38540  Biso   1.000  C
  C247     1.0000 0.68540  0.19580  0.43930  Biso   1.000  C
  H197     1.0000 0.68800  0.16110  0.46190  Biso   1.000  H
  C248     1.0000 0.67810  0.25340  0.46090  Biso   1.000  C
  H198     1.0000 0.67580  0.25810  0.49840  Biso   1.000  H
  C249     1.0000 0.67410  0.30250  0.42970  Biso   1.000  C
  H199     1.0000 0.66880  0.34220  0.44430  Biso   1.000  H
  C250     1.0000 0.67820  0.29370  0.37520  Biso   1.000  C
  H200     1.0000 0.67550  0.32810  0.35220  Biso   1.000  H
  Cu26     1.0000 0.19152  0.72464  0.77428  Biso   1.000  Cu
  Br26     1.0000 0.20232  0.83039  0.73768  Biso   1.000  Br
  Se51     1.0000 0.05312  0.75367  0.77534  Biso   1.000  Se
  Se52     1.0000 0.19871  0.61302  0.84848  Biso   1.000  Se
  N51      1.0000 0.13560  0.68280  0.72170  Biso   1.000  N
  C251     1.0000 0.07600  0.69690  0.72030  Biso   1.000  C
  C252     1.0000 0.03610  0.67320  0.68250  Biso   1.000  C
  H201     1.0000 0.99400  0.68390  0.68290  Biso   1.000  H
  C253     1.0000 0.05910  0.63380  0.64430  Biso   1.000  C
  H202     1.0000 0.03290  0.61660  0.61810  Biso   1.000  H
  C254     1.0000 0.12120  0.61990  0.64510  Biso   1.000  C
  H203     1.0000 0.13820  0.59300  0.61930  Biso   1.000  H
  C255     1.0000 0.15700  0.64510  0.68290  Biso   1.000  C
  H204     1.0000 0.19950  0.63600  0.68240  Biso   1.000  H
  N52      1.0000 0.18570  0.73830  0.85460  Biso   1.000  N
  C256     1.0000 0.18900  0.68890  0.88540  Biso   1.000  C
  C257     1.0000 0.18540  0.69580  0.93930  Biso   1.000  C
  H205     1.0000 0.18800  0.66110  0.96190  Biso   1.000  H
  C258     1.0000 0.17810  0.75340  0.96090  Biso   1.000  C
  H206     1.0000 0.17580  0.75810  0.99840  Biso   1.000  H
  C259     1.0000 0.17410  0.80250  0.92970  Biso   1.000  C
  H207     1.0000 0.16880  0.84220  0.94430  Biso   1.000  H
  C260     1.0000 0.17820  0.79370  0.87520  Biso   1.000  C
  H208     1.0000 0.17550  0.82810  0.85220  Biso   1.000  H
  Cu27     1.0000 0.80848  0.77536  0.77428  Biso   1.000  Cu
  Br27     1.0000 0.79768  0.66961  0.73768  Biso   1.000  Br
  Se53     1.0000 0.94688  0.74633  0.77534  Biso   1.000  Se
  Se54     1.0000 0.80129  0.88698  0.84848  Biso   1.000  Se
  N53      1.0000 0.86440  0.81720  0.72170  Biso   1.000  N
  C261     1.0000 0.92400  0.80310  0.72030  Biso   1.000  C
  C262     1.0000 0.96390  0.82680  0.68250  Biso   1.000  C
  H209     1.0000 0.00600  0.81610  0.68290  Biso   1.000  H
  C263     1.0000 0.94090  0.86620  0.64430  Biso   1.000  C
  H210     1.0000 0.96710  0.88340  0.61810  Biso   1.000  H
  C264     1.0000 0.87880  0.88010  0.64510  Biso   1.000  C
  H211     1.0000 0.86180  0.90700  0.61930  Biso   1.000  H
  C265     1.0000 0.84300  0.85490  0.68290  Biso   1.000  C
  H212     1.0000 0.80050  0.86400  0.68240  Biso   1.000  H
  N54      1.0000 0.81430  0.76170  0.85460  Biso   1.000  N
  C266     1.0000 0.81100  0.81110  0.88540  Biso   1.000  C
  C267     1.0000 0.81460  0.80420  0.93930  Biso   1.000  C
  H213     1.0000 0.81200  0.83890  0.96190  Biso   1.000  H
  C268     1.0000 0.82190  0.74660  0.96090  Biso   1.000  C
  H214     1.0000 0.82420  0.74190  0.99840  Biso   1.000  H
  C269     1.0000 0.82590  0.69750  0.92970  Biso   1.000  C
  H215     1.0000 0.83120  0.65780  0.94430  Biso   1.000  H
  C270     1.0000 0.82180  0.70630  0.87520  Biso   1.000  C
  H216     1.0000 0.82450  0.67190  0.85220  Biso   1.000  H
  Cu28     1.0000 0.30848  0.27536  0.27428  Biso   1.000  Cu
  Br28     1.0000 0.29768  0.16961  0.23768  Biso   1.000  Br
  Se55     1.0000 0.44688  0.24633  0.27534  Biso   1.000  Se
  Se56     1.0000 0.30129  0.38698  0.34848  Biso   1.000  Se
  N55      1.0000 0.36440  0.31720  0.22170  Biso   1.000  N
  C271     1.0000 0.42400  0.30310  0.22030  Biso   1.000  C
  C272     1.0000 0.46390  0.32680  0.18250  Biso   1.000  C
  H217     1.0000 0.50600  0.31610  0.18290  Biso   1.000  H
  C273     1.0000 0.44090  0.36620  0.14430  Biso   1.000  C
  H218     1.0000 0.46710  0.38340  0.11810  Biso   1.000  H
  C274     1.0000 0.37880  0.38010  0.14510  Biso   1.000  C
  H219     1.0000 0.36180  0.40700  0.11930  Biso   1.000  H
  C275     1.0000 0.34300  0.35490  0.18290  Biso   1.000  C
  H220     1.0000 0.30050  0.36400  0.18240  Biso   1.000  H
  N56      1.0000 0.31430  0.26170  0.35460  Biso   1.000  N
  C276     1.0000 0.31100  0.31110  0.38540  Biso   1.000  C
  C277     1.0000 0.31460  0.30420  0.43930  Biso   1.000  C
  H221     1.0000 0.31200  0.33890  0.46190  Biso   1.000  H
  C278     1.0000 0.32190  0.24660  0.46090  Biso   1.000  C
  H222     1.0000 0.32420  0.24190  0.49840  Biso   1.000  H
  C279     1.0000 0.32590  0.19750  0.42970  Biso   1.000  C
  H223     1.0000 0.33120  0.15780  0.44430  Biso   1.000  H
  C280     1.0000 0.32180  0.20630  0.37520  Biso   1.000  C
  H224     1.0000 0.32450  0.17190  0.35220  Biso   1.000  H
  Cu29     1.0000 0.52536  0.05848  0.47572  Biso   1.000  Cu
  Br29     1.0000 0.41961  0.04768  0.51232  Biso   1.000  Br
  Se57     1.0000 0.49633  0.19688  0.47466  Biso   1.000  Se
  Se58     1.0000 0.63698  0.05129  0.40152  Biso   1.000  Se
  N57      1.0000 0.56720  0.11440  0.52830  Biso   1.000  N
  C281     1.0000 0.55310  0.17400  0.52970  Biso   1.000  C
  C282     1.0000 0.57680  0.21390  0.56750  Biso   1.000  C
  H225     1.0000 0.56610  0.25600  0.56710  Biso   1.000  H
  C283     1.0000 0.61620  0.19090  0.60570  Biso   1.000  C
  H226     1.0000 0.63340  0.21710  0.63190  Biso   1.000  H
  C284     1.0000 0.63010  0.12880  0.60490  Biso   1.000  C
  H227     1.0000 0.65700  0.11180  0.63070  Biso   1.000  H
  C285     1.0000 0.60490  0.09300  0.56710  Biso   1.000  C
  H228     1.0000 0.61400  0.05050  0.56760  Biso   1.000  H
  N58      1.0000 0.51170  0.06430  0.39540  Biso   1.000  N
  C286     1.0000 0.56110  0.06100  0.36460  Biso   1.000  C
  C287     1.0000 0.55420  0.06460  0.31070  Biso   1.000  C
  H229     1.0000 0.58890  0.06200  0.28810  Biso   1.000  H
  C288     1.0000 0.49660  0.07190  0.28910  Biso   1.000  C
  H230     1.0000 0.49190  0.07420  0.25160  Biso   1.000  H
  C289     1.0000 0.44750  0.07590  0.32030  Biso   1.000  C
  H231     1.0000 0.40780  0.08120  0.30570  Biso   1.000  H
  C290     1.0000 0.45630  0.07180  0.37480  Biso   1.000  C
  H232     1.0000 0.42190  0.07450  0.39780  Biso   1.000  H
  Cu30     1.0000 0.02536  0.55848  0.97572  Biso   1.000  Cu
  Br30     1.0000 0.91961  0.54768  0.01232  Biso   1.000  Br
  Se59     1.0000 0.99633  0.69688  0.97466  Biso   1.000  Se
  Se60     1.0000 0.13698  0.55129  0.90152  Biso   1.000  Se
  N59      1.0000 0.06720  0.61440  0.02830  Biso   1.000  N
  C291     1.0000 0.05310  0.67400  0.02970  Biso   1.000  C
  C292     1.0000 0.07680  0.71390  0.06750  Biso   1.000  C
  H233     1.0000 0.06610  0.75600  0.06710  Biso   1.000  H
  C293     1.0000 0.11620  0.69090  0.10570  Biso   1.000  C
  H234     1.0000 0.13340  0.71710  0.13190  Biso   1.000  H
  C294     1.0000 0.13010  0.62880  0.10490  Biso   1.000  C
  H235     1.0000 0.15700  0.61180  0.13070  Biso   1.000  H
  C295     1.0000 0.10490  0.59300  0.06710  Biso   1.000  C
  H236     1.0000 0.11400  0.55050  0.06760  Biso   1.000  H
  N60      1.0000 0.01170  0.56430  0.89540  Biso   1.000  N
  C296     1.0000 0.06110  0.56100  0.86460  Biso   1.000  C
  C297     1.0000 0.05420  0.56460  0.81070  Biso   1.000  C
  H237     1.0000 0.08890  0.56200  0.78810  Biso   1.000  H
  C298     1.0000 0.99660  0.57190  0.78910  Biso   1.000  C
  H238     1.0000 0.99190  0.57420  0.75160  Biso   1.000  H
  C299     1.0000 0.94750  0.57590  0.82030  Biso   1.000  C
  H239     1.0000 0.90780  0.58120  0.80570  Biso   1.000  H
  C300     1.0000 0.95630  0.57180  0.87480  Biso   1.000  C
  H240     1.0000 0.92190  0.57450  0.89780  Biso   1.000  H
  Cu31     1.0000 0.97464  0.94152  0.97572  Biso   1.000  Cu
  Br31     1.0000 0.08039  0.95232  0.01232  Biso   1.000  Br
  Se61     1.0000 0.00367  0.80312  0.97466  Biso   1.000  Se
  Se62     1.0000 0.86302  0.94871  0.90152  Biso   1.000  Se
  N61      1.0000 0.93280  0.88560  0.02830  Biso   1.000  N
  C301     1.0000 0.94690  0.82600  0.02970  Biso   1.000  C
  C302     1.0000 0.92320  0.78610  0.06750  Biso   1.000  C
  H241     1.0000 0.93390  0.74400  0.06710  Biso   1.000  H
  C303     1.0000 0.88380  0.80910  0.10570  Biso   1.000  C
  H242     1.0000 0.86660  0.78290  0.13190  Biso   1.000  H
  C304     1.0000 0.86990  0.87120  0.10490  Biso   1.000  C
  H243     1.0000 0.84300  0.88820  0.13070  Biso   1.000  H
  C305     1.0000 0.89510  0.90700  0.06710  Biso   1.000  C
  H244     1.0000 0.88600  0.94950  0.06760  Biso   1.000  H
  N62      1.0000 0.98830  0.93570  0.89540  Biso   1.000  N
  C306     1.0000 0.93890  0.93900  0.86460  Biso   1.000  C
  C307     1.0000 0.94580  0.93540  0.81070  Biso   1.000  C
  H245     1.0000 0.91110  0.93800  0.78810  Biso   1.000  H
  C308     1.0000 0.00340  0.92810  0.78910  Biso   1.000  C
  H246     1.0000 0.00810  0.92580  0.75160  Biso   1.000  H
  C309     1.0000 0.05250  0.92410  0.82030  Biso   1.000  C
  H247     1.0000 0.09220  0.91880  0.80570  Biso   1.000  H
  C310     1.0000 0.04370  0.92820  0.87480  Biso   1.000  C
  H248     1.0000 0.07810  0.92550  0.89780  Biso   1.000  H
  Cu32     1.0000 0.47464  0.44152  0.47572  Biso   1.000  Cu
  Br32     1.0000 0.58039  0.45232  0.51232  Biso   1.000  Br
  Se63     1.0000 0.50367  0.30312  0.47466  Biso   1.000  Se
  Se64     1.0000 0.36302  0.44871  0.40152  Biso   1.000  Se
  N63      1.0000 0.43280  0.38560  0.52830  Biso   1.000  N
  C311     1.0000 0.44690  0.32600  0.52970  Biso   1.000  C
  C312     1.0000 0.42320  0.28610  0.56750  Biso   1.000  C
  H249     1.0000 0.43390  0.24400  0.56710  Biso   1.000  H
  C313     1.0000 0.38380  0.30910  0.60570  Biso   1.000  C
  H250     1.0000 0.36660  0.28290  0.63190  Biso   1.000  H
  C314     1.0000 0.36990  0.37120  0.60490  Biso   1.000  C
  H251     1.0000 0.34300  0.38820  0.63070  Biso   1.000  H
  C315     1.0000 0.39510  0.40700  0.56710  Biso   1.000  C
  H252     1.0000 0.38600  0.44950  0.56760  Biso   1.000  H
  N64      1.0000 0.48830  0.43570  0.39540  Biso   1.000  N
  C316     1.0000 0.43890  0.43900  0.36460  Biso   1.000  C
  C317     1.0000 0.44580  0.43540  0.31070  Biso   1.000  C
  H253     1.0000 0.41110  0.43800  0.28810  Biso   1.000  H
  C318     1.0000 0.50340  0.42810  0.28910  Biso   1.000  C
  H254     1.0000 0.50810  0.42580  0.25160  Biso   1.000  H
  C319     1.0000 0.55250  0.42410  0.32030  Biso   1.000  C
  H255     1.0000 0.59220  0.41880  0.30570  Biso   1.000  H
  C320     1.0000 0.54370  0.42820  0.37480  Biso   1.000  C
  H256     1.0000 0.57810  0.42550  0.39780  Biso   1.000  H
