data_image0
_cell_length_a       28.9341
_cell_length_b       28.9341
_cell_length_c       10.5123
_cell_angle_alpha    90
_cell_angle_beta     90
_cell_angle_gamma    90

_symmetry_space_group_name_H-M    "P 1"
_symmetry_int_tables_number       1

loop_
  _symmetry_equiv_pos_as_xyz
  'x, y, z'

loop_
  _atom_site_label
  _atom_site_occupancy
  _atom_site_fract_x
  _atom_site_fract_y
  _atom_site_fract_z
  _atom_site_thermal_displace_type
  _atom_site_B_iso_or_equiv
  _atom_site_type_symbol
  Y1       1.0000 0.39105  0.81662  0.03552  Biso   1.000  Y
  C1       1.0000 0.45812  0.71834  0.99060  Biso   1.000  C
  C2       1.0000 0.50107  0.71897  0.91690  Biso   1.000  C
  C3       1.0000 0.52027  0.75293  0.84670  Biso   1.000  C
  H1       1.0000 0.50780  0.78290  0.83280  Biso   1.000  H
  C4       1.0000 0.56244  0.73560  0.79730  Biso   1.000  C
  H2       1.0000 0.58390  0.75160  0.74490  Biso   1.000  H
  C5       1.0000 0.56599  0.69185  0.83960  Biso   1.000  C
  C6       1.0000 0.60234  0.65717  0.81470  Biso   1.000  C
  C7       1.0000 0.32472  0.72327  0.98400  Biso   1.000  C
  C8       1.0000 0.28261  0.70281  0.92730  Biso   1.000  C
  C9       1.0000 0.27097  0.65788  0.90930  Biso   1.000  C
  H3       1.0000 0.28770  0.63160  0.93740  Biso   1.000  H
  C10      1.0000 0.49061  0.87816  0.99950  Biso   1.000  C
  H4       1.0000 0.48850  0.87750  0.08960  Biso   1.000  H
  C11      1.0000 0.52909  0.89920  0.94380  Biso   1.000  C
  H5       1.0000 0.55280  0.91220  0.99510  Biso   1.000  H
  C12      1.0000 0.53202  0.90080  0.81280  Biso   1.000  C
  H6       1.0000 0.55780  0.91510  0.77320  Biso   1.000  H
  C13      1.0000 0.49743  0.88143  0.73910  Biso   1.000  C
  C14      1.0000 0.49700  0.88319  0.60200  Biso   1.000  C
  H7       1.0000 0.52250  0.89650  0.55840  Biso   1.000  H
  C15      1.0000 0.46152  0.86648  0.53530  Biso   1.000  C
  H8       1.0000 0.46210  0.86820  0.44500  Biso   1.000  H
  C16      1.0000 0.42326  0.84638  0.59640  Biso   1.000  C
  C17      1.0000 0.38370  0.83001  0.53150  Biso   1.000  C
  H9       1.0000 0.38280  0.83100  0.44120  Biso   1.000  H
  C18      1.0000 0.34700  0.81290  0.59650  Biso   1.000  C
  H10      1.0000 0.31990  0.80300  0.55310  Biso   1.000  H
  C19      1.0000 0.34996  0.81023  0.72950  Biso   1.000  C
  H11      1.0000 0.32440  0.79790  0.77490  Biso   1.000  H
  C20      1.0000 0.42248  0.84281  0.73130  Biso   1.000  C
  C21      1.0000 0.46014  0.86118  0.80320  Biso   1.000  C
  N1       1.0000 0.45734  0.85927  0.93250  Biso   1.000  N
  N2       1.0000 0.38672  0.82399  0.79560  Biso   1.000  N
  O1       1.0000 0.44873  0.68365  0.05730  Biso   1.000  O
  O2       1.0000 0.43368  0.75465  0.98230  Biso   1.000  O
  O3       1.0000 0.52914  0.68075  0.91620  Biso   1.000  O
  O4       1.0000 0.60206  0.61794  0.86510  Biso   1.000  O
  O5       1.0000 0.63376  0.67031  0.74020  Biso   1.000  O
  O6       1.0000 0.33082  0.76610  0.97890  Biso   1.000  O
  O7       1.0000 0.35143  0.69380  0.03230  Biso   1.000  O
  Y2       1.0000 0.89105  0.31662  0.53552  Biso   1.000  Y
  C22      1.0000 0.95812  0.21834  0.49060  Biso   1.000  C
  C23      1.0000 0.00107  0.21897  0.41690  Biso   1.000  C
  C24      1.0000 0.02027  0.25293  0.34670  Biso   1.000  C
  H12      1.0000 0.00780  0.28290  0.33280  Biso   1.000  H
  C25      1.0000 0.06244  0.23560  0.29730  Biso   1.000  C
  H13      1.0000 0.08390  0.25160  0.24490  Biso   1.000  H
  C26      1.0000 0.06599  0.19185  0.33960  Biso   1.000  C
  C27      1.0000 0.10234  0.15717  0.31470  Biso   1.000  C
  C28      1.0000 0.82472  0.22327  0.48400  Biso   1.000  C
  C29      1.0000 0.78261  0.20281  0.42730  Biso   1.000  C
  C30      1.0000 0.77097  0.15788  0.40930  Biso   1.000  C
  H14      1.0000 0.78770  0.13160  0.43740  Biso   1.000  H
  C31      1.0000 0.99061  0.37816  0.49950  Biso   1.000  C
  H15      1.0000 0.98850  0.37750  0.58960  Biso   1.000  H
  C32      1.0000 0.02909  0.39920  0.44380  Biso   1.000  C
  H16      1.0000 0.05280  0.41220  0.49510  Biso   1.000  H
  C33      1.0000 0.03202  0.40080  0.31280  Biso   1.000  C
  H17      1.0000 0.05780  0.41510  0.27320  Biso   1.000  H
  C34      1.0000 0.99743  0.38143  0.23910  Biso   1.000  C
  C35      1.0000 0.99700  0.38319  0.10200  Biso   1.000  C
  H18      1.0000 0.02250  0.39650  0.05840  Biso   1.000  H
  C36      1.0000 0.96152  0.36648  0.03530  Biso   1.000  C
  H19      1.0000 0.96210  0.36820  0.94500  Biso   1.000  H
  C37      1.0000 0.92326  0.34638  0.09640  Biso   1.000  C
  C38      1.0000 0.88370  0.33001  0.03150  Biso   1.000  C
  H20      1.0000 0.88280  0.33100  0.94120  Biso   1.000  H
  C39      1.0000 0.84700  0.31290  0.09650  Biso   1.000  C
  H21      1.0000 0.81990  0.30300  0.05310  Biso   1.000  H
  C40      1.0000 0.84996  0.31023  0.22950  Biso   1.000  C
  H22      1.0000 0.82440  0.29790  0.27490  Biso   1.000  H
  C41      1.0000 0.92248  0.34281  0.23130  Biso   1.000  C
  C42      1.0000 0.96014  0.36118  0.30320  Biso   1.000  C
  N3       1.0000 0.95734  0.35927  0.43250  Biso   1.000  N
  N4       1.0000 0.88672  0.32399  0.29560  Biso   1.000  N
  O8       1.0000 0.94873  0.18365  0.55730  Biso   1.000  O
  O9       1.0000 0.93368  0.25465  0.48230  Biso   1.000  O
  O10      1.0000 0.02914  0.18075  0.41620  Biso   1.000  O
  O11      1.0000 0.10206  0.11794  0.36510  Biso   1.000  O
  O12      1.0000 0.13376  0.17031  0.24020  Biso   1.000  O
  O13      1.0000 0.83082  0.26610  0.47890  Biso   1.000  O
  O14      1.0000 0.85143  0.19380  0.53230  Biso   1.000  O
  Y3       1.0000 0.60895  0.18338  0.03552  Biso   1.000  Y
  C43      1.0000 0.54188  0.28166  0.99060  Biso   1.000  C
  C44      1.0000 0.49893  0.28103  0.91690  Biso   1.000  C
  C45      1.0000 0.47973  0.24707  0.84670  Biso   1.000  C
  H23      1.0000 0.49220  0.21710  0.83280  Biso   1.000  H
  C46      1.0000 0.43756  0.26440  0.79730  Biso   1.000  C
  H24      1.0000 0.41610  0.24840  0.74490  Biso   1.000  H
  C47      1.0000 0.43401  0.30815  0.83960  Biso   1.000  C
  C48      1.0000 0.39766  0.34283  0.81470  Biso   1.000  C
  C49      1.0000 0.67528  0.27673  0.98400  Biso   1.000  C
  C50      1.0000 0.71739  0.29719  0.92730  Biso   1.000  C
  C51      1.0000 0.72903  0.34212  0.90930  Biso   1.000  C
  H25      1.0000 0.71230  0.36840  0.93740  Biso   1.000  H
  C52      1.0000 0.50939  0.12184  0.99950  Biso   1.000  C
  H26      1.0000 0.51150  0.12250  0.08960  Biso   1.000  H
  C53      1.0000 0.47091  0.10080  0.94380  Biso   1.000  C
  H27      1.0000 0.44720  0.08780  0.99510  Biso   1.000  H
  C54      1.0000 0.46798  0.09920  0.81280  Biso   1.000  C
  H28      1.0000 0.44220  0.08490  0.77320  Biso   1.000  H
  C55      1.0000 0.50257  0.11857  0.73910  Biso   1.000  C
  C56      1.0000 0.50300  0.11681  0.60200  Biso   1.000  C
  H29      1.0000 0.47750  0.10350  0.55840  Biso   1.000  H
  C57      1.0000 0.53848  0.13352  0.53530  Biso   1.000  C
  H30      1.0000 0.53790  0.13180  0.44500  Biso   1.000  H
  C58      1.0000 0.57674  0.15362  0.59640  Biso   1.000  C
  C59      1.0000 0.61630  0.16999  0.53150  Biso   1.000  C
  H31      1.0000 0.61720  0.16900  0.44120  Biso   1.000  H
  C60      1.0000 0.65300  0.18710  0.59650  Biso   1.000  C
  H32      1.0000 0.68010  0.19700  0.55310  Biso   1.000  H
  C61      1.0000 0.65004  0.18977  0.72950  Biso   1.000  C
  H33      1.0000 0.67560  0.20210  0.77490  Biso   1.000  H
  C62      1.0000 0.57752  0.15719  0.73130  Biso   1.000  C
  C63      1.0000 0.53986  0.13882  0.80320  Biso   1.000  C
  N5       1.0000 0.54266  0.14073  0.93250  Biso   1.000  N
  N6       1.0000 0.61328  0.17601  0.79560  Biso   1.000  N
  O15      1.0000 0.55127  0.31635  0.05730  Biso   1.000  O
  O16      1.0000 0.56632  0.24535  0.98230  Biso   1.000  O
  O17      1.0000 0.47086  0.31925  0.91620  Biso   1.000  O
  O18      1.0000 0.39794  0.38206  0.86510  Biso   1.000  O
  O19      1.0000 0.36624  0.32969  0.74020  Biso   1.000  O
  O20      1.0000 0.66918  0.23390  0.97890  Biso   1.000  O
  O21      1.0000 0.64857  0.30620  0.03230  Biso   1.000  O
  Y4       1.0000 0.10895  0.68338  0.53552  Biso   1.000  Y
  C64      1.0000 0.04188  0.78166  0.49060  Biso   1.000  C
  C65      1.0000 0.99893  0.78103  0.41690  Biso   1.000  C
  C66      1.0000 0.97973  0.74707  0.34670  Biso   1.000  C
  H34      1.0000 0.99220  0.71710  0.33280  Biso   1.000  H
  C67      1.0000 0.93756  0.76440  0.29730  Biso   1.000  C
  H35      1.0000 0.91610  0.74840  0.24490  Biso   1.000  H
  C68      1.0000 0.93401  0.80815  0.33960  Biso   1.000  C
  C69      1.0000 0.89766  0.84283  0.31470  Biso   1.000  C
  C70      1.0000 0.17528  0.77673  0.48400  Biso   1.000  C
  C71      1.0000 0.21739  0.79719  0.42730  Biso   1.000  C
  C72      1.0000 0.22903  0.84212  0.40930  Biso   1.000  C
  H36      1.0000 0.21230  0.86840  0.43740  Biso   1.000  H
  C73      1.0000 0.00939  0.62184  0.49950  Biso   1.000  C
  H37      1.0000 0.01150  0.62250  0.58960  Biso   1.000  H
  C74      1.0000 0.97091  0.60080  0.44380  Biso   1.000  C
  H38      1.0000 0.94720  0.58780  0.49510  Biso   1.000  H
  C75      1.0000 0.96798  0.59920  0.31280  Biso   1.000  C
  H39      1.0000 0.94220  0.58490  0.27320  Biso   1.000  H
  C76      1.0000 0.00257  0.61857  0.23910  Biso   1.000  C
  C77      1.0000 0.00300  0.61681  0.10200  Biso   1.000  C
  H40      1.0000 0.97750  0.60350  0.05840  Biso   1.000  H
  C78      1.0000 0.03848  0.63352  0.03530  Biso   1.000  C
  H41      1.0000 0.03790  0.63180  0.94500  Biso   1.000  H
  C79      1.0000 0.07674  0.65362  0.09640  Biso   1.000  C
  C80      1.0000 0.11630  0.66999  0.03150  Biso   1.000  C
  H42      1.0000 0.11720  0.66900  0.94120  Biso   1.000  H
  C81      1.0000 0.15300  0.68710  0.09650  Biso   1.000  C
  H43      1.0000 0.18010  0.69700  0.05310  Biso   1.000  H
  C82      1.0000 0.15004  0.68977  0.22950  Biso   1.000  C
  H44      1.0000 0.17560  0.70210  0.27490  Biso   1.000  H
  C83      1.0000 0.07752  0.65719  0.23130  Biso   1.000  C
  C84      1.0000 0.03986  0.63882  0.30320  Biso   1.000  C
  N7       1.0000 0.04266  0.64073  0.43250  Biso   1.000  N
  N8       1.0000 0.11328  0.67601  0.29560  Biso   1.000  N
  O22      1.0000 0.05127  0.81635  0.55730  Biso   1.000  O
  O23      1.0000 0.06632  0.74535  0.48230  Biso   1.000  O
  O24      1.0000 0.97086  0.81925  0.41620  Biso   1.000  O
  O25      1.0000 0.89794  0.88206  0.36510  Biso   1.000  O
  O26      1.0000 0.86624  0.82969  0.24020  Biso   1.000  O
  O27      1.0000 0.16918  0.73390  0.47890  Biso   1.000  O
  O28      1.0000 0.14857  0.80620  0.53230  Biso   1.000  O
  Y5       1.0000 0.81662  0.60895  0.96448  Biso   1.000  Y
  C85      1.0000 0.71834  0.54188  0.00940  Biso   1.000  C
  C86      1.0000 0.71897  0.49893  0.08310  Biso   1.000  C
  C87      1.0000 0.75293  0.47973  0.15330  Biso   1.000  C
  H45      1.0000 0.78290  0.49220  0.16720  Biso   1.000  H
  C88      1.0000 0.73560  0.43756  0.20270  Biso   1.000  C
  H46      1.0000 0.75160  0.41610  0.25510  Biso   1.000  H
  C89      1.0000 0.69185  0.43401  0.16040  Biso   1.000  C
  C90      1.0000 0.65717  0.39766  0.18530  Biso   1.000  C
  C91      1.0000 0.72327  0.67528  0.01600  Biso   1.000  C
  C92      1.0000 0.70281  0.71739  0.07270  Biso   1.000  C
  C93      1.0000 0.65788  0.72903  0.09070  Biso   1.000  C
  H47      1.0000 0.63160  0.71230  0.06260  Biso   1.000  H
  C94      1.0000 0.87816  0.50939  0.00050  Biso   1.000  C
  H48      1.0000 0.87750  0.51150  0.91040  Biso   1.000  H
  C95      1.0000 0.89920  0.47091  0.05620  Biso   1.000  C
  H49      1.0000 0.91220  0.44720  0.00490  Biso   1.000  H
  C96      1.0000 0.90080  0.46798  0.18720  Biso   1.000  C
  H50      1.0000 0.91510  0.44220  0.22680  Biso   1.000  H
  C97      1.0000 0.88143  0.50257  0.26090  Biso   1.000  C
  C98      1.0000 0.88319  0.50300  0.39800  Biso   1.000  C
  H51      1.0000 0.89650  0.47750  0.44160  Biso   1.000  H
  C99      1.0000 0.86648  0.53848  0.46470  Biso   1.000  C
  H52      1.0000 0.86820  0.53790  0.55500  Biso   1.000  H
  C100     1.0000 0.84638  0.57674  0.40360  Biso   1.000  C
  C101     1.0000 0.83001  0.61630  0.46850  Biso   1.000  C
  H53      1.0000 0.83100  0.61720  0.55880  Biso   1.000  H
  C102     1.0000 0.81290  0.65300  0.40350  Biso   1.000  C
  H54      1.0000 0.80300  0.68010  0.44690  Biso   1.000  H
  C103     1.0000 0.81023  0.65004  0.27050  Biso   1.000  C
  H55      1.0000 0.79790  0.67560  0.22510  Biso   1.000  H
  C104     1.0000 0.84281  0.57752  0.26870  Biso   1.000  C
  C105     1.0000 0.86118  0.53986  0.19680  Biso   1.000  C
  N9       1.0000 0.85927  0.54266  0.06750  Biso   1.000  N
  N10      1.0000 0.82399  0.61328  0.20440  Biso   1.000  N
  O29      1.0000 0.68365  0.55127  0.94270  Biso   1.000  O
  O30      1.0000 0.75465  0.56632  0.01770  Biso   1.000  O
  O31      1.0000 0.68075  0.47086  0.08380  Biso   1.000  O
  O32      1.0000 0.61794  0.39794  0.13490  Biso   1.000  O
  O33      1.0000 0.67031  0.36624  0.25980  Biso   1.000  O
  O34      1.0000 0.76610  0.66918  0.02110  Biso   1.000  O
  O35      1.0000 0.69380  0.64857  0.96770  Biso   1.000  O
  Y6       1.0000 0.31662  0.10895  0.46448  Biso   1.000  Y
  C106     1.0000 0.21834  0.04188  0.50940  Biso   1.000  C
  C107     1.0000 0.21897  0.99893  0.58310  Biso   1.000  C
  C108     1.0000 0.25293  0.97973  0.65330  Biso   1.000  C
  H56      1.0000 0.28290  0.99220  0.66720  Biso   1.000  H
  C109     1.0000 0.23560  0.93756  0.70270  Biso   1.000  C
  H57      1.0000 0.25160  0.91610  0.75510  Biso   1.000  H
  C110     1.0000 0.19185  0.93401  0.66040  Biso   1.000  C
  C111     1.0000 0.15717  0.89766  0.68530  Biso   1.000  C
  C112     1.0000 0.22327  0.17528  0.51600  Biso   1.000  C
  C113     1.0000 0.20281  0.21739  0.57270  Biso   1.000  C
  C114     1.0000 0.15788  0.22903  0.59070  Biso   1.000  C
  H58      1.0000 0.13160  0.21230  0.56260  Biso   1.000  H
  C115     1.0000 0.37816  0.00939  0.50050  Biso   1.000  C
  H59      1.0000 0.37750  0.01150  0.41040  Biso   1.000  H
  C116     1.0000 0.39920  0.97091  0.55620  Biso   1.000  C
  H60      1.0000 0.41220  0.94720  0.50490  Biso   1.000  H
  C117     1.0000 0.40080  0.96798  0.68720  Biso   1.000  C
  H61      1.0000 0.41510  0.94220  0.72680  Biso   1.000  H
  C118     1.0000 0.38143  0.00257  0.76090  Biso   1.000  C
  C119     1.0000 0.38319  0.00300  0.89800  Biso   1.000  C
  H62      1.0000 0.39650  0.97750  0.94160  Biso   1.000  H
  C120     1.0000 0.36648  0.03848  0.96470  Biso   1.000  C
  H63      1.0000 0.36820  0.03790  0.05500  Biso   1.000  H
  C121     1.0000 0.34638  0.07674  0.90360  Biso   1.000  C
  C122     1.0000 0.33001  0.11630  0.96850  Biso   1.000  C
  H64      1.0000 0.33100  0.11720  0.05880  Biso   1.000  H
  C123     1.0000 0.31290  0.15300  0.90350  Biso   1.000  C
  H65      1.0000 0.30300  0.18010  0.94690  Biso   1.000  H
  C124     1.0000 0.31023  0.15004  0.77050  Biso   1.000  C
  H66      1.0000 0.29790  0.17560  0.72510  Biso   1.000  H
  C125     1.0000 0.34281  0.07752  0.76870  Biso   1.000  C
  C126     1.0000 0.36118  0.03986  0.69680  Biso   1.000  C
  N11      1.0000 0.35927  0.04266  0.56750  Biso   1.000  N
  N12      1.0000 0.32399  0.11328  0.70440  Biso   1.000  N
  O36      1.0000 0.18365  0.05127  0.44270  Biso   1.000  O
  O37      1.0000 0.25465  0.06632  0.51770  Biso   1.000  O
  O38      1.0000 0.18075  0.97086  0.58380  Biso   1.000  O
  O39      1.0000 0.11794  0.89794  0.63490  Biso   1.000  O
  O40      1.0000 0.17031  0.86624  0.75980  Biso   1.000  O
  O41      1.0000 0.26610  0.16918  0.52110  Biso   1.000  O
  O42      1.0000 0.19380  0.14857  0.46770  Biso   1.000  O
  Y7       1.0000 0.18338  0.39105  0.96448  Biso   1.000  Y
  C127     1.0000 0.28166  0.45812  0.00940  Biso   1.000  C
  C128     1.0000 0.28103  0.50107  0.08310  Biso   1.000  C
  C129     1.0000 0.24707  0.52027  0.15330  Biso   1.000  C
  H67      1.0000 0.21710  0.50780  0.16720  Biso   1.000  H
  C130     1.0000 0.26440  0.56244  0.20270  Biso   1.000  C
  H68      1.0000 0.24840  0.58390  0.25510  Biso   1.000  H
  C131     1.0000 0.30815  0.56599  0.16040  Biso   1.000  C
  C132     1.0000 0.34283  0.60234  0.18530  Biso   1.000  C
  C133     1.0000 0.27673  0.32472  0.01600  Biso   1.000  C
  C134     1.0000 0.29719  0.28261  0.07270  Biso   1.000  C
  C135     1.0000 0.34212  0.27097  0.09070  Biso   1.000  C
  H69      1.0000 0.36840  0.28770  0.06260  Biso   1.000  H
  C136     1.0000 0.12184  0.49061  0.00050  Biso   1.000  C
  H70      1.0000 0.12250  0.48850  0.91040  Biso   1.000  H
  C137     1.0000 0.10080  0.52909  0.05620  Biso   1.000  C
  H71      1.0000 0.08780  0.55280  0.00490  Biso   1.000  H
  C138     1.0000 0.09920  0.53202  0.18720  Biso   1.000  C
  H72      1.0000 0.08490  0.55780  0.22680  Biso   1.000  H
  C139     1.0000 0.11857  0.49743  0.26090  Biso   1.000  C
  C140     1.0000 0.11681  0.49700  0.39800  Biso   1.000  C
  H73      1.0000 0.10350  0.52250  0.44160  Biso   1.000  H
  C141     1.0000 0.13352  0.46152  0.46470  Biso   1.000  C
  H74      1.0000 0.13180  0.46210  0.55500  Biso   1.000  H
  C142     1.0000 0.15362  0.42326  0.40360  Biso   1.000  C
  C143     1.0000 0.16999  0.38370  0.46850  Biso   1.000  C
  H75      1.0000 0.16900  0.38280  0.55880  Biso   1.000  H
  C144     1.0000 0.18710  0.34700  0.40350  Biso   1.000  C
  H76      1.0000 0.19700  0.31990  0.44690  Biso   1.000  H
  C145     1.0000 0.18977  0.34996  0.27050  Biso   1.000  C
  H77      1.0000 0.20210  0.32440  0.22510  Biso   1.000  H
  C146     1.0000 0.15719  0.42248  0.26870  Biso   1.000  C
  C147     1.0000 0.13882  0.46014  0.19680  Biso   1.000  C
  N13      1.0000 0.14073  0.45734  0.06750  Biso   1.000  N
  N14      1.0000 0.17601  0.38672  0.20440  Biso   1.000  N
  O43      1.0000 0.31635  0.44873  0.94270  Biso   1.000  O
  O44      1.0000 0.24535  0.43368  0.01770  Biso   1.000  O
  O45      1.0000 0.31925  0.52914  0.08380  Biso   1.000  O
  O46      1.0000 0.38206  0.60206  0.13490  Biso   1.000  O
  O47      1.0000 0.32969  0.63376  0.25980  Biso   1.000  O
  O48      1.0000 0.23390  0.33082  0.02110  Biso   1.000  O
  O49      1.0000 0.30620  0.35143  0.96770  Biso   1.000  O
  Y8       1.0000 0.68338  0.89105  0.46448  Biso   1.000  Y
  C148     1.0000 0.78166  0.95812  0.50940  Biso   1.000  C
  C149     1.0000 0.78103  0.00107  0.58310  Biso   1.000  C
  C150     1.0000 0.74707  0.02027  0.65330  Biso   1.000  C
  H78      1.0000 0.71710  0.00780  0.66720  Biso   1.000  H
  C151     1.0000 0.76440  0.06244  0.70270  Biso   1.000  C
  H79      1.0000 0.74840  0.08390  0.75510  Biso   1.000  H
  C152     1.0000 0.80815  0.06599  0.66040  Biso   1.000  C
  C153     1.0000 0.84283  0.10234  0.68530  Biso   1.000  C
  C154     1.0000 0.77673  0.82472  0.51600  Biso   1.000  C
  C155     1.0000 0.79719  0.78261  0.57270  Biso   1.000  C
  C156     1.0000 0.84212  0.77097  0.59070  Biso   1.000  C
  H80      1.0000 0.86840  0.78770  0.56260  Biso   1.000  H
  C157     1.0000 0.62184  0.99061  0.50050  Biso   1.000  C
  H81      1.0000 0.62250  0.98850  0.41040  Biso   1.000  H
  C158     1.0000 0.60080  0.02909  0.55620  Biso   1.000  C
  H82      1.0000 0.58780  0.05280  0.50490  Biso   1.000  H
  C159     1.0000 0.59920  0.03202  0.68720  Biso   1.000  C
  H83      1.0000 0.58490  0.05780  0.72680  Biso   1.000  H
  C160     1.0000 0.61857  0.99743  0.76090  Biso   1.000  C
  C161     1.0000 0.61681  0.99700  0.89800  Biso   1.000  C
  H84      1.0000 0.60350  0.02250  0.94160  Biso   1.000  H
  C162     1.0000 0.63352  0.96152  0.96470  Biso   1.000  C
  H85      1.0000 0.63180  0.96210  0.05500  Biso   1.000  H
  C163     1.0000 0.65362  0.92326  0.90360  Biso   1.000  C
  C164     1.0000 0.66999  0.88370  0.96850  Biso   1.000  C
  H86      1.0000 0.66900  0.88280  0.05880  Biso   1.000  H
  C165     1.0000 0.68710  0.84700  0.90350  Biso   1.000  C
  H87      1.0000 0.69700  0.81990  0.94690  Biso   1.000  H
  C166     1.0000 0.68977  0.84996  0.77050  Biso   1.000  C
  H88      1.0000 0.70210  0.82440  0.72510  Biso   1.000  H
  C167     1.0000 0.65719  0.92248  0.76870  Biso   1.000  C
  C168     1.0000 0.63882  0.96014  0.69680  Biso   1.000  C
  N15      1.0000 0.64073  0.95734  0.56750  Biso   1.000  N
  N16      1.0000 0.67601  0.88672  0.70440  Biso   1.000  N
  O50      1.0000 0.81635  0.94873  0.44270  Biso   1.000  O
  O51      1.0000 0.74535  0.93368  0.51770  Biso   1.000  O
  O52      1.0000 0.81925  0.02914  0.58380  Biso   1.000  O
  O53      1.0000 0.88206  0.10206  0.63490  Biso   1.000  O
  O54      1.0000 0.82969  0.13376  0.75980  Biso   1.000  O
  O55      1.0000 0.73390  0.83082  0.52110  Biso   1.000  O
  O56      1.0000 0.80620  0.85143  0.46770  Biso   1.000  O
  Y9       1.0000 0.10895  0.81662  0.71448  Biso   1.000  Y
  C169     1.0000 0.04188  0.71834  0.75940  Biso   1.000  C
  C170     1.0000 0.99893  0.71897  0.83310  Biso   1.000  C
  C171     1.0000 0.97973  0.75293  0.90330  Biso   1.000  C
  H89      1.0000 0.99220  0.78290  0.91720  Biso   1.000  H
  C172     1.0000 0.93756  0.73560  0.95270  Biso   1.000  C
  H90      1.0000 0.91610  0.75160  0.00510  Biso   1.000  H
  C173     1.0000 0.93401  0.69185  0.91040  Biso   1.000  C
  C174     1.0000 0.89766  0.65717  0.93530  Biso   1.000  C
  C175     1.0000 0.17528  0.72327  0.76600  Biso   1.000  C
  C176     1.0000 0.21739  0.70281  0.82270  Biso   1.000  C
  C177     1.0000 0.22903  0.65788  0.84070  Biso   1.000  C
  H91      1.0000 0.21230  0.63160  0.81260  Biso   1.000  H
  C178     1.0000 0.00939  0.87816  0.75050  Biso   1.000  C
  H92      1.0000 0.01150  0.87750  0.66040  Biso   1.000  H
  C179     1.0000 0.97091  0.89920  0.80620  Biso   1.000  C
  H93      1.0000 0.94720  0.91220  0.75490  Biso   1.000  H
  C180     1.0000 0.96798  0.90080  0.93720  Biso   1.000  C
  H94      1.0000 0.94220  0.91510  0.97680  Biso   1.000  H
  C181     1.0000 0.00257  0.88143  0.01090  Biso   1.000  C
  C182     1.0000 0.00300  0.88319  0.14800  Biso   1.000  C
  H95      1.0000 0.97750  0.89650  0.19160  Biso   1.000  H
  C183     1.0000 0.03848  0.86648  0.21470  Biso   1.000  C
  H96      1.0000 0.03790  0.86820  0.30500  Biso   1.000  H
  C184     1.0000 0.07674  0.84638  0.15360  Biso   1.000  C
  C185     1.0000 0.11630  0.83001  0.21850  Biso   1.000  C
  H97      1.0000 0.11720  0.83100  0.30880  Biso   1.000  H
  C186     1.0000 0.15300  0.81290  0.15350  Biso   1.000  C
  H98      1.0000 0.18010  0.80300  0.19690  Biso   1.000  H
  C187     1.0000 0.15004  0.81023  0.02050  Biso   1.000  C
  H99      1.0000 0.17560  0.79790  0.97510  Biso   1.000  H
  C188     1.0000 0.07752  0.84281  0.01870  Biso   1.000  C
  C189     1.0000 0.03986  0.86118  0.94680  Biso   1.000  C
  N17      1.0000 0.04266  0.85927  0.81750  Biso   1.000  N
  N18      1.0000 0.11328  0.82399  0.95440  Biso   1.000  N
  O57      1.0000 0.05127  0.68365  0.69270  Biso   1.000  O
  O58      1.0000 0.06632  0.75465  0.76770  Biso   1.000  O
  O59      1.0000 0.97086  0.68075  0.83380  Biso   1.000  O
  O60      1.0000 0.89794  0.61794  0.88490  Biso   1.000  O
  O61      1.0000 0.86624  0.67031  0.00980  Biso   1.000  O
  O62      1.0000 0.16918  0.76610  0.77110  Biso   1.000  O
  O63      1.0000 0.14857  0.69380  0.71770  Biso   1.000  O
  Y10      1.0000 0.60895  0.31662  0.21448  Biso   1.000  Y
  C190     1.0000 0.54188  0.21834  0.25940  Biso   1.000  C
  C191     1.0000 0.49893  0.21897  0.33310  Biso   1.000  C
  C192     1.0000 0.47973  0.25293  0.40330  Biso   1.000  C
  H100     1.0000 0.49220  0.28290  0.41720  Biso   1.000  H
  C193     1.0000 0.43756  0.23560  0.45270  Biso   1.000  C
  H101     1.0000 0.41610  0.25160  0.50510  Biso   1.000  H
  C194     1.0000 0.43401  0.19185  0.41040  Biso   1.000  C
  C195     1.0000 0.39766  0.15717  0.43530  Biso   1.000  C
  C196     1.0000 0.67528  0.22327  0.26600  Biso   1.000  C
  C197     1.0000 0.71739  0.20281  0.32270  Biso   1.000  C
  C198     1.0000 0.72903  0.15788  0.34070  Biso   1.000  C
  H102     1.0000 0.71230  0.13160  0.31260  Biso   1.000  H
  C199     1.0000 0.50939  0.37816  0.25050  Biso   1.000  C
  H103     1.0000 0.51150  0.37750  0.16040  Biso   1.000  H
  C200     1.0000 0.47091  0.39920  0.30620  Biso   1.000  C
  H104     1.0000 0.44720  0.41220  0.25490  Biso   1.000  H
  C201     1.0000 0.46798  0.40080  0.43720  Biso   1.000  C
  H105     1.0000 0.44220  0.41510  0.47680  Biso   1.000  H
  C202     1.0000 0.50257  0.38143  0.51090  Biso   1.000  C
  C203     1.0000 0.50300  0.38319  0.64800  Biso   1.000  C
  H106     1.0000 0.47750  0.39650  0.69160  Biso   1.000  H
  C204     1.0000 0.53848  0.36648  0.71470  Biso   1.000  C
  H107     1.0000 0.53790  0.36820  0.80500  Biso   1.000  H
  C205     1.0000 0.57674  0.34638  0.65360  Biso   1.000  C
  C206     1.0000 0.61630  0.33001  0.71850  Biso   1.000  C
  H108     1.0000 0.61720  0.33100  0.80880  Biso   1.000  H
  C207     1.0000 0.65300  0.31290  0.65350  Biso   1.000  C
  H109     1.0000 0.68010  0.30300  0.69690  Biso   1.000  H
  C208     1.0000 0.65004  0.31023  0.52050  Biso   1.000  C
  H110     1.0000 0.67560  0.29790  0.47510  Biso   1.000  H
  C209     1.0000 0.57752  0.34281  0.51870  Biso   1.000  C
  C210     1.0000 0.53986  0.36118  0.44680  Biso   1.000  C
  N19      1.0000 0.54266  0.35927  0.31750  Biso   1.000  N
  N20      1.0000 0.61328  0.32399  0.45440  Biso   1.000  N
  O64      1.0000 0.55127  0.18365  0.19270  Biso   1.000  O
  O65      1.0000 0.56632  0.25465  0.26770  Biso   1.000  O
  O66      1.0000 0.47086  0.18075  0.33380  Biso   1.000  O
  O67      1.0000 0.39794  0.11794  0.38490  Biso   1.000  O
  O68      1.0000 0.36624  0.17031  0.50980  Biso   1.000  O
  O69      1.0000 0.66918  0.26610  0.27110  Biso   1.000  O
  O70      1.0000 0.64857  0.19380  0.21770  Biso   1.000  O
  Y11      1.0000 0.89105  0.18338  0.71448  Biso   1.000  Y
  C211     1.0000 0.95812  0.28166  0.75940  Biso   1.000  C
  C212     1.0000 0.00107  0.28103  0.83310  Biso   1.000  C
  C213     1.0000 0.02027  0.24707  0.90330  Biso   1.000  C
  H111     1.0000 0.00780  0.21710  0.91720  Biso   1.000  H
  C214     1.0000 0.06244  0.26440  0.95270  Biso   1.000  C
  H112     1.0000 0.08390  0.24840  0.00510  Biso   1.000  H
  C215     1.0000 0.06599  0.30815  0.91040  Biso   1.000  C
  C216     1.0000 0.10234  0.34283  0.93530  Biso   1.000  C
  C217     1.0000 0.82472  0.27673  0.76600  Biso   1.000  C
  C218     1.0000 0.78261  0.29719  0.82270  Biso   1.000  C
  C219     1.0000 0.77097  0.34212  0.84070  Biso   1.000  C
  H113     1.0000 0.78770  0.36840  0.81260  Biso   1.000  H
  C220     1.0000 0.99061  0.12184  0.75050  Biso   1.000  C
  H114     1.0000 0.98850  0.12250  0.66040  Biso   1.000  H
  C221     1.0000 0.02909  0.10080  0.80620  Biso   1.000  C
  H115     1.0000 0.05280  0.08780  0.75490  Biso   1.000  H
  C222     1.0000 0.03202  0.09920  0.93720  Biso   1.000  C
  H116     1.0000 0.05780  0.08490  0.97680  Biso   1.000  H
  C223     1.0000 0.99743  0.11857  0.01090  Biso   1.000  C
  C224     1.0000 0.99700  0.11681  0.14800  Biso   1.000  C
  H117     1.0000 0.02250  0.10350  0.19160  Biso   1.000  H
  C225     1.0000 0.96152  0.13352  0.21470  Biso   1.000  C
  H118     1.0000 0.96210  0.13180  0.30500  Biso   1.000  H
  C226     1.0000 0.92326  0.15362  0.15360  Biso   1.000  C
  C227     1.0000 0.88370  0.16999  0.21850  Biso   1.000  C
  H119     1.0000 0.88280  0.16900  0.30880  Biso   1.000  H
  C228     1.0000 0.84700  0.18710  0.15350  Biso   1.000  C
  H120     1.0000 0.81990  0.19700  0.19690  Biso   1.000  H
  C229     1.0000 0.84996  0.18977  0.02050  Biso   1.000  C
  H121     1.0000 0.82440  0.20210  0.97510  Biso   1.000  H
  C230     1.0000 0.92248  0.15719  0.01870  Biso   1.000  C
  C231     1.0000 0.96014  0.13882  0.94680  Biso   1.000  C
  N21      1.0000 0.95734  0.14073  0.81750  Biso   1.000  N
  N22      1.0000 0.88672  0.17601  0.95440  Biso   1.000  N
  O71      1.0000 0.94873  0.31635  0.69270  Biso   1.000  O
  O72      1.0000 0.93368  0.24535  0.76770  Biso   1.000  O
  O73      1.0000 0.02914  0.31925  0.83380  Biso   1.000  O
  O74      1.0000 0.10206  0.38206  0.88490  Biso   1.000  O
  O75      1.0000 0.13376  0.32969  0.00980  Biso   1.000  O
  O76      1.0000 0.83082  0.23390  0.77110  Biso   1.000  O
  O77      1.0000 0.85143  0.30620  0.71770  Biso   1.000  O
  Y12      1.0000 0.39105  0.68338  0.21448  Biso   1.000  Y
  C232     1.0000 0.45812  0.78166  0.25940  Biso   1.000  C
  C233     1.0000 0.50107  0.78103  0.33310  Biso   1.000  C
  C234     1.0000 0.52027  0.74707  0.40330  Biso   1.000  C
  H122     1.0000 0.50780  0.71710  0.41720  Biso   1.000  H
  C235     1.0000 0.56244  0.76440  0.45270  Biso   1.000  C
  H123     1.0000 0.58390  0.74840  0.50510  Biso   1.000  H
  C236     1.0000 0.56599  0.80815  0.41040  Biso   1.000  C
  C237     1.0000 0.60234  0.84283  0.43530  Biso   1.000  C
  C238     1.0000 0.32472  0.77673  0.26600  Biso   1.000  C
  C239     1.0000 0.28261  0.79719  0.32270  Biso   1.000  C
  C240     1.0000 0.27097  0.84212  0.34070  Biso   1.000  C
  H124     1.0000 0.28770  0.86840  0.31260  Biso   1.000  H
  C241     1.0000 0.49061  0.62184  0.25050  Biso   1.000  C
  H125     1.0000 0.48850  0.62250  0.16040  Biso   1.000  H
  C242     1.0000 0.52909  0.60080  0.30620  Biso   1.000  C
  H126     1.0000 0.55280  0.58780  0.25490  Biso   1.000  H
  C243     1.0000 0.53202  0.59920  0.43720  Biso   1.000  C
  H127     1.0000 0.55780  0.58490  0.47680  Biso   1.000  H
  C244     1.0000 0.49743  0.61857  0.51090  Biso   1.000  C
  C245     1.0000 0.49700  0.61681  0.64800  Biso   1.000  C
  H128     1.0000 0.52250  0.60350  0.69160  Biso   1.000  H
  C246     1.0000 0.46152  0.63352  0.71470  Biso   1.000  C
  H129     1.0000 0.46210  0.63180  0.80500  Biso   1.000  H
  C247     1.0000 0.42326  0.65362  0.65360  Biso   1.000  C
  C248     1.0000 0.38370  0.66999  0.71850  Biso   1.000  C
  H130     1.0000 0.38280  0.66900  0.80880  Biso   1.000  H
  C249     1.0000 0.34700  0.68710  0.65350  Biso   1.000  C
  H131     1.0000 0.31990  0.69700  0.69690  Biso   1.000  H
  C250     1.0000 0.34996  0.68977  0.52050  Biso   1.000  C
  H132     1.0000 0.32440  0.70210  0.47510  Biso   1.000  H
  C251     1.0000 0.42248  0.65719  0.51870  Biso   1.000  C
  C252     1.0000 0.46014  0.63882  0.44680  Biso   1.000  C
  N23      1.0000 0.45734  0.64073  0.31750  Biso   1.000  N
  N24      1.0000 0.38672  0.67601  0.45440  Biso   1.000  N
  O78      1.0000 0.44873  0.81635  0.19270  Biso   1.000  O
  O79      1.0000 0.43368  0.74535  0.26770  Biso   1.000  O
  O80      1.0000 0.52914  0.81925  0.33380  Biso   1.000  O
  O81      1.0000 0.60206  0.88206  0.38490  Biso   1.000  O
  O82      1.0000 0.63376  0.82969  0.50980  Biso   1.000  O
  O83      1.0000 0.33082  0.73390  0.27110  Biso   1.000  O
  O84      1.0000 0.35143  0.80620  0.21770  Biso   1.000  O
  Y13      1.0000 0.68338  0.60895  0.78552  Biso   1.000  Y
  C253     1.0000 0.78166  0.54188  0.74060  Biso   1.000  C
  C254     1.0000 0.78103  0.49893  0.66690  Biso   1.000  C
  C255     1.0000 0.74707  0.47973  0.59670  Biso   1.000  C
  H133     1.0000 0.71710  0.49220  0.58280  Biso   1.000  H
  C256     1.0000 0.76440  0.43756  0.54730  Biso   1.000  C
  H134     1.0000 0.74840  0.41610  0.49490  Biso   1.000  H
  C257     1.0000 0.80815  0.43401  0.58960  Biso   1.000  C
  C258     1.0000 0.84283  0.39766  0.56470  Biso   1.000  C
  C259     1.0000 0.77673  0.67528  0.73400  Biso   1.000  C
  C260     1.0000 0.79719  0.71739  0.67730  Biso   1.000  C
  C261     1.0000 0.84212  0.72903  0.65930  Biso   1.000  C
  H135     1.0000 0.86840  0.71230  0.68740  Biso   1.000  H
  C262     1.0000 0.62184  0.50939  0.74950  Biso   1.000  C
  H136     1.0000 0.62250  0.51150  0.83960  Biso   1.000  H
  C263     1.0000 0.60080  0.47091  0.69380  Biso   1.000  C
  H137     1.0000 0.58780  0.44720  0.74510  Biso   1.000  H
  C264     1.0000 0.59920  0.46798  0.56280  Biso   1.000  C
  H138     1.0000 0.58490  0.44220  0.52320  Biso   1.000  H
  C265     1.0000 0.61857  0.50257  0.48910  Biso   1.000  C
  C266     1.0000 0.61681  0.50300  0.35200  Biso   1.000  C
  H139     1.0000 0.60350  0.47750  0.30840  Biso   1.000  H
  C267     1.0000 0.63352  0.53848  0.28530  Biso   1.000  C
  H140     1.0000 0.63180  0.53790  0.19500  Biso   1.000  H
  C268     1.0000 0.65362  0.57674  0.34640  Biso   1.000  C
  C269     1.0000 0.66999  0.61630  0.28150  Biso   1.000  C
  H141     1.0000 0.66900  0.61720  0.19120  Biso   1.000  H
  C270     1.0000 0.68710  0.65300  0.34650  Biso   1.000  C
  H142     1.0000 0.69700  0.68010  0.30310  Biso   1.000  H
  C271     1.0000 0.68977  0.65004  0.47950  Biso   1.000  C
  H143     1.0000 0.70210  0.67560  0.52490  Biso   1.000  H
  C272     1.0000 0.65719  0.57752  0.48130  Biso   1.000  C
  C273     1.0000 0.63882  0.53986  0.55320  Biso   1.000  C
  N25      1.0000 0.64073  0.54266  0.68250  Biso   1.000  N
  N26      1.0000 0.67601  0.61328  0.54560  Biso   1.000  N
  O85      1.0000 0.81635  0.55127  0.80730  Biso   1.000  O
  O86      1.0000 0.74535  0.56632  0.73230  Biso   1.000  O
  O87      1.0000 0.81925  0.47086  0.66620  Biso   1.000  O
  O88      1.0000 0.88206  0.39794  0.61510  Biso   1.000  O
  O89      1.0000 0.82969  0.36624  0.49020  Biso   1.000  O
  O90      1.0000 0.73390  0.66918  0.72890  Biso   1.000  O
  O91      1.0000 0.80620  0.64857  0.78230  Biso   1.000  O
  Y14      1.0000 0.18338  0.10895  0.28552  Biso   1.000  Y
  C274     1.0000 0.28166  0.04188  0.24060  Biso   1.000  C
  C275     1.0000 0.28103  0.99893  0.16690  Biso   1.000  C
  C276     1.0000 0.24707  0.97973  0.09670  Biso   1.000  C
  H144     1.0000 0.21710  0.99220  0.08280  Biso   1.000  H
  C277     1.0000 0.26440  0.93756  0.04730  Biso   1.000  C
  H145     1.0000 0.24840  0.91610  0.99490  Biso   1.000  H
  C278     1.0000 0.30815  0.93401  0.08960  Biso   1.000  C
  C279     1.0000 0.34283  0.89766  0.06470  Biso   1.000  C
  C280     1.0000 0.27673  0.17528  0.23400  Biso   1.000  C
  C281     1.0000 0.29719  0.21739  0.17730  Biso   1.000  C
  C282     1.0000 0.34212  0.22903  0.15930  Biso   1.000  C
  H146     1.0000 0.36840  0.21230  0.18740  Biso   1.000  H
  C283     1.0000 0.12184  0.00939  0.24950  Biso   1.000  C
  H147     1.0000 0.12250  0.01150  0.33960  Biso   1.000  H
  C284     1.0000 0.10080  0.97091  0.19380  Biso   1.000  C
  H148     1.0000 0.08780  0.94720  0.24510  Biso   1.000  H
  C285     1.0000 0.09920  0.96798  0.06280  Biso   1.000  C
  H149     1.0000 0.08490  0.94220  0.02320  Biso   1.000  H
  C286     1.0000 0.11857  0.00257  0.98910  Biso   1.000  C
  C287     1.0000 0.11681  0.00300  0.85200  Biso   1.000  C
  H150     1.0000 0.10350  0.97750  0.80840  Biso   1.000  H
  C288     1.0000 0.13352  0.03848  0.78530  Biso   1.000  C
  H151     1.0000 0.13180  0.03790  0.69500  Biso   1.000  H
  C289     1.0000 0.15362  0.07674  0.84640  Biso   1.000  C
  C290     1.0000 0.16999  0.11630  0.78150  Biso   1.000  C
  H152     1.0000 0.16900  0.11720  0.69120  Biso   1.000  H
  C291     1.0000 0.18710  0.15300  0.84650  Biso   1.000  C
  H153     1.0000 0.19700  0.18010  0.80310  Biso   1.000  H
  C292     1.0000 0.18977  0.15004  0.97950  Biso   1.000  C
  H154     1.0000 0.20210  0.17560  0.02490  Biso   1.000  H
  C293     1.0000 0.15719  0.07752  0.98130  Biso   1.000  C
  C294     1.0000 0.13882  0.03986  0.05320  Biso   1.000  C
  N27      1.0000 0.14073  0.04266  0.18250  Biso   1.000  N
  N28      1.0000 0.17601  0.11328  0.04560  Biso   1.000  N
  O92      1.0000 0.31635  0.05127  0.30730  Biso   1.000  O
  O93      1.0000 0.24535  0.06632  0.23230  Biso   1.000  O
  O94      1.0000 0.31925  0.97086  0.16620  Biso   1.000  O
  O95      1.0000 0.38206  0.89794  0.11510  Biso   1.000  O
  O96      1.0000 0.32969  0.86624  0.99020  Biso   1.000  O
  O97      1.0000 0.23390  0.16918  0.22890  Biso   1.000  O
  O98      1.0000 0.30620  0.14857  0.28230  Biso   1.000  O
  Y15      1.0000 0.31662  0.39105  0.78552  Biso   1.000  Y
  C295     1.0000 0.21834  0.45812  0.74060  Biso   1.000  C
  C296     1.0000 0.21897  0.50107  0.66690  Biso   1.000  C
  C297     1.0000 0.25293  0.52027  0.59670  Biso   1.000  C
  H155     1.0000 0.28290  0.50780  0.58280  Biso   1.000  H
  C298     1.0000 0.23560  0.56244  0.54730  Biso   1.000  C
  H156     1.0000 0.25160  0.58390  0.49490  Biso   1.000  H
  C299     1.0000 0.19185  0.56599  0.58960  Biso   1.000  C
  C300     1.0000 0.15717  0.60234  0.56470  Biso   1.000  C
  C301     1.0000 0.22327  0.32472  0.73400  Biso   1.000  C
  C302     1.0000 0.20281  0.28261  0.67730  Biso   1.000  C
  C303     1.0000 0.15788  0.27097  0.65930  Biso   1.000  C
  H157     1.0000 0.13160  0.28770  0.68740  Biso   1.000  H
  C304     1.0000 0.37816  0.49061  0.74950  Biso   1.000  C
  H158     1.0000 0.37750  0.48850  0.83960  Biso   1.000  H
  C305     1.0000 0.39920  0.52909  0.69380  Biso   1.000  C
  H159     1.0000 0.41220  0.55280  0.74510  Biso   1.000  H
  C306     1.0000 0.40080  0.53202  0.56280  Biso   1.000  C
  H160     1.0000 0.41510  0.55780  0.52320  Biso   1.000  H
  C307     1.0000 0.38143  0.49743  0.48910  Biso   1.000  C
  C308     1.0000 0.38319  0.49700  0.35200  Biso   1.000  C
  H161     1.0000 0.39650  0.52250  0.30840  Biso   1.000  H
  C309     1.0000 0.36648  0.46152  0.28530  Biso   1.000  C
  H162     1.0000 0.36820  0.46210  0.19500  Biso   1.000  H
  C310     1.0000 0.34638  0.42326  0.34640  Biso   1.000  C
  C311     1.0000 0.33001  0.38370  0.28150  Biso   1.000  C
  H163     1.0000 0.33100  0.38280  0.19120  Biso   1.000  H
  C312     1.0000 0.31290  0.34700  0.34650  Biso   1.000  C
  H164     1.0000 0.30300  0.31990  0.30310  Biso   1.000  H
  C313     1.0000 0.31023  0.34996  0.47950  Biso   1.000  C
  H165     1.0000 0.29790  0.32440  0.52490  Biso   1.000  H
  C314     1.0000 0.34281  0.42248  0.48130  Biso   1.000  C
  C315     1.0000 0.36118  0.46014  0.55320  Biso   1.000  C
  N29      1.0000 0.35927  0.45734  0.68250  Biso   1.000  N
  N30      1.0000 0.32399  0.38672  0.54560  Biso   1.000  N
  O99      1.0000 0.18365  0.44873  0.80730  Biso   1.000  O
  O100     1.0000 0.25465  0.43368  0.73230  Biso   1.000  O
  O101     1.0000 0.18075  0.52914  0.66620  Biso   1.000  O
  O102     1.0000 0.11794  0.60206  0.61510  Biso   1.000  O
  O103     1.0000 0.17031  0.63376  0.49020  Biso   1.000  O
  O104     1.0000 0.26610  0.33082  0.72890  Biso   1.000  O
  O105     1.0000 0.19380  0.35143  0.78230  Biso   1.000  O
  Y16      1.0000 0.81662  0.89105  0.28552  Biso   1.000  Y
  C316     1.0000 0.71834  0.95812  0.24060  Biso   1.000  C
  C317     1.0000 0.71897  0.00107  0.16690  Biso   1.000  C
  C318     1.0000 0.75293  0.02027  0.09670  Biso   1.000  C
  H166     1.0000 0.78290  0.00780  0.08280  Biso   1.000  H
  C319     1.0000 0.73560  0.06244  0.04730  Biso   1.000  C
  H167     1.0000 0.75160  0.08390  0.99490  Biso   1.000  H
  C320     1.0000 0.69185  0.06599  0.08960  Biso   1.000  C
  C321     1.0000 0.65717  0.10234  0.06470  Biso   1.000  C
  C322     1.0000 0.72327  0.82472  0.23400  Biso   1.000  C
  C323     1.0000 0.70281  0.78261  0.17730  Biso   1.000  C
  C324     1.0000 0.65788  0.77097  0.15930  Biso   1.000  C
  H168     1.0000 0.63160  0.78770  0.18740  Biso   1.000  H
  C325     1.0000 0.87816  0.99061  0.24950  Biso   1.000  C
  H169     1.0000 0.87750  0.98850  0.33960  Biso   1.000  H
  C326     1.0000 0.89920  0.02909  0.19380  Biso   1.000  C
  H170     1.0000 0.91220  0.05280  0.24510  Biso   1.000  H
  C327     1.0000 0.90080  0.03202  0.06280  Biso   1.000  C
  H171     1.0000 0.91510  0.05780  0.02320  Biso   1.000  H
  C328     1.0000 0.88143  0.99743  0.98910  Biso   1.000  C
  C329     1.0000 0.88319  0.99700  0.85200  Biso   1.000  C
  H172     1.0000 0.89650  0.02250  0.80840  Biso   1.000  H
  C330     1.0000 0.86648  0.96152  0.78530  Biso   1.000  C
  H173     1.0000 0.86820  0.96210  0.69500  Biso   1.000  H
  C331     1.0000 0.84638  0.92326  0.84640  Biso   1.000  C
  C332     1.0000 0.83001  0.88370  0.78150  Biso   1.000  C
  H174     1.0000 0.83100  0.88280  0.69120  Biso   1.000  H
  C333     1.0000 0.81290  0.84700  0.84650  Biso   1.000  C
  H175     1.0000 0.80300  0.81990  0.80310  Biso   1.000  H
  C334     1.0000 0.81023  0.84996  0.97950  Biso   1.000  C
  H176     1.0000 0.79790  0.82440  0.02490  Biso   1.000  H
  C335     1.0000 0.84281  0.92248  0.98130  Biso   1.000  C
  C336     1.0000 0.86118  0.96014  0.05320  Biso   1.000  C
  N31      1.0000 0.85927  0.95734  0.18250  Biso   1.000  N
  N32      1.0000 0.82399  0.88672  0.04560  Biso   1.000  N
  O106     1.0000 0.68365  0.94873  0.30730  Biso   1.000  O
  O107     1.0000 0.75465  0.93368  0.23230  Biso   1.000  O
  O108     1.0000 0.68075  0.02914  0.16620  Biso   1.000  O
  O109     1.0000 0.61794  0.10206  0.11510  Biso   1.000  O
  O110     1.0000 0.67031  0.13376  0.99020  Biso   1.000  O
  O111     1.0000 0.76610  0.83082  0.22890  Biso   1.000  O
  O112     1.0000 0.69380  0.85143  0.28230  Biso   1.000  O
  O113     1.0000 0.25000  0.73153  0.87500  Biso   1.000  O
  O114     1.0000 0.75000  0.23153  0.37500  Biso   1.000  O
  O115     1.0000 0.75000  0.26847  0.87500  Biso   1.000  O
  O116     1.0000 0.25000  0.76847  0.37500  Biso   1.000  O
  O117     1.0000 0.73153  0.75000  0.12500  Biso   1.000  O
  O118     1.0000 0.26847  0.25000  0.12500  Biso   1.000  O
  O119     1.0000 0.76847  0.75000  0.62500  Biso   1.000  O
  O120     1.0000 0.23153  0.25000  0.62500  Biso   1.000  O
