data_image0
_cell_length_a       28.9603
_cell_length_b       28.9603
_cell_length_c       10.5023
_cell_angle_alpha    90
_cell_angle_beta     90
_cell_angle_gamma    90

_symmetry_space_group_name_H-M    "P 1"
_symmetry_int_tables_number       1

loop_
  _symmetry_equiv_pos_as_xyz
  'x, y, z'

loop_
  _atom_site_label
  _atom_site_occupancy
  _atom_site_fract_x
  _atom_site_fract_y
  _atom_site_fract_z
  _atom_site_thermal_displace_type
  _atom_site_B_iso_or_equiv
  _atom_site_type_symbol
  Y1       1.0000 0.89117  0.18331  0.21466  Biso   1.000  Y
  C1       1.0000 0.95807  0.28172  0.25890  Biso   1.000  C
  C2       1.0000 0.00151  0.28100  0.33320  Biso   1.000  C
  C3       1.0000 0.02035  0.24671  0.40380  Biso   1.000  C
  H1       1.0000 0.00790  0.21680  0.41750  Biso   1.000  H
  C4       1.0000 0.06246  0.26447  0.45360  Biso   1.000  C
  H2       1.0000 0.08370  0.24860  0.50710  Biso   1.000  H
  C5       1.0000 0.06647  0.30770  0.41070  Biso   1.000  C
  C6       1.0000 0.10204  0.34231  0.43530  Biso   1.000  C
  C7       1.0000 0.82472  0.22298  0.98380  Biso   1.000  C
  C8       1.0000 0.78287  0.20273  0.92590  Biso   1.000  C
  C9       1.0000 0.77110  0.15788  0.90900  Biso   1.000  C
  H3       1.0000 0.78790  0.13160  0.93730  Biso   1.000  H
  C10      1.0000 0.99084  0.12195  0.25060  Biso   1.000  C
  H4       1.0000 0.98900  0.12300  0.16030  Biso   1.000  H
  C11      1.0000 0.02940  0.10050  0.30680  Biso   1.000  C
  H5       1.0000 0.05280  0.08730  0.25520  Biso   1.000  H
  C12      1.0000 0.03260  0.09900  0.43640  Biso   1.000  C
  H6       1.0000 0.05850  0.08470  0.47560  Biso   1.000  H
  C13      1.0000 0.99768  0.11836  0.51140  Biso   1.000  C
  C14      1.0000 0.99700  0.11725  0.64870  Biso   1.000  C
  H7       1.0000 0.02270  0.10460  0.69280  Biso   1.000  H
  C15      1.0000 0.96133  0.13351  0.71560  Biso   1.000  C
  H8       1.0000 0.96170  0.13100  0.80580  Biso   1.000  H
  C16      1.0000 0.92310  0.15437  0.65500  Biso   1.000  C
  C17      1.0000 0.88380  0.17012  0.71990  Biso   1.000  C
  H9       1.0000 0.88250  0.16880  0.81020  Biso   1.000  H
  C18      1.0000 0.84780  0.18710  0.65370  Biso   1.000  C
  H10      1.0000 0.82060  0.19690  0.69670  Biso   1.000  H
  C19      1.0000 0.85070  0.19025  0.52110  Biso   1.000  C
  H11      1.0000 0.82530  0.20310  0.47640  Biso   1.000  H
  C20      1.0000 0.92255  0.15721  0.51940  Biso   1.000  C
  C21      1.0000 0.96030  0.13882  0.44720  Biso   1.000  C
  N1       1.0000 0.95735  0.14050  0.31740  Biso   1.000  N
  N2       1.0000 0.88665  0.17638  0.45460  Biso   1.000  N
  O1       1.0000 0.94890  0.31645  0.19250  Biso   1.000  O
  O2       1.0000 0.93370  0.24543  0.26760  Biso   1.000  O
  O3       1.0000 0.02925  0.31900  0.33430  Biso   1.000  O
  O4       1.0000 0.10206  0.38204  0.38610  Biso   1.000  O
  O5       1.0000 0.13394  0.32948  0.51050  Biso   1.000  O
  O6       1.0000 0.83070  0.26587  0.97950  Biso   1.000  O
  O7       1.0000 0.85155  0.19385  0.03150  Biso   1.000  O
  Y2       1.0000 0.39117  0.68331  0.71466  Biso   1.000  Y
  C22      1.0000 0.45807  0.78172  0.75890  Biso   1.000  C
  C23      1.0000 0.50151  0.78100  0.83320  Biso   1.000  C
  C24      1.0000 0.52035  0.74671  0.90380  Biso   1.000  C
  H12      1.0000 0.50790  0.71680  0.91750  Biso   1.000  H
  C25      1.0000 0.56246  0.76447  0.95360  Biso   1.000  C
  H13      1.0000 0.58370  0.74860  0.00710  Biso   1.000  H
  C26      1.0000 0.56647  0.80770  0.91070  Biso   1.000  C
  C27      1.0000 0.60204  0.84231  0.93530  Biso   1.000  C
  C28      1.0000 0.32472  0.72298  0.48380  Biso   1.000  C
  C29      1.0000 0.28287  0.70273  0.42590  Biso   1.000  C
  C30      1.0000 0.27110  0.65788  0.40900  Biso   1.000  C
  H14      1.0000 0.28790  0.63160  0.43730  Biso   1.000  H
  C31      1.0000 0.49084  0.62195  0.75060  Biso   1.000  C
  H15      1.0000 0.48900  0.62300  0.66030  Biso   1.000  H
  C32      1.0000 0.52940  0.60050  0.80680  Biso   1.000  C
  H16      1.0000 0.55280  0.58730  0.75520  Biso   1.000  H
  C33      1.0000 0.53260  0.59900  0.93640  Biso   1.000  C
  H17      1.0000 0.55850  0.58470  0.97560  Biso   1.000  H
  C34      1.0000 0.49768  0.61836  0.01140  Biso   1.000  C
  C35      1.0000 0.49700  0.61725  0.14870  Biso   1.000  C
  H18      1.0000 0.52270  0.60460  0.19280  Biso   1.000  H
  C36      1.0000 0.46133  0.63351  0.21560  Biso   1.000  C
  H19      1.0000 0.46170  0.63100  0.30580  Biso   1.000  H
  C37      1.0000 0.42310  0.65437  0.15500  Biso   1.000  C
  C38      1.0000 0.38380  0.67012  0.21990  Biso   1.000  C
  H20      1.0000 0.38250  0.66880  0.31020  Biso   1.000  H
  C39      1.0000 0.34780  0.68710  0.15370  Biso   1.000  C
  H21      1.0000 0.32060  0.69690  0.19670  Biso   1.000  H
  C40      1.0000 0.35070  0.69025  0.02110  Biso   1.000  C
  H22      1.0000 0.32530  0.70310  0.97640  Biso   1.000  H
  C41      1.0000 0.42255  0.65721  0.01940  Biso   1.000  C
  C42      1.0000 0.46030  0.63882  0.94720  Biso   1.000  C
  N3       1.0000 0.45735  0.64050  0.81740  Biso   1.000  N
  N4       1.0000 0.38665  0.67638  0.95460  Biso   1.000  N
  O8       1.0000 0.44890  0.81645  0.69250  Biso   1.000  O
  O9       1.0000 0.43370  0.74543  0.76760  Biso   1.000  O
  O10      1.0000 0.52925  0.81900  0.83430  Biso   1.000  O
  O11      1.0000 0.60206  0.88204  0.88610  Biso   1.000  O
  O12      1.0000 0.63394  0.82948  0.01050  Biso   1.000  O
  O13      1.0000 0.33070  0.76587  0.47950  Biso   1.000  O
  O14      1.0000 0.35155  0.69385  0.53150  Biso   1.000  O
  Y3       1.0000 0.10883  0.81669  0.21466  Biso   1.000  Y
  C43      1.0000 0.04193  0.71828  0.25890  Biso   1.000  C
  C44      1.0000 0.99849  0.71900  0.33320  Biso   1.000  C
  C45      1.0000 0.97965  0.75329  0.40380  Biso   1.000  C
  H23      1.0000 0.99210  0.78320  0.41750  Biso   1.000  H
  C46      1.0000 0.93754  0.73553  0.45360  Biso   1.000  C
  H24      1.0000 0.91630  0.75140  0.50710  Biso   1.000  H
  C47      1.0000 0.93353  0.69230  0.41070  Biso   1.000  C
  C48      1.0000 0.89796  0.65769  0.43530  Biso   1.000  C
  C49      1.0000 0.17528  0.77702  0.98380  Biso   1.000  C
  C50      1.0000 0.21713  0.79727  0.92590  Biso   1.000  C
  C51      1.0000 0.22890  0.84212  0.90900  Biso   1.000  C
  H25      1.0000 0.21210  0.86840  0.93730  Biso   1.000  H
  C52      1.0000 0.00916  0.87805  0.25060  Biso   1.000  C
  H26      1.0000 0.01100  0.87700  0.16030  Biso   1.000  H
  C53      1.0000 0.97060  0.89950  0.30680  Biso   1.000  C
  H27      1.0000 0.94720  0.91270  0.25520  Biso   1.000  H
  C54      1.0000 0.96740  0.90100  0.43640  Biso   1.000  C
  H28      1.0000 0.94150  0.91530  0.47560  Biso   1.000  H
  C55      1.0000 0.00232  0.88164  0.51140  Biso   1.000  C
  C56      1.0000 0.00300  0.88275  0.64870  Biso   1.000  C
  H29      1.0000 0.97730  0.89540  0.69280  Biso   1.000  H
  C57      1.0000 0.03867  0.86649  0.71560  Biso   1.000  C
  H30      1.0000 0.03830  0.86900  0.80580  Biso   1.000  H
  C58      1.0000 0.07690  0.84563  0.65500  Biso   1.000  C
  C59      1.0000 0.11620  0.82988  0.71990  Biso   1.000  C
  H31      1.0000 0.11750  0.83120  0.81020  Biso   1.000  H
  C60      1.0000 0.15220  0.81290  0.65370  Biso   1.000  C
  H32      1.0000 0.17940  0.80310  0.69670  Biso   1.000  H
  C61      1.0000 0.14930  0.80975  0.52110  Biso   1.000  C
  H33      1.0000 0.17470  0.79690  0.47640  Biso   1.000  H
  C62      1.0000 0.07745  0.84279  0.51940  Biso   1.000  C
  C63      1.0000 0.03970  0.86118  0.44720  Biso   1.000  C
  N5       1.0000 0.04265  0.85950  0.31740  Biso   1.000  N
  N6       1.0000 0.11335  0.82362  0.45460  Biso   1.000  N
  O15      1.0000 0.05110  0.68355  0.19250  Biso   1.000  O
  O16      1.0000 0.06630  0.75457  0.26760  Biso   1.000  O
  O17      1.0000 0.97075  0.68100  0.33430  Biso   1.000  O
  O18      1.0000 0.89794  0.61796  0.38610  Biso   1.000  O
  O19      1.0000 0.86606  0.67052  0.51050  Biso   1.000  O
  O20      1.0000 0.16930  0.73413  0.97950  Biso   1.000  O
  O21      1.0000 0.14845  0.80615  0.03150  Biso   1.000  O
  Y4       1.0000 0.60883  0.31669  0.71466  Biso   1.000  Y
  C64      1.0000 0.54193  0.21828  0.75890  Biso   1.000  C
  C65      1.0000 0.49849  0.21900  0.83320  Biso   1.000  C
  C66      1.0000 0.47965  0.25329  0.90380  Biso   1.000  C
  H34      1.0000 0.49210  0.28320  0.91750  Biso   1.000  H
  C67      1.0000 0.43754  0.23553  0.95360  Biso   1.000  C
  H35      1.0000 0.41630  0.25140  0.00710  Biso   1.000  H
  C68      1.0000 0.43353  0.19230  0.91070  Biso   1.000  C
  C69      1.0000 0.39796  0.15769  0.93530  Biso   1.000  C
  C70      1.0000 0.67528  0.27702  0.48380  Biso   1.000  C
  C71      1.0000 0.71713  0.29727  0.42590  Biso   1.000  C
  C72      1.0000 0.72890  0.34212  0.40900  Biso   1.000  C
  H36      1.0000 0.71210  0.36840  0.43730  Biso   1.000  H
  C73      1.0000 0.50916  0.37805  0.75060  Biso   1.000  C
  H37      1.0000 0.51100  0.37700  0.66030  Biso   1.000  H
  C74      1.0000 0.47060  0.39950  0.80680  Biso   1.000  C
  H38      1.0000 0.44720  0.41270  0.75520  Biso   1.000  H
  C75      1.0000 0.46740  0.40100  0.93640  Biso   1.000  C
  H39      1.0000 0.44150  0.41530  0.97560  Biso   1.000  H
  C76      1.0000 0.50232  0.38164  0.01140  Biso   1.000  C
  C77      1.0000 0.50300  0.38275  0.14870  Biso   1.000  C
  H40      1.0000 0.47730  0.39540  0.19280  Biso   1.000  H
  C78      1.0000 0.53867  0.36649  0.21560  Biso   1.000  C
  H41      1.0000 0.53830  0.36900  0.30580  Biso   1.000  H
  C79      1.0000 0.57690  0.34563  0.15500  Biso   1.000  C
  C80      1.0000 0.61620  0.32988  0.21990  Biso   1.000  C
  H42      1.0000 0.61750  0.33120  0.31020  Biso   1.000  H
  C81      1.0000 0.65220  0.31290  0.15370  Biso   1.000  C
  H43      1.0000 0.67940  0.30310  0.19670  Biso   1.000  H
  C82      1.0000 0.64930  0.30975  0.02110  Biso   1.000  C
  H44      1.0000 0.67470  0.29690  0.97640  Biso   1.000  H
  C83      1.0000 0.57745  0.34279  0.01940  Biso   1.000  C
  C84      1.0000 0.53970  0.36118  0.94720  Biso   1.000  C
  N7       1.0000 0.54265  0.35950  0.81740  Biso   1.000  N
  N8       1.0000 0.61335  0.32362  0.95460  Biso   1.000  N
  O22      1.0000 0.55110  0.18355  0.69250  Biso   1.000  O
  O23      1.0000 0.56630  0.25457  0.76760  Biso   1.000  O
  O24      1.0000 0.47075  0.18100  0.83430  Biso   1.000  O
  O25      1.0000 0.39794  0.11796  0.88610  Biso   1.000  O
  O26      1.0000 0.36606  0.17052  0.01050  Biso   1.000  O
  O27      1.0000 0.66930  0.23413  0.47950  Biso   1.000  O
  O28      1.0000 0.64845  0.30615  0.53150  Biso   1.000  O
  Y5       1.0000 0.18331  0.10883  0.78534  Biso   1.000  Y
  C85      1.0000 0.28172  0.04193  0.74110  Biso   1.000  C
  C86      1.0000 0.28100  0.99849  0.66680  Biso   1.000  C
  C87      1.0000 0.24671  0.97965  0.59620  Biso   1.000  C
  H45      1.0000 0.21680  0.99210  0.58250  Biso   1.000  H
  C88      1.0000 0.26447  0.93754  0.54640  Biso   1.000  C
  H46      1.0000 0.24860  0.91630  0.49290  Biso   1.000  H
  C89      1.0000 0.30770  0.93353  0.58930  Biso   1.000  C
  C90      1.0000 0.34231  0.89796  0.56470  Biso   1.000  C
  C91      1.0000 0.22298  0.17528  0.01620  Biso   1.000  C
  C92      1.0000 0.20273  0.21713  0.07410  Biso   1.000  C
  C93      1.0000 0.15788  0.22890  0.09100  Biso   1.000  C
  H47      1.0000 0.13160  0.21210  0.06270  Biso   1.000  H
  C94      1.0000 0.12195  0.00916  0.74940  Biso   1.000  C
  H48      1.0000 0.12300  0.01100  0.83970  Biso   1.000  H
  C95      1.0000 0.10050  0.97060  0.69320  Biso   1.000  C
  H49      1.0000 0.08730  0.94720  0.74480  Biso   1.000  H
  C96      1.0000 0.09900  0.96740  0.56360  Biso   1.000  C
  H50      1.0000 0.08470  0.94150  0.52440  Biso   1.000  H
  C97      1.0000 0.11836  0.00232  0.48860  Biso   1.000  C
  C98      1.0000 0.11725  0.00300  0.35130  Biso   1.000  C
  H51      1.0000 0.10460  0.97730  0.30720  Biso   1.000  H
  C99      1.0000 0.13351  0.03867  0.28440  Biso   1.000  C
  H52      1.0000 0.13100  0.03830  0.19420  Biso   1.000  H
  C100     1.0000 0.15437  0.07690  0.34500  Biso   1.000  C
  C101     1.0000 0.17012  0.11620  0.28010  Biso   1.000  C
  H53      1.0000 0.16880  0.11750  0.18980  Biso   1.000  H
  C102     1.0000 0.18710  0.15220  0.34630  Biso   1.000  C
  H54      1.0000 0.19690  0.17940  0.30330  Biso   1.000  H
  C103     1.0000 0.19025  0.14930  0.47890  Biso   1.000  C
  H55      1.0000 0.20310  0.17470  0.52360  Biso   1.000  H
  C104     1.0000 0.15721  0.07745  0.48060  Biso   1.000  C
  C105     1.0000 0.13882  0.03970  0.55280  Biso   1.000  C
  N9       1.0000 0.14050  0.04265  0.68260  Biso   1.000  N
  N10      1.0000 0.17638  0.11335  0.54540  Biso   1.000  N
  O29      1.0000 0.31645  0.05110  0.80750  Biso   1.000  O
  O30      1.0000 0.24543  0.06630  0.73240  Biso   1.000  O
  O31      1.0000 0.31900  0.97075  0.66570  Biso   1.000  O
  O32      1.0000 0.38204  0.89794  0.61390  Biso   1.000  O
  O33      1.0000 0.32948  0.86606  0.48950  Biso   1.000  O
  O34      1.0000 0.26587  0.16930  0.02050  Biso   1.000  O
  O35      1.0000 0.19385  0.14845  0.96850  Biso   1.000  O
  Y6       1.0000 0.68331  0.60883  0.28534  Biso   1.000  Y
  C106     1.0000 0.78172  0.54193  0.24110  Biso   1.000  C
  C107     1.0000 0.78100  0.49849  0.16680  Biso   1.000  C
  C108     1.0000 0.74671  0.47965  0.09620  Biso   1.000  C
  H56      1.0000 0.71680  0.49210  0.08250  Biso   1.000  H
  C109     1.0000 0.76447  0.43754  0.04640  Biso   1.000  C
  H57      1.0000 0.74860  0.41630  0.99290  Biso   1.000  H
  C110     1.0000 0.80770  0.43353  0.08930  Biso   1.000  C
  C111     1.0000 0.84231  0.39796  0.06470  Biso   1.000  C
  C112     1.0000 0.72298  0.67528  0.51620  Biso   1.000  C
  C113     1.0000 0.70273  0.71713  0.57410  Biso   1.000  C
  C114     1.0000 0.65788  0.72890  0.59100  Biso   1.000  C
  H58      1.0000 0.63160  0.71210  0.56270  Biso   1.000  H
  C115     1.0000 0.62195  0.50916  0.24940  Biso   1.000  C
  H59      1.0000 0.62300  0.51100  0.33970  Biso   1.000  H
  C116     1.0000 0.60050  0.47060  0.19320  Biso   1.000  C
  H60      1.0000 0.58730  0.44720  0.24480  Biso   1.000  H
  C117     1.0000 0.59900  0.46740  0.06360  Biso   1.000  C
  H61      1.0000 0.58470  0.44150  0.02440  Biso   1.000  H
  C118     1.0000 0.61836  0.50232  0.98860  Biso   1.000  C
  C119     1.0000 0.61725  0.50300  0.85130  Biso   1.000  C
  H62      1.0000 0.60460  0.47730  0.80720  Biso   1.000  H
  C120     1.0000 0.63351  0.53867  0.78440  Biso   1.000  C
  H63      1.0000 0.63100  0.53830  0.69420  Biso   1.000  H
  C121     1.0000 0.65437  0.57690  0.84500  Biso   1.000  C
  C122     1.0000 0.67012  0.61620  0.78010  Biso   1.000  C
  H64      1.0000 0.66880  0.61750  0.68980  Biso   1.000  H
  C123     1.0000 0.68710  0.65220  0.84630  Biso   1.000  C
  H65      1.0000 0.69690  0.67940  0.80330  Biso   1.000  H
  C124     1.0000 0.69025  0.64930  0.97890  Biso   1.000  C
  H66      1.0000 0.70310  0.67470  0.02360  Biso   1.000  H
  C125     1.0000 0.65721  0.57745  0.98060  Biso   1.000  C
  C126     1.0000 0.63882  0.53970  0.05280  Biso   1.000  C
  N11      1.0000 0.64050  0.54265  0.18260  Biso   1.000  N
  N12      1.0000 0.67638  0.61335  0.04540  Biso   1.000  N
  O36      1.0000 0.81645  0.55110  0.30750  Biso   1.000  O
  O37      1.0000 0.74543  0.56630  0.23240  Biso   1.000  O
  O38      1.0000 0.81900  0.47075  0.16570  Biso   1.000  O
  O39      1.0000 0.88204  0.39794  0.11390  Biso   1.000  O
  O40      1.0000 0.82948  0.36606  0.98950  Biso   1.000  O
  O41      1.0000 0.76587  0.66930  0.52050  Biso   1.000  O
  O42      1.0000 0.69385  0.64845  0.46850  Biso   1.000  O
  Y7       1.0000 0.81669  0.89117  0.78534  Biso   1.000  Y
  C127     1.0000 0.71828  0.95807  0.74110  Biso   1.000  C
  C128     1.0000 0.71900  0.00151  0.66680  Biso   1.000  C
  C129     1.0000 0.75329  0.02035  0.59620  Biso   1.000  C
  H67      1.0000 0.78320  0.00790  0.58250  Biso   1.000  H
  C130     1.0000 0.73553  0.06246  0.54640  Biso   1.000  C
  H68      1.0000 0.75140  0.08370  0.49290  Biso   1.000  H
  C131     1.0000 0.69230  0.06647  0.58930  Biso   1.000  C
  C132     1.0000 0.65769  0.10204  0.56470  Biso   1.000  C
  C133     1.0000 0.77702  0.82472  0.01620  Biso   1.000  C
  C134     1.0000 0.79727  0.78287  0.07410  Biso   1.000  C
  C135     1.0000 0.84212  0.77110  0.09100  Biso   1.000  C
  H69      1.0000 0.86840  0.78790  0.06270  Biso   1.000  H
  C136     1.0000 0.87805  0.99084  0.74940  Biso   1.000  C
  H70      1.0000 0.87700  0.98900  0.83970  Biso   1.000  H
  C137     1.0000 0.89950  0.02940  0.69320  Biso   1.000  C
  H71      1.0000 0.91270  0.05280  0.74480  Biso   1.000  H
  C138     1.0000 0.90100  0.03260  0.56360  Biso   1.000  C
  H72      1.0000 0.91530  0.05850  0.52440  Biso   1.000  H
  C139     1.0000 0.88164  0.99768  0.48860  Biso   1.000  C
  C140     1.0000 0.88275  0.99700  0.35130  Biso   1.000  C
  H73      1.0000 0.89540  0.02270  0.30720  Biso   1.000  H
  C141     1.0000 0.86649  0.96133  0.28440  Biso   1.000  C
  H74      1.0000 0.86900  0.96170  0.19420  Biso   1.000  H
  C142     1.0000 0.84563  0.92310  0.34500  Biso   1.000  C
  C143     1.0000 0.82988  0.88380  0.28010  Biso   1.000  C
  H75      1.0000 0.83120  0.88250  0.18980  Biso   1.000  H
  C144     1.0000 0.81290  0.84780  0.34630  Biso   1.000  C
  H76      1.0000 0.80310  0.82060  0.30330  Biso   1.000  H
  C145     1.0000 0.80975  0.85070  0.47890  Biso   1.000  C
  H77      1.0000 0.79690  0.82530  0.52360  Biso   1.000  H
  C146     1.0000 0.84279  0.92255  0.48060  Biso   1.000  C
  C147     1.0000 0.86118  0.96030  0.55280  Biso   1.000  C
  N13      1.0000 0.85950  0.95735  0.68260  Biso   1.000  N
  N14      1.0000 0.82362  0.88665  0.54540  Biso   1.000  N
  O43      1.0000 0.68355  0.94890  0.80750  Biso   1.000  O
  O44      1.0000 0.75457  0.93370  0.73240  Biso   1.000  O
  O45      1.0000 0.68100  0.02925  0.66570  Biso   1.000  O
  O46      1.0000 0.61796  0.10206  0.61390  Biso   1.000  O
  O47      1.0000 0.67052  0.13394  0.48950  Biso   1.000  O
  O48      1.0000 0.73413  0.83070  0.02050  Biso   1.000  O
  O49      1.0000 0.80615  0.85155  0.96850  Biso   1.000  O
  Y8       1.0000 0.31669  0.39117  0.28534  Biso   1.000  Y
  C148     1.0000 0.21828  0.45807  0.24110  Biso   1.000  C
  C149     1.0000 0.21900  0.50151  0.16680  Biso   1.000  C
  C150     1.0000 0.25329  0.52035  0.09620  Biso   1.000  C
  H78      1.0000 0.28320  0.50790  0.08250  Biso   1.000  H
  C151     1.0000 0.23553  0.56246  0.04640  Biso   1.000  C
  H79      1.0000 0.25140  0.58370  0.99290  Biso   1.000  H
  C152     1.0000 0.19230  0.56647  0.08930  Biso   1.000  C
  C153     1.0000 0.15769  0.60204  0.06470  Biso   1.000  C
  C154     1.0000 0.27702  0.32472  0.51620  Biso   1.000  C
  C155     1.0000 0.29727  0.28287  0.57410  Biso   1.000  C
  C156     1.0000 0.34212  0.27110  0.59100  Biso   1.000  C
  H80      1.0000 0.36840  0.28790  0.56270  Biso   1.000  H
  C157     1.0000 0.37805  0.49084  0.24940  Biso   1.000  C
  H81      1.0000 0.37700  0.48900  0.33970  Biso   1.000  H
  C158     1.0000 0.39950  0.52940  0.19320  Biso   1.000  C
  H82      1.0000 0.41270  0.55280  0.24480  Biso   1.000  H
  C159     1.0000 0.40100  0.53260  0.06360  Biso   1.000  C
  H83      1.0000 0.41530  0.55850  0.02440  Biso   1.000  H
  C160     1.0000 0.38164  0.49768  0.98860  Biso   1.000  C
  C161     1.0000 0.38275  0.49700  0.85130  Biso   1.000  C
  H84      1.0000 0.39540  0.52270  0.80720  Biso   1.000  H
  C162     1.0000 0.36649  0.46133  0.78440  Biso   1.000  C
  H85      1.0000 0.36900  0.46170  0.69420  Biso   1.000  H
  C163     1.0000 0.34563  0.42310  0.84500  Biso   1.000  C
  C164     1.0000 0.32988  0.38380  0.78010  Biso   1.000  C
  H86      1.0000 0.33120  0.38250  0.68980  Biso   1.000  H
  C165     1.0000 0.31290  0.34780  0.84630  Biso   1.000  C
  H87      1.0000 0.30310  0.32060  0.80330  Biso   1.000  H
  C166     1.0000 0.30975  0.35070  0.97890  Biso   1.000  C
  H88      1.0000 0.29690  0.32530  0.02360  Biso   1.000  H
  C167     1.0000 0.34279  0.42255  0.98060  Biso   1.000  C
  C168     1.0000 0.36118  0.46030  0.05280  Biso   1.000  C
  N15      1.0000 0.35950  0.45735  0.18260  Biso   1.000  N
  N16      1.0000 0.32362  0.38665  0.04540  Biso   1.000  N
  O50      1.0000 0.18355  0.44890  0.30750  Biso   1.000  O
  O51      1.0000 0.25457  0.43370  0.23240  Biso   1.000  O
  O52      1.0000 0.18100  0.52925  0.16570  Biso   1.000  O
  O53      1.0000 0.11796  0.60206  0.11390  Biso   1.000  O
  O54      1.0000 0.17052  0.63394  0.98950  Biso   1.000  O
  O55      1.0000 0.23413  0.33070  0.52050  Biso   1.000  O
  O56      1.0000 0.30615  0.35155  0.46850  Biso   1.000  O
  Y9       1.0000 0.60883  0.18331  0.53534  Biso   1.000  Y
  C169     1.0000 0.54193  0.28172  0.49110  Biso   1.000  C
  C170     1.0000 0.49849  0.28100  0.41680  Biso   1.000  C
  C171     1.0000 0.47965  0.24671  0.34620  Biso   1.000  C
  H89      1.0000 0.49210  0.21680  0.33250  Biso   1.000  H
  C172     1.0000 0.43754  0.26447  0.29640  Biso   1.000  C
  H90      1.0000 0.41630  0.24860  0.24290  Biso   1.000  H
  C173     1.0000 0.43353  0.30770  0.33930  Biso   1.000  C
  C174     1.0000 0.39796  0.34231  0.31470  Biso   1.000  C
  C175     1.0000 0.67528  0.22298  0.76620  Biso   1.000  C
  C176     1.0000 0.71713  0.20273  0.82410  Biso   1.000  C
  C177     1.0000 0.72890  0.15788  0.84100  Biso   1.000  C
  H91      1.0000 0.71210  0.13160  0.81270  Biso   1.000  H
  C178     1.0000 0.50916  0.12195  0.49940  Biso   1.000  C
  H92      1.0000 0.51100  0.12300  0.58970  Biso   1.000  H
  C179     1.0000 0.47060  0.10050  0.44320  Biso   1.000  C
  H93      1.0000 0.44720  0.08730  0.49480  Biso   1.000  H
  C180     1.0000 0.46740  0.09900  0.31360  Biso   1.000  C
  H94      1.0000 0.44150  0.08470  0.27440  Biso   1.000  H
  C181     1.0000 0.50232  0.11836  0.23860  Biso   1.000  C
  C182     1.0000 0.50300  0.11725  0.10130  Biso   1.000  C
  H95      1.0000 0.47730  0.10460  0.05720  Biso   1.000  H
  C183     1.0000 0.53867  0.13351  0.03440  Biso   1.000  C
  H96      1.0000 0.53830  0.13100  0.94420  Biso   1.000  H
  C184     1.0000 0.57690  0.15437  0.09500  Biso   1.000  C
  C185     1.0000 0.61620  0.17012  0.03010  Biso   1.000  C
  H97      1.0000 0.61750  0.16880  0.93980  Biso   1.000  H
  C186     1.0000 0.65220  0.18710  0.09630  Biso   1.000  C
  H98      1.0000 0.67940  0.19690  0.05330  Biso   1.000  H
  C187     1.0000 0.64930  0.19025  0.22890  Biso   1.000  C
  H99      1.0000 0.67470  0.20310  0.27360  Biso   1.000  H
  C188     1.0000 0.57745  0.15721  0.23060  Biso   1.000  C
  C189     1.0000 0.53970  0.13882  0.30280  Biso   1.000  C
  N17      1.0000 0.54265  0.14050  0.43260  Biso   1.000  N
  N18      1.0000 0.61335  0.17638  0.29540  Biso   1.000  N
  O57      1.0000 0.55110  0.31645  0.55750  Biso   1.000  O
  O58      1.0000 0.56630  0.24543  0.48240  Biso   1.000  O
  O59      1.0000 0.47075  0.31900  0.41570  Biso   1.000  O
  O60      1.0000 0.39794  0.38204  0.36390  Biso   1.000  O
  O61      1.0000 0.36606  0.32948  0.23950  Biso   1.000  O
  O62      1.0000 0.66930  0.26587  0.77050  Biso   1.000  O
  O63      1.0000 0.64845  0.19385  0.71850  Biso   1.000  O
  Y10      1.0000 0.10883  0.68331  0.03534  Biso   1.000  Y
  C190     1.0000 0.04193  0.78172  0.99110  Biso   1.000  C
  C191     1.0000 0.99849  0.78100  0.91680  Biso   1.000  C
  C192     1.0000 0.97965  0.74671  0.84620  Biso   1.000  C
  H100     1.0000 0.99210  0.71680  0.83250  Biso   1.000  H
  C193     1.0000 0.93754  0.76447  0.79640  Biso   1.000  C
  H101     1.0000 0.91630  0.74860  0.74290  Biso   1.000  H
  C194     1.0000 0.93353  0.80770  0.83930  Biso   1.000  C
  C195     1.0000 0.89796  0.84231  0.81470  Biso   1.000  C
  C196     1.0000 0.17528  0.72298  0.26620  Biso   1.000  C
  C197     1.0000 0.21713  0.70273  0.32410  Biso   1.000  C
  C198     1.0000 0.22890  0.65788  0.34100  Biso   1.000  C
  H102     1.0000 0.21210  0.63160  0.31270  Biso   1.000  H
  C199     1.0000 0.00916  0.62195  0.99940  Biso   1.000  C
  H103     1.0000 0.01100  0.62300  0.08970  Biso   1.000  H
  C200     1.0000 0.97060  0.60050  0.94320  Biso   1.000  C
  H104     1.0000 0.94720  0.58730  0.99480  Biso   1.000  H
  C201     1.0000 0.96740  0.59900  0.81360  Biso   1.000  C
  H105     1.0000 0.94150  0.58470  0.77440  Biso   1.000  H
  C202     1.0000 0.00232  0.61836  0.73860  Biso   1.000  C
  C203     1.0000 0.00300  0.61725  0.60130  Biso   1.000  C
  H106     1.0000 0.97730  0.60460  0.55720  Biso   1.000  H
  C204     1.0000 0.03867  0.63351  0.53440  Biso   1.000  C
  H107     1.0000 0.03830  0.63100  0.44420  Biso   1.000  H
  C205     1.0000 0.07690  0.65437  0.59500  Biso   1.000  C
  C206     1.0000 0.11620  0.67012  0.53010  Biso   1.000  C
  H108     1.0000 0.11750  0.66880  0.43980  Biso   1.000  H
  C207     1.0000 0.15220  0.68710  0.59630  Biso   1.000  C
  H109     1.0000 0.17940  0.69690  0.55330  Biso   1.000  H
  C208     1.0000 0.14930  0.69025  0.72890  Biso   1.000  C
  H110     1.0000 0.17470  0.70310  0.77360  Biso   1.000  H
  C209     1.0000 0.07745  0.65721  0.73060  Biso   1.000  C
  C210     1.0000 0.03970  0.63882  0.80280  Biso   1.000  C
  N19      1.0000 0.04265  0.64050  0.93260  Biso   1.000  N
  N20      1.0000 0.11335  0.67638  0.79540  Biso   1.000  N
  O64      1.0000 0.05110  0.81645  0.05750  Biso   1.000  O
  O65      1.0000 0.06630  0.74543  0.98240  Biso   1.000  O
  O66      1.0000 0.97075  0.81900  0.91570  Biso   1.000  O
  O67      1.0000 0.89794  0.88204  0.86390  Biso   1.000  O
  O68      1.0000 0.86606  0.82948  0.73950  Biso   1.000  O
  O69      1.0000 0.16930  0.76587  0.27050  Biso   1.000  O
  O70      1.0000 0.14845  0.69385  0.21850  Biso   1.000  O
  Y11      1.0000 0.39117  0.81669  0.53534  Biso   1.000  Y
  C211     1.0000 0.45807  0.71828  0.49110  Biso   1.000  C
  C212     1.0000 0.50151  0.71900  0.41680  Biso   1.000  C
  C213     1.0000 0.52035  0.75329  0.34620  Biso   1.000  C
  H111     1.0000 0.50790  0.78320  0.33250  Biso   1.000  H
  C214     1.0000 0.56246  0.73553  0.29640  Biso   1.000  C
  H112     1.0000 0.58370  0.75140  0.24290  Biso   1.000  H
  C215     1.0000 0.56647  0.69230  0.33930  Biso   1.000  C
  C216     1.0000 0.60204  0.65769  0.31470  Biso   1.000  C
  C217     1.0000 0.32472  0.77702  0.76620  Biso   1.000  C
  C218     1.0000 0.28287  0.79727  0.82410  Biso   1.000  C
  C219     1.0000 0.27110  0.84212  0.84100  Biso   1.000  C
  H113     1.0000 0.28790  0.86840  0.81270  Biso   1.000  H
  C220     1.0000 0.49084  0.87805  0.49940  Biso   1.000  C
  H114     1.0000 0.48900  0.87700  0.58970  Biso   1.000  H
  C221     1.0000 0.52940  0.89950  0.44320  Biso   1.000  C
  H115     1.0000 0.55280  0.91270  0.49480  Biso   1.000  H
  C222     1.0000 0.53260  0.90100  0.31360  Biso   1.000  C
  H116     1.0000 0.55850  0.91530  0.27440  Biso   1.000  H
  C223     1.0000 0.49768  0.88164  0.23860  Biso   1.000  C
  C224     1.0000 0.49700  0.88275  0.10130  Biso   1.000  C
  H117     1.0000 0.52270  0.89540  0.05720  Biso   1.000  H
  C225     1.0000 0.46133  0.86649  0.03440  Biso   1.000  C
  H118     1.0000 0.46170  0.86900  0.94420  Biso   1.000  H
  C226     1.0000 0.42310  0.84563  0.09500  Biso   1.000  C
  C227     1.0000 0.38380  0.82988  0.03010  Biso   1.000  C
  H119     1.0000 0.38250  0.83120  0.93980  Biso   1.000  H
  C228     1.0000 0.34780  0.81290  0.09630  Biso   1.000  C
  H120     1.0000 0.32060  0.80310  0.05330  Biso   1.000  H
  C229     1.0000 0.35070  0.80975  0.22890  Biso   1.000  C
  H121     1.0000 0.32530  0.79690  0.27360  Biso   1.000  H
  C230     1.0000 0.42255  0.84279  0.23060  Biso   1.000  C
  C231     1.0000 0.46030  0.86118  0.30280  Biso   1.000  C
  N21      1.0000 0.45735  0.85950  0.43260  Biso   1.000  N
  N22      1.0000 0.38665  0.82362  0.29540  Biso   1.000  N
  O71      1.0000 0.44890  0.68355  0.55750  Biso   1.000  O
  O72      1.0000 0.43370  0.75457  0.48240  Biso   1.000  O
  O73      1.0000 0.52925  0.68100  0.41570  Biso   1.000  O
  O74      1.0000 0.60206  0.61796  0.36390  Biso   1.000  O
  O75      1.0000 0.63394  0.67052  0.23950  Biso   1.000  O
  O76      1.0000 0.33070  0.73413  0.77050  Biso   1.000  O
  O77      1.0000 0.35155  0.80615  0.71850  Biso   1.000  O
  Y12      1.0000 0.89117  0.31669  0.03534  Biso   1.000  Y
  C232     1.0000 0.95807  0.21828  0.99110  Biso   1.000  C
  C233     1.0000 0.00151  0.21900  0.91680  Biso   1.000  C
  C234     1.0000 0.02035  0.25329  0.84620  Biso   1.000  C
  H122     1.0000 0.00790  0.28320  0.83250  Biso   1.000  H
  C235     1.0000 0.06246  0.23553  0.79640  Biso   1.000  C
  H123     1.0000 0.08370  0.25140  0.74290  Biso   1.000  H
  C236     1.0000 0.06647  0.19230  0.83930  Biso   1.000  C
  C237     1.0000 0.10204  0.15769  0.81470  Biso   1.000  C
  C238     1.0000 0.82472  0.27702  0.26620  Biso   1.000  C
  C239     1.0000 0.78287  0.29727  0.32410  Biso   1.000  C
  C240     1.0000 0.77110  0.34212  0.34100  Biso   1.000  C
  H124     1.0000 0.78790  0.36840  0.31270  Biso   1.000  H
  C241     1.0000 0.99084  0.37805  0.99940  Biso   1.000  C
  H125     1.0000 0.98900  0.37700  0.08970  Biso   1.000  H
  C242     1.0000 0.02940  0.39950  0.94320  Biso   1.000  C
  H126     1.0000 0.05280  0.41270  0.99480  Biso   1.000  H
  C243     1.0000 0.03260  0.40100  0.81360  Biso   1.000  C
  H127     1.0000 0.05850  0.41530  0.77440  Biso   1.000  H
  C244     1.0000 0.99768  0.38164  0.73860  Biso   1.000  C
  C245     1.0000 0.99700  0.38275  0.60130  Biso   1.000  C
  H128     1.0000 0.02270  0.39540  0.55720  Biso   1.000  H
  C246     1.0000 0.96133  0.36649  0.53440  Biso   1.000  C
  H129     1.0000 0.96170  0.36900  0.44420  Biso   1.000  H
  C247     1.0000 0.92310  0.34563  0.59500  Biso   1.000  C
  C248     1.0000 0.88380  0.32988  0.53010  Biso   1.000  C
  H130     1.0000 0.88250  0.33120  0.43980  Biso   1.000  H
  C249     1.0000 0.84780  0.31290  0.59630  Biso   1.000  C
  H131     1.0000 0.82060  0.30310  0.55330  Biso   1.000  H
  C250     1.0000 0.85070  0.30975  0.72890  Biso   1.000  C
  H132     1.0000 0.82530  0.29690  0.77360  Biso   1.000  H
  C251     1.0000 0.92255  0.34279  0.73060  Biso   1.000  C
  C252     1.0000 0.96030  0.36118  0.80280  Biso   1.000  C
  N23      1.0000 0.95735  0.35950  0.93260  Biso   1.000  N
  N24      1.0000 0.88665  0.32362  0.79540  Biso   1.000  N
  O78      1.0000 0.94890  0.18355  0.05750  Biso   1.000  O
  O79      1.0000 0.93370  0.25457  0.98240  Biso   1.000  O
  O80      1.0000 0.02925  0.18100  0.91570  Biso   1.000  O
  O81      1.0000 0.10206  0.11796  0.86390  Biso   1.000  O
  O82      1.0000 0.13394  0.17052  0.73950  Biso   1.000  O
  O83      1.0000 0.83070  0.23413  0.27050  Biso   1.000  O
  O84      1.0000 0.85155  0.30615  0.21850  Biso   1.000  O
  Y13      1.0000 0.31669  0.10883  0.96466  Biso   1.000  Y
  C253     1.0000 0.21828  0.04193  0.00890  Biso   1.000  C
  C254     1.0000 0.21900  0.99849  0.08320  Biso   1.000  C
  C255     1.0000 0.25329  0.97965  0.15380  Biso   1.000  C
  H133     1.0000 0.28320  0.99210  0.16750  Biso   1.000  H
  C256     1.0000 0.23553  0.93754  0.20360  Biso   1.000  C
  H134     1.0000 0.25140  0.91630  0.25710  Biso   1.000  H
  C257     1.0000 0.19230  0.93353  0.16070  Biso   1.000  C
  C258     1.0000 0.15769  0.89796  0.18530  Biso   1.000  C
  C259     1.0000 0.27702  0.17528  0.73380  Biso   1.000  C
  C260     1.0000 0.29727  0.21713  0.67590  Biso   1.000  C
  C261     1.0000 0.34212  0.22890  0.65900  Biso   1.000  C
  H135     1.0000 0.36840  0.21210  0.68730  Biso   1.000  H
  C262     1.0000 0.37805  0.00916  0.00060  Biso   1.000  C
  H136     1.0000 0.37700  0.01100  0.91030  Biso   1.000  H
  C263     1.0000 0.39950  0.97060  0.05680  Biso   1.000  C
  H137     1.0000 0.41270  0.94720  0.00520  Biso   1.000  H
  C264     1.0000 0.40100  0.96740  0.18640  Biso   1.000  C
  H138     1.0000 0.41530  0.94150  0.22560  Biso   1.000  H
  C265     1.0000 0.38164  0.00232  0.26140  Biso   1.000  C
  C266     1.0000 0.38275  0.00300  0.39870  Biso   1.000  C
  H139     1.0000 0.39540  0.97730  0.44280  Biso   1.000  H
  C267     1.0000 0.36649  0.03867  0.46560  Biso   1.000  C
  H140     1.0000 0.36900  0.03830  0.55580  Biso   1.000  H
  C268     1.0000 0.34563  0.07690  0.40500  Biso   1.000  C
  C269     1.0000 0.32988  0.11620  0.46990  Biso   1.000  C
  H141     1.0000 0.33120  0.11750  0.56020  Biso   1.000  H
  C270     1.0000 0.31290  0.15220  0.40370  Biso   1.000  C
  H142     1.0000 0.30310  0.17940  0.44670  Biso   1.000  H
  C271     1.0000 0.30975  0.14930  0.27110  Biso   1.000  C
  H143     1.0000 0.29690  0.17470  0.22640  Biso   1.000  H
  C272     1.0000 0.34279  0.07745  0.26940  Biso   1.000  C
  C273     1.0000 0.36118  0.03970  0.19720  Biso   1.000  C
  N25      1.0000 0.35950  0.04265  0.06740  Biso   1.000  N
  N26      1.0000 0.32362  0.11335  0.20460  Biso   1.000  N
  O85      1.0000 0.18355  0.05110  0.94250  Biso   1.000  O
  O86      1.0000 0.25457  0.06630  0.01760  Biso   1.000  O
  O87      1.0000 0.18100  0.97075  0.08430  Biso   1.000  O
  O88      1.0000 0.11796  0.89794  0.13610  Biso   1.000  O
  O89      1.0000 0.17052  0.86606  0.26050  Biso   1.000  O
  O90      1.0000 0.23413  0.16930  0.72950  Biso   1.000  O
  O91      1.0000 0.30615  0.14845  0.78150  Biso   1.000  O
  Y14      1.0000 0.81669  0.60883  0.46466  Biso   1.000  Y
  C274     1.0000 0.71828  0.54193  0.50890  Biso   1.000  C
  C275     1.0000 0.71900  0.49849  0.58320  Biso   1.000  C
  C276     1.0000 0.75329  0.47965  0.65380  Biso   1.000  C
  H144     1.0000 0.78320  0.49210  0.66750  Biso   1.000  H
  C277     1.0000 0.73553  0.43754  0.70360  Biso   1.000  C
  H145     1.0000 0.75140  0.41630  0.75710  Biso   1.000  H
  C278     1.0000 0.69230  0.43353  0.66070  Biso   1.000  C
  C279     1.0000 0.65769  0.39796  0.68530  Biso   1.000  C
  C280     1.0000 0.77702  0.67528  0.23380  Biso   1.000  C
  C281     1.0000 0.79727  0.71713  0.17590  Biso   1.000  C
  C282     1.0000 0.84212  0.72890  0.15900  Biso   1.000  C
  H146     1.0000 0.86840  0.71210  0.18730  Biso   1.000  H
  C283     1.0000 0.87805  0.50916  0.50060  Biso   1.000  C
  H147     1.0000 0.87700  0.51100  0.41030  Biso   1.000  H
  C284     1.0000 0.89950  0.47060  0.55680  Biso   1.000  C
  H148     1.0000 0.91270  0.44720  0.50520  Biso   1.000  H
  C285     1.0000 0.90100  0.46740  0.68640  Biso   1.000  C
  H149     1.0000 0.91530  0.44150  0.72560  Biso   1.000  H
  C286     1.0000 0.88164  0.50232  0.76140  Biso   1.000  C
  C287     1.0000 0.88275  0.50300  0.89870  Biso   1.000  C
  H150     1.0000 0.89540  0.47730  0.94280  Biso   1.000  H
  C288     1.0000 0.86649  0.53867  0.96560  Biso   1.000  C
  H151     1.0000 0.86900  0.53830  0.05580  Biso   1.000  H
  C289     1.0000 0.84563  0.57690  0.90500  Biso   1.000  C
  C290     1.0000 0.82988  0.61620  0.96990  Biso   1.000  C
  H152     1.0000 0.83120  0.61750  0.06020  Biso   1.000  H
  C291     1.0000 0.81290  0.65220  0.90370  Biso   1.000  C
  H153     1.0000 0.80310  0.67940  0.94670  Biso   1.000  H
  C292     1.0000 0.80975  0.64930  0.77110  Biso   1.000  C
  H154     1.0000 0.79690  0.67470  0.72640  Biso   1.000  H
  C293     1.0000 0.84279  0.57745  0.76940  Biso   1.000  C
  C294     1.0000 0.86118  0.53970  0.69720  Biso   1.000  C
  N27      1.0000 0.85950  0.54265  0.56740  Biso   1.000  N
  N28      1.0000 0.82362  0.61335  0.70460  Biso   1.000  N
  O92      1.0000 0.68355  0.55110  0.44250  Biso   1.000  O
  O93      1.0000 0.75457  0.56630  0.51760  Biso   1.000  O
  O94      1.0000 0.68100  0.47075  0.58430  Biso   1.000  O
  O95      1.0000 0.61796  0.39794  0.63610  Biso   1.000  O
  O96      1.0000 0.67052  0.36606  0.76050  Biso   1.000  O
  O97      1.0000 0.73413  0.66930  0.22950  Biso   1.000  O
  O98      1.0000 0.80615  0.64845  0.28150  Biso   1.000  O
  Y15      1.0000 0.68331  0.89117  0.96466  Biso   1.000  Y
  C295     1.0000 0.78172  0.95807  0.00890  Biso   1.000  C
  C296     1.0000 0.78100  0.00151  0.08320  Biso   1.000  C
  C297     1.0000 0.74671  0.02035  0.15380  Biso   1.000  C
  H155     1.0000 0.71680  0.00790  0.16750  Biso   1.000  H
  C298     1.0000 0.76447  0.06246  0.20360  Biso   1.000  C
  H156     1.0000 0.74860  0.08370  0.25710  Biso   1.000  H
  C299     1.0000 0.80770  0.06647  0.16070  Biso   1.000  C
  C300     1.0000 0.84231  0.10204  0.18530  Biso   1.000  C
  C301     1.0000 0.72298  0.82472  0.73380  Biso   1.000  C
  C302     1.0000 0.70273  0.78287  0.67590  Biso   1.000  C
  C303     1.0000 0.65788  0.77110  0.65900  Biso   1.000  C
  H157     1.0000 0.63160  0.78790  0.68730  Biso   1.000  H
  C304     1.0000 0.62195  0.99084  0.00060  Biso   1.000  C
  H158     1.0000 0.62300  0.98900  0.91030  Biso   1.000  H
  C305     1.0000 0.60050  0.02940  0.05680  Biso   1.000  C
  H159     1.0000 0.58730  0.05280  0.00520  Biso   1.000  H
  C306     1.0000 0.59900  0.03260  0.18640  Biso   1.000  C
  H160     1.0000 0.58470  0.05850  0.22560  Biso   1.000  H
  C307     1.0000 0.61836  0.99768  0.26140  Biso   1.000  C
  C308     1.0000 0.61725  0.99700  0.39870  Biso   1.000  C
  H161     1.0000 0.60460  0.02270  0.44280  Biso   1.000  H
  C309     1.0000 0.63351  0.96133  0.46560  Biso   1.000  C
  H162     1.0000 0.63100  0.96170  0.55580  Biso   1.000  H
  C310     1.0000 0.65437  0.92310  0.40500  Biso   1.000  C
  C311     1.0000 0.67012  0.88380  0.46990  Biso   1.000  C
  H163     1.0000 0.66880  0.88250  0.56020  Biso   1.000  H
  C312     1.0000 0.68710  0.84780  0.40370  Biso   1.000  C
  H164     1.0000 0.69690  0.82060  0.44670  Biso   1.000  H
  C313     1.0000 0.69025  0.85070  0.27110  Biso   1.000  C
  H165     1.0000 0.70310  0.82530  0.22640  Biso   1.000  H
  C314     1.0000 0.65721  0.92255  0.26940  Biso   1.000  C
  C315     1.0000 0.63882  0.96030  0.19720  Biso   1.000  C
  N29      1.0000 0.64050  0.95735  0.06740  Biso   1.000  N
  N30      1.0000 0.67638  0.88665  0.20460  Biso   1.000  N
  O99      1.0000 0.81645  0.94890  0.94250  Biso   1.000  O
  O100     1.0000 0.74543  0.93370  0.01760  Biso   1.000  O
  O101     1.0000 0.81900  0.02925  0.08430  Biso   1.000  O
  O102     1.0000 0.88204  0.10206  0.13610  Biso   1.000  O
  O103     1.0000 0.82948  0.13394  0.26050  Biso   1.000  O
  O104     1.0000 0.76587  0.83070  0.72950  Biso   1.000  O
  O105     1.0000 0.69385  0.85155  0.78150  Biso   1.000  O
  Y16      1.0000 0.18331  0.39117  0.46466  Biso   1.000  Y
  C316     1.0000 0.28172  0.45807  0.50890  Biso   1.000  C
  C317     1.0000 0.28100  0.50151  0.58320  Biso   1.000  C
  C318     1.0000 0.24671  0.52035  0.65380  Biso   1.000  C
  H166     1.0000 0.21680  0.50790  0.66750  Biso   1.000  H
  C319     1.0000 0.26447  0.56246  0.70360  Biso   1.000  C
  H167     1.0000 0.24860  0.58370  0.75710  Biso   1.000  H
  C320     1.0000 0.30770  0.56647  0.66070  Biso   1.000  C
  C321     1.0000 0.34231  0.60204  0.68530  Biso   1.000  C
  C322     1.0000 0.22298  0.32472  0.23380  Biso   1.000  C
  C323     1.0000 0.20273  0.28287  0.17590  Biso   1.000  C
  C324     1.0000 0.15788  0.27110  0.15900  Biso   1.000  C
  H168     1.0000 0.13160  0.28790  0.18730  Biso   1.000  H
  C325     1.0000 0.12195  0.49084  0.50060  Biso   1.000  C
  H169     1.0000 0.12300  0.48900  0.41030  Biso   1.000  H
  C326     1.0000 0.10050  0.52940  0.55680  Biso   1.000  C
  H170     1.0000 0.08730  0.55280  0.50520  Biso   1.000  H
  C327     1.0000 0.09900  0.53260  0.68640  Biso   1.000  C
  H171     1.0000 0.08470  0.55850  0.72560  Biso   1.000  H
  C328     1.0000 0.11836  0.49768  0.76140  Biso   1.000  C
  C329     1.0000 0.11725  0.49700  0.89870  Biso   1.000  C
  H172     1.0000 0.10460  0.52270  0.94280  Biso   1.000  H
  C330     1.0000 0.13351  0.46133  0.96560  Biso   1.000  C
  H173     1.0000 0.13100  0.46170  0.05580  Biso   1.000  H
  C331     1.0000 0.15437  0.42310  0.90500  Biso   1.000  C
  C332     1.0000 0.17012  0.38380  0.96990  Biso   1.000  C
  H174     1.0000 0.16880  0.38250  0.06020  Biso   1.000  H
  C333     1.0000 0.18710  0.34780  0.90370  Biso   1.000  C
  H175     1.0000 0.19690  0.32060  0.94670  Biso   1.000  H
  C334     1.0000 0.19025  0.35070  0.77110  Biso   1.000  C
  H176     1.0000 0.20310  0.32530  0.72640  Biso   1.000  H
  C335     1.0000 0.15721  0.42255  0.76940  Biso   1.000  C
  C336     1.0000 0.13882  0.46030  0.69720  Biso   1.000  C
  N31      1.0000 0.14050  0.45735  0.56740  Biso   1.000  N
  N32      1.0000 0.17638  0.38665  0.70460  Biso   1.000  N
  O106     1.0000 0.31645  0.44890  0.44250  Biso   1.000  O
  O107     1.0000 0.24543  0.43370  0.51760  Biso   1.000  O
  O108     1.0000 0.31900  0.52925  0.58430  Biso   1.000  O
  O109     1.0000 0.38204  0.60206  0.63610  Biso   1.000  O
  O110     1.0000 0.32948  0.63394  0.76050  Biso   1.000  O
  O111     1.0000 0.26587  0.33070  0.22950  Biso   1.000  O
  O112     1.0000 0.19385  0.35155  0.28150  Biso   1.000  O
  O113     1.0000 0.75000  0.23124  0.87500  Biso   1.000  O
  O114     1.0000 0.25000  0.73124  0.37500  Biso   1.000  O
  O115     1.0000 0.25000  0.76876  0.87500  Biso   1.000  O
  O116     1.0000 0.75000  0.26876  0.37500  Biso   1.000  O
  O117     1.0000 0.23124  0.25000  0.12500  Biso   1.000  O
  O118     1.0000 0.76876  0.75000  0.12500  Biso   1.000  O
  O119     1.0000 0.26876  0.25000  0.62500  Biso   1.000  O
  O120     1.0000 0.73124  0.75000  0.62500  Biso   1.000  O
