data_image0
_cell_length_a       29.1934
_cell_length_b       29.1934
_cell_length_c       10.5041
_cell_angle_alpha    90
_cell_angle_beta     90
_cell_angle_gamma    90

_symmetry_space_group_name_H-M    "P 1"
_symmetry_int_tables_number       1

loop_
  _symmetry_equiv_pos_as_xyz
  'x, y, z'

loop_
  _atom_site_label
  _atom_site_occupancy
  _atom_site_fract_x
  _atom_site_fract_y
  _atom_site_fract_z
  _atom_site_thermal_displace_type
  _atom_site_B_iso_or_equiv
  _atom_site_type_symbol
  Eu1      1.0000 0.39184  0.68331  0.21445  Biso   1.000  Eu
  C1       1.0000 0.34190  0.60150  0.18830  Biso   1.000  C
  C2       1.0000 0.30780  0.56660  0.16090  Biso   1.000  C
  C3       1.0000 0.26390  0.56310  0.20120  Biso   1.000  C
  H1       1.0000 0.24780  0.58470  0.25190  Biso   1.000  H
  C4       1.0000 0.24670  0.52120  0.15350  Biso   1.000  C
  H2       1.0000 0.21710  0.50860  0.16750  Biso   1.000  H
  C5       1.0000 0.28120  0.50280  0.08350  Biso   1.000  C
  C6       1.0000 0.28260  0.45950  0.00980  Biso   1.000  C
  C7       1.0000 0.32410  0.77630  0.26800  Biso   1.000  C
  C8       1.0000 0.28280  0.79680  0.32480  Biso   1.000  C
  C9       1.0000 0.27050  0.84140  0.34180  Biso   1.000  C
  H3       1.0000 0.28700  0.86750  0.31350  Biso   1.000  H
  C10      1.0000 0.49100  0.62160  0.25270  Biso   1.000  C
  H4       1.0000 0.48810  0.62150  0.16260  Biso   1.000  H
  C11      1.0000 0.53030  0.60130  0.30700  Biso   1.000  C
  H5       1.0000 0.55420  0.58930  0.25550  Biso   1.000  H
  C12      1.0000 0.53270  0.59960  0.44050  Biso   1.000  C
  H6       1.0000 0.55810  0.58530  0.48040  Biso   1.000  H
  C13      1.0000 0.49790  0.61890  0.51570  Biso   1.000  C
  C14      1.0000 0.49750  0.61740  0.65270  Biso   1.000  C
  H7       1.0000 0.52290  0.60460  0.69670  Biso   1.000  H
  C15      1.0000 0.46290  0.63320  0.71720  Biso   1.000  C
  H8       1.0000 0.46350  0.63130  0.80740  Biso   1.000  H
  C16      1.0000 0.42430  0.65320  0.65750  Biso   1.000  C
  C17      1.0000 0.38540  0.67000  0.72200  Biso   1.000  C
  H9       1.0000 0.38480  0.66960  0.81240  Biso   1.000  H
  C18      1.0000 0.34850  0.68670  0.65760  Biso   1.000  C
  H10      1.0000 0.32150  0.69620  0.70070  Biso   1.000  H
  C19      1.0000 0.35210  0.68910  0.52340  Biso   1.000  C
  H11      1.0000 0.32690  0.70090  0.47680  Biso   1.000  H
  C20      1.0000 0.42410  0.65710  0.52290  Biso   1.000  C
  C21      1.0000 0.46160  0.63860  0.45100  Biso   1.000  C
  N1       1.0000 0.45850  0.64040  0.31990  Biso   1.000  N
  N2       1.0000 0.38880  0.67600  0.45950  Biso   1.000  N
  O1       1.0000 0.31741  0.45011  0.94660  Biso   1.000  O
  O2       1.0000 0.24614  0.43484  0.01690  Biso   1.000  O
  O3       1.0000 0.31876  0.52981  0.08630  Biso   1.000  O
  O4       1.0000 0.38152  0.60115  0.13760  Biso   1.000  O
  O5       1.0000 0.32920  0.63400  0.26350  Biso   1.000  O
  O6       1.0000 0.33034  0.73427  0.27330  Biso   1.000  O
  O7       1.0000 0.35179  0.80549  0.22090  Biso   1.000  O
  Eu2      1.0000 0.89184  0.18331  0.71445  Biso   1.000  Eu
  C22      1.0000 0.84190  0.10150  0.68830  Biso   1.000  C
  C23      1.0000 0.80780  0.06660  0.66090  Biso   1.000  C
  C24      1.0000 0.76390  0.06310  0.70120  Biso   1.000  C
  H12      1.0000 0.74780  0.08470  0.75190  Biso   1.000  H
  C25      1.0000 0.74670  0.02120  0.65350  Biso   1.000  C
  H13      1.0000 0.71710  0.00860  0.66750  Biso   1.000  H
  C26      1.0000 0.78120  0.00280  0.58350  Biso   1.000  C
  C27      1.0000 0.78260  0.95950  0.50980  Biso   1.000  C
  C28      1.0000 0.82410  0.27630  0.76800  Biso   1.000  C
  C29      1.0000 0.78280  0.29680  0.82480  Biso   1.000  C
  C30      1.0000 0.77050  0.34140  0.84180  Biso   1.000  C
  H14      1.0000 0.78700  0.36750  0.81350  Biso   1.000  H
  C31      1.0000 0.99100  0.12160  0.75270  Biso   1.000  C
  H15      1.0000 0.98810  0.12150  0.66260  Biso   1.000  H
  C32      1.0000 0.03030  0.10130  0.80700  Biso   1.000  C
  H16      1.0000 0.05420  0.08930  0.75550  Biso   1.000  H
  C33      1.0000 0.03270  0.09960  0.94050  Biso   1.000  C
  H17      1.0000 0.05810  0.08530  0.98040  Biso   1.000  H
  C34      1.0000 0.99790  0.11890  0.01570  Biso   1.000  C
  C35      1.0000 0.99750  0.11740  0.15270  Biso   1.000  C
  H18      1.0000 0.02290  0.10460  0.19670  Biso   1.000  H
  C36      1.0000 0.96290  0.13320  0.21720  Biso   1.000  C
  H19      1.0000 0.96350  0.13130  0.30740  Biso   1.000  H
  C37      1.0000 0.92430  0.15320  0.15750  Biso   1.000  C
  C38      1.0000 0.88540  0.17000  0.22200  Biso   1.000  C
  H20      1.0000 0.88480  0.16960  0.31240  Biso   1.000  H
  C39      1.0000 0.84850  0.18670  0.15760  Biso   1.000  C
  H21      1.0000 0.82150  0.19620  0.20070  Biso   1.000  H
  C40      1.0000 0.85210  0.18910  0.02340  Biso   1.000  C
  H22      1.0000 0.82690  0.20090  0.97680  Biso   1.000  H
  C41      1.0000 0.92410  0.15710  0.02290  Biso   1.000  C
  C42      1.0000 0.96160  0.13860  0.95100  Biso   1.000  C
  N3       1.0000 0.95850  0.14040  0.81990  Biso   1.000  N
  N4       1.0000 0.88880  0.17600  0.95950  Biso   1.000  N
  O8       1.0000 0.81741  0.95011  0.44660  Biso   1.000  O
  O9       1.0000 0.74614  0.93484  0.51690  Biso   1.000  O
  O10      1.0000 0.81876  0.02981  0.58630  Biso   1.000  O
  O11      1.0000 0.88152  0.10115  0.63760  Biso   1.000  O
  O12      1.0000 0.82920  0.13400  0.76350  Biso   1.000  O
  O13      1.0000 0.83034  0.23427  0.77330  Biso   1.000  O
  O14      1.0000 0.85179  0.30549  0.72090  Biso   1.000  O
  Eu3      1.0000 0.60816  0.31669  0.21445  Biso   1.000  Eu
  C43      1.0000 0.65810  0.39850  0.18830  Biso   1.000  C
  C44      1.0000 0.69220  0.43340  0.16090  Biso   1.000  C
  C45      1.0000 0.73610  0.43690  0.20120  Biso   1.000  C
  H23      1.0000 0.75220  0.41530  0.25190  Biso   1.000  H
  C46      1.0000 0.75330  0.47880  0.15350  Biso   1.000  C
  H24      1.0000 0.78290  0.49140  0.16750  Biso   1.000  H
  C47      1.0000 0.71880  0.49720  0.08350  Biso   1.000  C
  C48      1.0000 0.71740  0.54050  0.00980  Biso   1.000  C
  C49      1.0000 0.67590  0.22370  0.26800  Biso   1.000  C
  C50      1.0000 0.71720  0.20320  0.32480  Biso   1.000  C
  C51      1.0000 0.72950  0.15860  0.34180  Biso   1.000  C
  H25      1.0000 0.71300  0.13250  0.31350  Biso   1.000  H
  C52      1.0000 0.50900  0.37840  0.25270  Biso   1.000  C
  H26      1.0000 0.51190  0.37850  0.16260  Biso   1.000  H
  C53      1.0000 0.46970  0.39870  0.30700  Biso   1.000  C
  H27      1.0000 0.44580  0.41070  0.25550  Biso   1.000  H
  C54      1.0000 0.46730  0.40040  0.44050  Biso   1.000  C
  H28      1.0000 0.44190  0.41470  0.48040  Biso   1.000  H
  C55      1.0000 0.50210  0.38110  0.51570  Biso   1.000  C
  C56      1.0000 0.50250  0.38260  0.65270  Biso   1.000  C
  H29      1.0000 0.47710  0.39540  0.69670  Biso   1.000  H
  C57      1.0000 0.53710  0.36680  0.71720  Biso   1.000  C
  H30      1.0000 0.53650  0.36870  0.80740  Biso   1.000  H
  C58      1.0000 0.57570  0.34680  0.65750  Biso   1.000  C
  C59      1.0000 0.61460  0.33000  0.72200  Biso   1.000  C
  H31      1.0000 0.61520  0.33040  0.81240  Biso   1.000  H
  C60      1.0000 0.65150  0.31330  0.65760  Biso   1.000  C
  H32      1.0000 0.67850  0.30380  0.70070  Biso   1.000  H
  C61      1.0000 0.64790  0.31090  0.52340  Biso   1.000  C
  H33      1.0000 0.67310  0.29910  0.47680  Biso   1.000  H
  C62      1.0000 0.57590  0.34290  0.52290  Biso   1.000  C
  C63      1.0000 0.53840  0.36140  0.45100  Biso   1.000  C
  N5       1.0000 0.54150  0.35960  0.31990  Biso   1.000  N
  N6       1.0000 0.61120  0.32400  0.45950  Biso   1.000  N
  O15      1.0000 0.68259  0.54989  0.94660  Biso   1.000  O
  O16      1.0000 0.75386  0.56516  0.01690  Biso   1.000  O
  O17      1.0000 0.68124  0.47019  0.08630  Biso   1.000  O
  O18      1.0000 0.61848  0.39885  0.13760  Biso   1.000  O
  O19      1.0000 0.67080  0.36600  0.26350  Biso   1.000  O
  O20      1.0000 0.66966  0.26573  0.27330  Biso   1.000  O
  O21      1.0000 0.64821  0.19451  0.22090  Biso   1.000  O
  Eu4      1.0000 0.10816  0.81669  0.71445  Biso   1.000  Eu
  C64      1.0000 0.15810  0.89850  0.68830  Biso   1.000  C
  C65      1.0000 0.19220  0.93340  0.66090  Biso   1.000  C
  C66      1.0000 0.23610  0.93690  0.70120  Biso   1.000  C
  H34      1.0000 0.25220  0.91530  0.75190  Biso   1.000  H
  C67      1.0000 0.25330  0.97880  0.65350  Biso   1.000  C
  H35      1.0000 0.28290  0.99140  0.66750  Biso   1.000  H
  C68      1.0000 0.21880  0.99720  0.58350  Biso   1.000  C
  C69      1.0000 0.21740  0.04050  0.50980  Biso   1.000  C
  C70      1.0000 0.17590  0.72370  0.76800  Biso   1.000  C
  C71      1.0000 0.21720  0.70320  0.82480  Biso   1.000  C
  C72      1.0000 0.22950  0.65860  0.84180  Biso   1.000  C
  H36      1.0000 0.21300  0.63250  0.81350  Biso   1.000  H
  C73      1.0000 0.00900  0.87840  0.75270  Biso   1.000  C
  H37      1.0000 0.01190  0.87850  0.66260  Biso   1.000  H
  C74      1.0000 0.96970  0.89870  0.80700  Biso   1.000  C
  H38      1.0000 0.94580  0.91070  0.75550  Biso   1.000  H
  C75      1.0000 0.96730  0.90040  0.94050  Biso   1.000  C
  H39      1.0000 0.94190  0.91470  0.98040  Biso   1.000  H
  C76      1.0000 0.00210  0.88110  0.01570  Biso   1.000  C
  C77      1.0000 0.00250  0.88260  0.15270  Biso   1.000  C
  H40      1.0000 0.97710  0.89540  0.19670  Biso   1.000  H
  C78      1.0000 0.03710  0.86680  0.21720  Biso   1.000  C
  H41      1.0000 0.03650  0.86870  0.30740  Biso   1.000  H
  C79      1.0000 0.07570  0.84680  0.15750  Biso   1.000  C
  C80      1.0000 0.11460  0.83000  0.22200  Biso   1.000  C
  H42      1.0000 0.11520  0.83040  0.31240  Biso   1.000  H
  C81      1.0000 0.15150  0.81330  0.15760  Biso   1.000  C
  H43      1.0000 0.17850  0.80380  0.20070  Biso   1.000  H
  C82      1.0000 0.14790  0.81090  0.02340  Biso   1.000  C
  H44      1.0000 0.17310  0.79910  0.97680  Biso   1.000  H
  C83      1.0000 0.07590  0.84290  0.02290  Biso   1.000  C
  C84      1.0000 0.03840  0.86140  0.95100  Biso   1.000  C
  N7       1.0000 0.04150  0.85960  0.81990  Biso   1.000  N
  N8       1.0000 0.11120  0.82400  0.95950  Biso   1.000  N
  O22      1.0000 0.18259  0.04989  0.44660  Biso   1.000  O
  O23      1.0000 0.25386  0.06516  0.51690  Biso   1.000  O
  O24      1.0000 0.18124  0.97019  0.58630  Biso   1.000  O
  O25      1.0000 0.11848  0.89885  0.63760  Biso   1.000  O
  O26      1.0000 0.17080  0.86600  0.76350  Biso   1.000  O
  O27      1.0000 0.16966  0.76573  0.77330  Biso   1.000  O
  O28      1.0000 0.14821  0.69451  0.72090  Biso   1.000  O
  Eu5      1.0000 0.68331  0.60816  0.78555  Biso   1.000  Eu
  C85      1.0000 0.60150  0.65810  0.81170  Biso   1.000  C
  C86      1.0000 0.56660  0.69220  0.83910  Biso   1.000  C
  C87      1.0000 0.56310  0.73610  0.79880  Biso   1.000  C
  H45      1.0000 0.58470  0.75220  0.74810  Biso   1.000  H
  C88      1.0000 0.52120  0.75330  0.84650  Biso   1.000  C
  H46      1.0000 0.50860  0.78290  0.83250  Biso   1.000  H
  C89      1.0000 0.50280  0.71880  0.91650  Biso   1.000  C
  C90      1.0000 0.45950  0.71740  0.99020  Biso   1.000  C
  C91      1.0000 0.77630  0.67590  0.73200  Biso   1.000  C
  C92      1.0000 0.79680  0.71720  0.67520  Biso   1.000  C
  C93      1.0000 0.84140  0.72950  0.65820  Biso   1.000  C
  H47      1.0000 0.86750  0.71300  0.68650  Biso   1.000  H
  C94      1.0000 0.62160  0.50900  0.74730  Biso   1.000  C
  H48      1.0000 0.62150  0.51190  0.83740  Biso   1.000  H
  C95      1.0000 0.60130  0.46970  0.69300  Biso   1.000  C
  H49      1.0000 0.58930  0.44580  0.74450  Biso   1.000  H
  C96      1.0000 0.59960  0.46730  0.55950  Biso   1.000  C
  H50      1.0000 0.58530  0.44190  0.51960  Biso   1.000  H
  C97      1.0000 0.61890  0.50210  0.48430  Biso   1.000  C
  C98      1.0000 0.61740  0.50250  0.34730  Biso   1.000  C
  H51      1.0000 0.60460  0.47710  0.30330  Biso   1.000  H
  C99      1.0000 0.63320  0.53710  0.28280  Biso   1.000  C
  H52      1.0000 0.63130  0.53650  0.19260  Biso   1.000  H
  C100     1.0000 0.65320  0.57570  0.34250  Biso   1.000  C
  C101     1.0000 0.67000  0.61460  0.27800  Biso   1.000  C
  H53      1.0000 0.66960  0.61520  0.18760  Biso   1.000  H
  C102     1.0000 0.68670  0.65150  0.34240  Biso   1.000  C
  H54      1.0000 0.69620  0.67850  0.29930  Biso   1.000  H
  C103     1.0000 0.68910  0.64790  0.47660  Biso   1.000  C
  H55      1.0000 0.70090  0.67310  0.52320  Biso   1.000  H
  C104     1.0000 0.65710  0.57590  0.47710  Biso   1.000  C
  C105     1.0000 0.63860  0.53840  0.54900  Biso   1.000  C
  N9       1.0000 0.64040  0.54150  0.68010  Biso   1.000  N
  N10      1.0000 0.67600  0.61120  0.54050  Biso   1.000  N
  O29      1.0000 0.45011  0.68259  0.05340  Biso   1.000  O
  O30      1.0000 0.43484  0.75386  0.98310  Biso   1.000  O
  O31      1.0000 0.52981  0.68124  0.91370  Biso   1.000  O
  O32      1.0000 0.60115  0.61848  0.86240  Biso   1.000  O
  O33      1.0000 0.63400  0.67080  0.73650  Biso   1.000  O
  O34      1.0000 0.73427  0.66966  0.72670  Biso   1.000  O
  O35      1.0000 0.80549  0.64821  0.77910  Biso   1.000  O
  Eu6      1.0000 0.18331  0.10816  0.28555  Biso   1.000  Eu
  C106     1.0000 0.10150  0.15810  0.31170  Biso   1.000  C
  C107     1.0000 0.06660  0.19220  0.33910  Biso   1.000  C
  C108     1.0000 0.06310  0.23610  0.29880  Biso   1.000  C
  H56      1.0000 0.08470  0.25220  0.24810  Biso   1.000  H
  C109     1.0000 0.02120  0.25330  0.34650  Biso   1.000  C
  H57      1.0000 0.00860  0.28290  0.33250  Biso   1.000  H
  C110     1.0000 0.00280  0.21880  0.41650  Biso   1.000  C
  C111     1.0000 0.95950  0.21740  0.49020  Biso   1.000  C
  C112     1.0000 0.27630  0.17590  0.23200  Biso   1.000  C
  C113     1.0000 0.29680  0.21720  0.17520  Biso   1.000  C
  C114     1.0000 0.34140  0.22950  0.15820  Biso   1.000  C
  H58      1.0000 0.36750  0.21300  0.18650  Biso   1.000  H
  C115     1.0000 0.12160  0.00900  0.24730  Biso   1.000  C
  H59      1.0000 0.12150  0.01190  0.33740  Biso   1.000  H
  C116     1.0000 0.10130  0.96970  0.19300  Biso   1.000  C
  H60      1.0000 0.08930  0.94580  0.24450  Biso   1.000  H
  C117     1.0000 0.09960  0.96730  0.05950  Biso   1.000  C
  H61      1.0000 0.08530  0.94190  0.01960  Biso   1.000  H
  C118     1.0000 0.11890  0.00210  0.98430  Biso   1.000  C
  C119     1.0000 0.11740  0.00250  0.84730  Biso   1.000  C
  H62      1.0000 0.10460  0.97710  0.80330  Biso   1.000  H
  C120     1.0000 0.13320  0.03710  0.78280  Biso   1.000  C
  H63      1.0000 0.13130  0.03650  0.69260  Biso   1.000  H
  C121     1.0000 0.15320  0.07570  0.84250  Biso   1.000  C
  C122     1.0000 0.17000  0.11460  0.77800  Biso   1.000  C
  H64      1.0000 0.16960  0.11520  0.68760  Biso   1.000  H
  C123     1.0000 0.18670  0.15150  0.84240  Biso   1.000  C
  H65      1.0000 0.19620  0.17850  0.79930  Biso   1.000  H
  C124     1.0000 0.18910  0.14790  0.97660  Biso   1.000  C
  H66      1.0000 0.20090  0.17310  0.02320  Biso   1.000  H
  C125     1.0000 0.15710  0.07590  0.97710  Biso   1.000  C
  C126     1.0000 0.13860  0.03840  0.04900  Biso   1.000  C
  N11      1.0000 0.14040  0.04150  0.18010  Biso   1.000  N
  N12      1.0000 0.17600  0.11120  0.04050  Biso   1.000  N
  O36      1.0000 0.95011  0.18259  0.55340  Biso   1.000  O
  O37      1.0000 0.93484  0.25386  0.48310  Biso   1.000  O
  O38      1.0000 0.02981  0.18124  0.41370  Biso   1.000  O
  O39      1.0000 0.10115  0.11848  0.36240  Biso   1.000  O
  O40      1.0000 0.13400  0.17080  0.23650  Biso   1.000  O
  O41      1.0000 0.23427  0.16966  0.22670  Biso   1.000  O
  O42      1.0000 0.30549  0.14821  0.27910  Biso   1.000  O
  Eu7      1.0000 0.31669  0.39184  0.78555  Biso   1.000  Eu
  C127     1.0000 0.39850  0.34190  0.81170  Biso   1.000  C
  C128     1.0000 0.43340  0.30780  0.83910  Biso   1.000  C
  C129     1.0000 0.43690  0.26390  0.79880  Biso   1.000  C
  H67      1.0000 0.41530  0.24780  0.74810  Biso   1.000  H
  C130     1.0000 0.47880  0.24670  0.84650  Biso   1.000  C
  H68      1.0000 0.49140  0.21710  0.83250  Biso   1.000  H
  C131     1.0000 0.49720  0.28120  0.91650  Biso   1.000  C
  C132     1.0000 0.54050  0.28260  0.99020  Biso   1.000  C
  C133     1.0000 0.22370  0.32410  0.73200  Biso   1.000  C
  C134     1.0000 0.20320  0.28280  0.67520  Biso   1.000  C
  C135     1.0000 0.15860  0.27050  0.65820  Biso   1.000  C
  H69      1.0000 0.13250  0.28700  0.68650  Biso   1.000  H
  C136     1.0000 0.37840  0.49100  0.74730  Biso   1.000  C
  H70      1.0000 0.37850  0.48810  0.83740  Biso   1.000  H
  C137     1.0000 0.39870  0.53030  0.69300  Biso   1.000  C
  H71      1.0000 0.41070  0.55420  0.74450  Biso   1.000  H
  C138     1.0000 0.40040  0.53270  0.55950  Biso   1.000  C
  H72      1.0000 0.41470  0.55810  0.51960  Biso   1.000  H
  C139     1.0000 0.38110  0.49790  0.48430  Biso   1.000  C
  C140     1.0000 0.38260  0.49750  0.34730  Biso   1.000  C
  H73      1.0000 0.39540  0.52290  0.30330  Biso   1.000  H
  C141     1.0000 0.36680  0.46290  0.28280  Biso   1.000  C
  H74      1.0000 0.36870  0.46350  0.19260  Biso   1.000  H
  C142     1.0000 0.34680  0.42430  0.34250  Biso   1.000  C
  C143     1.0000 0.33000  0.38540  0.27800  Biso   1.000  C
  H75      1.0000 0.33040  0.38480  0.18760  Biso   1.000  H
  C144     1.0000 0.31330  0.34850  0.34240  Biso   1.000  C
  H76      1.0000 0.30380  0.32150  0.29930  Biso   1.000  H
  C145     1.0000 0.31090  0.35210  0.47660  Biso   1.000  C
  H77      1.0000 0.29910  0.32690  0.52320  Biso   1.000  H
  C146     1.0000 0.34290  0.42410  0.47710  Biso   1.000  C
  C147     1.0000 0.36140  0.46160  0.54900  Biso   1.000  C
  N13      1.0000 0.35960  0.45850  0.68010  Biso   1.000  N
  N14      1.0000 0.32400  0.38880  0.54050  Biso   1.000  N
  O43      1.0000 0.54989  0.31741  0.05340  Biso   1.000  O
  O44      1.0000 0.56516  0.24614  0.98310  Biso   1.000  O
  O45      1.0000 0.47019  0.31876  0.91370  Biso   1.000  O
  O46      1.0000 0.39885  0.38152  0.86240  Biso   1.000  O
  O47      1.0000 0.36600  0.32920  0.73650  Biso   1.000  O
  O48      1.0000 0.26573  0.33034  0.72670  Biso   1.000  O
  O49      1.0000 0.19451  0.35179  0.77910  Biso   1.000  O
  Eu8      1.0000 0.81669  0.89184  0.28555  Biso   1.000  Eu
  C148     1.0000 0.89850  0.84190  0.31170  Biso   1.000  C
  C149     1.0000 0.93340  0.80780  0.33910  Biso   1.000  C
  C150     1.0000 0.93690  0.76390  0.29880  Biso   1.000  C
  H78      1.0000 0.91530  0.74780  0.24810  Biso   1.000  H
  C151     1.0000 0.97880  0.74670  0.34650  Biso   1.000  C
  H79      1.0000 0.99140  0.71710  0.33250  Biso   1.000  H
  C152     1.0000 0.99720  0.78120  0.41650  Biso   1.000  C
  C153     1.0000 0.04050  0.78260  0.49020  Biso   1.000  C
  C154     1.0000 0.72370  0.82410  0.23200  Biso   1.000  C
  C155     1.0000 0.70320  0.78280  0.17520  Biso   1.000  C
  C156     1.0000 0.65860  0.77050  0.15820  Biso   1.000  C
  H80      1.0000 0.63250  0.78700  0.18650  Biso   1.000  H
  C157     1.0000 0.87840  0.99100  0.24730  Biso   1.000  C
  H81      1.0000 0.87850  0.98810  0.33740  Biso   1.000  H
  C158     1.0000 0.89870  0.03030  0.19300  Biso   1.000  C
  H82      1.0000 0.91070  0.05420  0.24450  Biso   1.000  H
  C159     1.0000 0.90040  0.03270  0.05950  Biso   1.000  C
  H83      1.0000 0.91470  0.05810  0.01960  Biso   1.000  H
  C160     1.0000 0.88110  0.99790  0.98430  Biso   1.000  C
  C161     1.0000 0.88260  0.99750  0.84730  Biso   1.000  C
  H84      1.0000 0.89540  0.02290  0.80330  Biso   1.000  H
  C162     1.0000 0.86680  0.96290  0.78280  Biso   1.000  C
  H85      1.0000 0.86870  0.96350  0.69260  Biso   1.000  H
  C163     1.0000 0.84680  0.92430  0.84250  Biso   1.000  C
  C164     1.0000 0.83000  0.88540  0.77800  Biso   1.000  C
  H86      1.0000 0.83040  0.88480  0.68760  Biso   1.000  H
  C165     1.0000 0.81330  0.84850  0.84240  Biso   1.000  C
  H87      1.0000 0.80380  0.82150  0.79930  Biso   1.000  H
  C166     1.0000 0.81090  0.85210  0.97660  Biso   1.000  C
  H88      1.0000 0.79910  0.82690  0.02320  Biso   1.000  H
  C167     1.0000 0.84290  0.92410  0.97710  Biso   1.000  C
  C168     1.0000 0.86140  0.96160  0.04900  Biso   1.000  C
  N15      1.0000 0.85960  0.95850  0.18010  Biso   1.000  N
  N16      1.0000 0.82400  0.88880  0.04050  Biso   1.000  N
  O50      1.0000 0.04989  0.81741  0.55340  Biso   1.000  O
  O51      1.0000 0.06516  0.74614  0.48310  Biso   1.000  O
  O52      1.0000 0.97019  0.81876  0.41370  Biso   1.000  O
  O53      1.0000 0.89885  0.88152  0.36240  Biso   1.000  O
  O54      1.0000 0.86600  0.82920  0.23650  Biso   1.000  O
  O55      1.0000 0.76573  0.83034  0.22670  Biso   1.000  O
  O56      1.0000 0.69451  0.85179  0.27910  Biso   1.000  O
  Eu9      1.0000 0.10816  0.68331  0.53555  Biso   1.000  Eu
  C169     1.0000 0.15810  0.60150  0.56170  Biso   1.000  C
  C170     1.0000 0.19220  0.56660  0.58910  Biso   1.000  C
  C171     1.0000 0.23610  0.56310  0.54880  Biso   1.000  C
  H89      1.0000 0.25220  0.58470  0.49810  Biso   1.000  H
  C172     1.0000 0.25330  0.52120  0.59650  Biso   1.000  C
  H90      1.0000 0.28290  0.50860  0.58250  Biso   1.000  H
  C173     1.0000 0.21880  0.50280  0.66650  Biso   1.000  C
  C174     1.0000 0.21740  0.45950  0.74020  Biso   1.000  C
  C175     1.0000 0.17590  0.77630  0.48200  Biso   1.000  C
  C176     1.0000 0.21720  0.79680  0.42520  Biso   1.000  C
  C177     1.0000 0.22950  0.84140  0.40820  Biso   1.000  C
  H91      1.0000 0.21300  0.86750  0.43650  Biso   1.000  H
  C178     1.0000 0.00900  0.62160  0.49730  Biso   1.000  C
  H92      1.0000 0.01190  0.62150  0.58740  Biso   1.000  H
  C179     1.0000 0.96970  0.60130  0.44300  Biso   1.000  C
  H93      1.0000 0.94580  0.58930  0.49450  Biso   1.000  H
  C180     1.0000 0.96730  0.59960  0.30950  Biso   1.000  C
  H94      1.0000 0.94190  0.58530  0.26960  Biso   1.000  H
  C181     1.0000 0.00210  0.61890  0.23430  Biso   1.000  C
  C182     1.0000 0.00250  0.61740  0.09730  Biso   1.000  C
  H95      1.0000 0.97710  0.60460  0.05330  Biso   1.000  H
  C183     1.0000 0.03710  0.63320  0.03280  Biso   1.000  C
  H96      1.0000 0.03650  0.63130  0.94260  Biso   1.000  H
  C184     1.0000 0.07570  0.65320  0.09250  Biso   1.000  C
  C185     1.0000 0.11460  0.67000  0.02800  Biso   1.000  C
  H97      1.0000 0.11520  0.66960  0.93760  Biso   1.000  H
  C186     1.0000 0.15150  0.68670  0.09240  Biso   1.000  C
  H98      1.0000 0.17850  0.69620  0.04930  Biso   1.000  H
  C187     1.0000 0.14790  0.68910  0.22660  Biso   1.000  C
  H99      1.0000 0.17310  0.70090  0.27320  Biso   1.000  H
  C188     1.0000 0.07590  0.65710  0.22710  Biso   1.000  C
  C189     1.0000 0.03840  0.63860  0.29900  Biso   1.000  C
  N17      1.0000 0.04150  0.64040  0.43010  Biso   1.000  N
  N18      1.0000 0.11120  0.67600  0.29050  Biso   1.000  N
  O57      1.0000 0.18259  0.45011  0.80340  Biso   1.000  O
  O58      1.0000 0.25386  0.43484  0.73310  Biso   1.000  O
  O59      1.0000 0.18124  0.52981  0.66370  Biso   1.000  O
  O60      1.0000 0.11848  0.60115  0.61240  Biso   1.000  O
  O61      1.0000 0.17080  0.63400  0.48650  Biso   1.000  O
  O62      1.0000 0.16966  0.73427  0.47670  Biso   1.000  O
  O63      1.0000 0.14821  0.80549  0.52910  Biso   1.000  O
  Eu10     1.0000 0.60816  0.18331  0.03555  Biso   1.000  Eu
  C190     1.0000 0.65810  0.10150  0.06170  Biso   1.000  C
  C191     1.0000 0.69220  0.06660  0.08910  Biso   1.000  C
  C192     1.0000 0.73610  0.06310  0.04880  Biso   1.000  C
  H100     1.0000 0.75220  0.08470  0.99810  Biso   1.000  H
  C193     1.0000 0.75330  0.02120  0.09650  Biso   1.000  C
  H101     1.0000 0.78290  0.00860  0.08250  Biso   1.000  H
  C194     1.0000 0.71880  0.00280  0.16650  Biso   1.000  C
  C195     1.0000 0.71740  0.95950  0.24020  Biso   1.000  C
  C196     1.0000 0.67590  0.27630  0.98200  Biso   1.000  C
  C197     1.0000 0.71720  0.29680  0.92520  Biso   1.000  C
  C198     1.0000 0.72950  0.34140  0.90820  Biso   1.000  C
  H102     1.0000 0.71300  0.36750  0.93650  Biso   1.000  H
  C199     1.0000 0.50900  0.12160  0.99730  Biso   1.000  C
  H103     1.0000 0.51190  0.12150  0.08740  Biso   1.000  H
  C200     1.0000 0.46970  0.10130  0.94300  Biso   1.000  C
  H104     1.0000 0.44580  0.08930  0.99450  Biso   1.000  H
  C201     1.0000 0.46730  0.09960  0.80950  Biso   1.000  C
  H105     1.0000 0.44190  0.08530  0.76960  Biso   1.000  H
  C202     1.0000 0.50210  0.11890  0.73430  Biso   1.000  C
  C203     1.0000 0.50250  0.11740  0.59730  Biso   1.000  C
  H106     1.0000 0.47710  0.10460  0.55330  Biso   1.000  H
  C204     1.0000 0.53710  0.13320  0.53280  Biso   1.000  C
  H107     1.0000 0.53650  0.13130  0.44260  Biso   1.000  H
  C205     1.0000 0.57570  0.15320  0.59250  Biso   1.000  C
  C206     1.0000 0.61460  0.17000  0.52800  Biso   1.000  C
  H108     1.0000 0.61520  0.16960  0.43760  Biso   1.000  H
  C207     1.0000 0.65150  0.18670  0.59240  Biso   1.000  C
  H109     1.0000 0.67850  0.19620  0.54930  Biso   1.000  H
  C208     1.0000 0.64790  0.18910  0.72660  Biso   1.000  C
  H110     1.0000 0.67310  0.20090  0.77320  Biso   1.000  H
  C209     1.0000 0.57590  0.15710  0.72710  Biso   1.000  C
  C210     1.0000 0.53840  0.13860  0.79900  Biso   1.000  C
  N19      1.0000 0.54150  0.14040  0.93010  Biso   1.000  N
  N20      1.0000 0.61120  0.17600  0.79050  Biso   1.000  N
  O64      1.0000 0.68259  0.95011  0.30340  Biso   1.000  O
  O65      1.0000 0.75386  0.93484  0.23310  Biso   1.000  O
  O66      1.0000 0.68124  0.02981  0.16370  Biso   1.000  O
  O67      1.0000 0.61848  0.10115  0.11240  Biso   1.000  O
  O68      1.0000 0.67080  0.13400  0.98650  Biso   1.000  O
  O69      1.0000 0.66966  0.23427  0.97670  Biso   1.000  O
  O70      1.0000 0.64821  0.30549  0.02910  Biso   1.000  O
  Eu11     1.0000 0.89184  0.31669  0.53555  Biso   1.000  Eu
  C211     1.0000 0.84190  0.39850  0.56170  Biso   1.000  C
  C212     1.0000 0.80780  0.43340  0.58910  Biso   1.000  C
  C213     1.0000 0.76390  0.43690  0.54880  Biso   1.000  C
  H111     1.0000 0.74780  0.41530  0.49810  Biso   1.000  H
  C214     1.0000 0.74670  0.47880  0.59650  Biso   1.000  C
  H112     1.0000 0.71710  0.49140  0.58250  Biso   1.000  H
  C215     1.0000 0.78120  0.49720  0.66650  Biso   1.000  C
  C216     1.0000 0.78260  0.54050  0.74020  Biso   1.000  C
  C217     1.0000 0.82410  0.22370  0.48200  Biso   1.000  C
  C218     1.0000 0.78280  0.20320  0.42520  Biso   1.000  C
  C219     1.0000 0.77050  0.15860  0.40820  Biso   1.000  C
  H113     1.0000 0.78700  0.13250  0.43650  Biso   1.000  H
  C220     1.0000 0.99100  0.37840  0.49730  Biso   1.000  C
  H114     1.0000 0.98810  0.37850  0.58740  Biso   1.000  H
  C221     1.0000 0.03030  0.39870  0.44300  Biso   1.000  C
  H115     1.0000 0.05420  0.41070  0.49450  Biso   1.000  H
  C222     1.0000 0.03270  0.40040  0.30950  Biso   1.000  C
  H116     1.0000 0.05810  0.41470  0.26960  Biso   1.000  H
  C223     1.0000 0.99790  0.38110  0.23430  Biso   1.000  C
  C224     1.0000 0.99750  0.38260  0.09730  Biso   1.000  C
  H117     1.0000 0.02290  0.39540  0.05330  Biso   1.000  H
  C225     1.0000 0.96290  0.36680  0.03280  Biso   1.000  C
  H118     1.0000 0.96350  0.36870  0.94260  Biso   1.000  H
  C226     1.0000 0.92430  0.34680  0.09250  Biso   1.000  C
  C227     1.0000 0.88540  0.33000  0.02800  Biso   1.000  C
  H119     1.0000 0.88480  0.33040  0.93760  Biso   1.000  H
  C228     1.0000 0.84850  0.31330  0.09240  Biso   1.000  C
  H120     1.0000 0.82150  0.30380  0.04930  Biso   1.000  H
  C229     1.0000 0.85210  0.31090  0.22660  Biso   1.000  C
  H121     1.0000 0.82690  0.29910  0.27320  Biso   1.000  H
  C230     1.0000 0.92410  0.34290  0.22710  Biso   1.000  C
  C231     1.0000 0.96160  0.36140  0.29900  Biso   1.000  C
  N21      1.0000 0.95850  0.35960  0.43010  Biso   1.000  N
  N22      1.0000 0.88880  0.32400  0.29050  Biso   1.000  N
  O71      1.0000 0.81741  0.54989  0.80340  Biso   1.000  O
  O72      1.0000 0.74614  0.56516  0.73310  Biso   1.000  O
  O73      1.0000 0.81876  0.47019  0.66370  Biso   1.000  O
  O74      1.0000 0.88152  0.39885  0.61240  Biso   1.000  O
  O75      1.0000 0.82920  0.36600  0.48650  Biso   1.000  O
  O76      1.0000 0.83034  0.26573  0.47670  Biso   1.000  O
  O77      1.0000 0.85179  0.19451  0.52910  Biso   1.000  O
  Eu12     1.0000 0.39184  0.81669  0.03555  Biso   1.000  Eu
  C232     1.0000 0.34190  0.89850  0.06170  Biso   1.000  C
  C233     1.0000 0.30780  0.93340  0.08910  Biso   1.000  C
  C234     1.0000 0.26390  0.93690  0.04880  Biso   1.000  C
  H122     1.0000 0.24780  0.91530  0.99810  Biso   1.000  H
  C235     1.0000 0.24670  0.97880  0.09650  Biso   1.000  C
  H123     1.0000 0.21710  0.99140  0.08250  Biso   1.000  H
  C236     1.0000 0.28120  0.99720  0.16650  Biso   1.000  C
  C237     1.0000 0.28260  0.04050  0.24020  Biso   1.000  C
  C238     1.0000 0.32410  0.72370  0.98200  Biso   1.000  C
  C239     1.0000 0.28280  0.70320  0.92520  Biso   1.000  C
  C240     1.0000 0.27050  0.65860  0.90820  Biso   1.000  C
  H124     1.0000 0.28700  0.63250  0.93650  Biso   1.000  H
  C241     1.0000 0.49100  0.87840  0.99730  Biso   1.000  C
  H125     1.0000 0.48810  0.87850  0.08740  Biso   1.000  H
  C242     1.0000 0.53030  0.89870  0.94300  Biso   1.000  C
  H126     1.0000 0.55420  0.91070  0.99450  Biso   1.000  H
  C243     1.0000 0.53270  0.90040  0.80950  Biso   1.000  C
  H127     1.0000 0.55810  0.91470  0.76960  Biso   1.000  H
  C244     1.0000 0.49790  0.88110  0.73430  Biso   1.000  C
  C245     1.0000 0.49750  0.88260  0.59730  Biso   1.000  C
  H128     1.0000 0.52290  0.89540  0.55330  Biso   1.000  H
  C246     1.0000 0.46290  0.86680  0.53280  Biso   1.000  C
  H129     1.0000 0.46350  0.86870  0.44260  Biso   1.000  H
  C247     1.0000 0.42430  0.84680  0.59250  Biso   1.000  C
  C248     1.0000 0.38540  0.83000  0.52800  Biso   1.000  C
  H130     1.0000 0.38480  0.83040  0.43760  Biso   1.000  H
  C249     1.0000 0.34850  0.81330  0.59240  Biso   1.000  C
  H131     1.0000 0.32150  0.80380  0.54930  Biso   1.000  H
  C250     1.0000 0.35210  0.81090  0.72660  Biso   1.000  C
  H132     1.0000 0.32690  0.79910  0.77320  Biso   1.000  H
  C251     1.0000 0.42410  0.84290  0.72710  Biso   1.000  C
  C252     1.0000 0.46160  0.86140  0.79900  Biso   1.000  C
  N23      1.0000 0.45850  0.85960  0.93010  Biso   1.000  N
  N24      1.0000 0.38880  0.82400  0.79050  Biso   1.000  N
  O78      1.0000 0.31741  0.04989  0.30340  Biso   1.000  O
  O79      1.0000 0.24614  0.06516  0.23310  Biso   1.000  O
  O80      1.0000 0.31876  0.97019  0.16370  Biso   1.000  O
  O81      1.0000 0.38152  0.89885  0.11240  Biso   1.000  O
  O82      1.0000 0.32920  0.86600  0.98650  Biso   1.000  O
  O83      1.0000 0.33034  0.76573  0.97670  Biso   1.000  O
  O84      1.0000 0.35179  0.69451  0.02910  Biso   1.000  O
  Eu13     1.0000 0.81669  0.60816  0.96445  Biso   1.000  Eu
  C253     1.0000 0.89850  0.65810  0.93830  Biso   1.000  C
  C254     1.0000 0.93340  0.69220  0.91090  Biso   1.000  C
  C255     1.0000 0.93690  0.73610  0.95120  Biso   1.000  C
  H133     1.0000 0.91530  0.75220  0.00190  Biso   1.000  H
  C256     1.0000 0.97880  0.75330  0.90350  Biso   1.000  C
  H134     1.0000 0.99140  0.78290  0.91750  Biso   1.000  H
  C257     1.0000 0.99720  0.71880  0.83350  Biso   1.000  C
  C258     1.0000 0.04050  0.71740  0.75980  Biso   1.000  C
  C259     1.0000 0.72370  0.67590  0.01800  Biso   1.000  C
  C260     1.0000 0.70320  0.71720  0.07480  Biso   1.000  C
  C261     1.0000 0.65860  0.72950  0.09180  Biso   1.000  C
  H135     1.0000 0.63250  0.71300  0.06350  Biso   1.000  H
  C262     1.0000 0.87840  0.50900  0.00270  Biso   1.000  C
  H136     1.0000 0.87850  0.51190  0.91260  Biso   1.000  H
  C263     1.0000 0.89870  0.46970  0.05700  Biso   1.000  C
  H137     1.0000 0.91070  0.44580  0.00550  Biso   1.000  H
  C264     1.0000 0.90040  0.46730  0.19050  Biso   1.000  C
  H138     1.0000 0.91470  0.44190  0.23040  Biso   1.000  H
  C265     1.0000 0.88110  0.50210  0.26570  Biso   1.000  C
  C266     1.0000 0.88260  0.50250  0.40270  Biso   1.000  C
  H139     1.0000 0.89540  0.47710  0.44670  Biso   1.000  H
  C267     1.0000 0.86680  0.53710  0.46720  Biso   1.000  C
  H140     1.0000 0.86870  0.53650  0.55740  Biso   1.000  H
  C268     1.0000 0.84680  0.57570  0.40750  Biso   1.000  C
  C269     1.0000 0.83000  0.61460  0.47200  Biso   1.000  C
  H141     1.0000 0.83040  0.61520  0.56240  Biso   1.000  H
  C270     1.0000 0.81330  0.65150  0.40760  Biso   1.000  C
  H142     1.0000 0.80380  0.67850  0.45070  Biso   1.000  H
  C271     1.0000 0.81090  0.64790  0.27340  Biso   1.000  C
  H143     1.0000 0.79910  0.67310  0.22680  Biso   1.000  H
  C272     1.0000 0.84290  0.57590  0.27290  Biso   1.000  C
  C273     1.0000 0.86140  0.53840  0.20100  Biso   1.000  C
  N25      1.0000 0.85960  0.54150  0.06990  Biso   1.000  N
  N26      1.0000 0.82400  0.61120  0.20950  Biso   1.000  N
  O85      1.0000 0.04989  0.68259  0.69660  Biso   1.000  O
  O86      1.0000 0.06516  0.75386  0.76690  Biso   1.000  O
  O87      1.0000 0.97019  0.68124  0.83630  Biso   1.000  O
  O88      1.0000 0.89885  0.61848  0.88760  Biso   1.000  O
  O89      1.0000 0.86600  0.67080  0.01350  Biso   1.000  O
  O90      1.0000 0.76573  0.66966  0.02330  Biso   1.000  O
  O91      1.0000 0.69451  0.64821  0.97090  Biso   1.000  O
  Eu14     1.0000 0.31669  0.10816  0.46445  Biso   1.000  Eu
  C274     1.0000 0.39850  0.15810  0.43830  Biso   1.000  C
  C275     1.0000 0.43340  0.19220  0.41090  Biso   1.000  C
  C276     1.0000 0.43690  0.23610  0.45120  Biso   1.000  C
  H144     1.0000 0.41530  0.25220  0.50190  Biso   1.000  H
  C277     1.0000 0.47880  0.25330  0.40350  Biso   1.000  C
  H145     1.0000 0.49140  0.28290  0.41750  Biso   1.000  H
  C278     1.0000 0.49720  0.21880  0.33350  Biso   1.000  C
  C279     1.0000 0.54050  0.21740  0.25980  Biso   1.000  C
  C280     1.0000 0.22370  0.17590  0.51800  Biso   1.000  C
  C281     1.0000 0.20320  0.21720  0.57480  Biso   1.000  C
  C282     1.0000 0.15860  0.22950  0.59180  Biso   1.000  C
  H146     1.0000 0.13250  0.21300  0.56350  Biso   1.000  H
  C283     1.0000 0.37840  0.00900  0.50270  Biso   1.000  C
  H147     1.0000 0.37850  0.01190  0.41260  Biso   1.000  H
  C284     1.0000 0.39870  0.96970  0.55700  Biso   1.000  C
  H148     1.0000 0.41070  0.94580  0.50550  Biso   1.000  H
  C285     1.0000 0.40040  0.96730  0.69050  Biso   1.000  C
  H149     1.0000 0.41470  0.94190  0.73040  Biso   1.000  H
  C286     1.0000 0.38110  0.00210  0.76570  Biso   1.000  C
  C287     1.0000 0.38260  0.00250  0.90270  Biso   1.000  C
  H150     1.0000 0.39540  0.97710  0.94670  Biso   1.000  H
  C288     1.0000 0.36680  0.03710  0.96720  Biso   1.000  C
  H151     1.0000 0.36870  0.03650  0.05740  Biso   1.000  H
  C289     1.0000 0.34680  0.07570  0.90750  Biso   1.000  C
  C290     1.0000 0.33000  0.11460  0.97200  Biso   1.000  C
  H152     1.0000 0.33040  0.11520  0.06240  Biso   1.000  H
  C291     1.0000 0.31330  0.15150  0.90760  Biso   1.000  C
  H153     1.0000 0.30380  0.17850  0.95070  Biso   1.000  H
  C292     1.0000 0.31090  0.14790  0.77340  Biso   1.000  C
  H154     1.0000 0.29910  0.17310  0.72680  Biso   1.000  H
  C293     1.0000 0.34290  0.07590  0.77290  Biso   1.000  C
  C294     1.0000 0.36140  0.03840  0.70100  Biso   1.000  C
  N27      1.0000 0.35960  0.04150  0.56990  Biso   1.000  N
  N28      1.0000 0.32400  0.11120  0.70950  Biso   1.000  N
  O92      1.0000 0.54989  0.18259  0.19660  Biso   1.000  O
  O93      1.0000 0.56516  0.25386  0.26690  Biso   1.000  O
  O94      1.0000 0.47019  0.18124  0.33630  Biso   1.000  O
  O95      1.0000 0.39885  0.11848  0.38760  Biso   1.000  O
  O96      1.0000 0.36600  0.17080  0.51350  Biso   1.000  O
  O97      1.0000 0.26573  0.16966  0.52330  Biso   1.000  O
  O98      1.0000 0.19451  0.14821  0.47090  Biso   1.000  O
  Eu15     1.0000 0.18331  0.39184  0.96445  Biso   1.000  Eu
  C295     1.0000 0.10150  0.34190  0.93830  Biso   1.000  C
  C296     1.0000 0.06660  0.30780  0.91090  Biso   1.000  C
  C297     1.0000 0.06310  0.26390  0.95120  Biso   1.000  C
  H155     1.0000 0.08470  0.24780  0.00190  Biso   1.000  H
  C298     1.0000 0.02120  0.24670  0.90350  Biso   1.000  C
  H156     1.0000 0.00860  0.21710  0.91750  Biso   1.000  H
  C299     1.0000 0.00280  0.28120  0.83350  Biso   1.000  C
  C300     1.0000 0.95950  0.28260  0.75980  Biso   1.000  C
  C301     1.0000 0.27630  0.32410  0.01800  Biso   1.000  C
  C302     1.0000 0.29680  0.28280  0.07480  Biso   1.000  C
  C303     1.0000 0.34140  0.27050  0.09180  Biso   1.000  C
  H157     1.0000 0.36750  0.28700  0.06350  Biso   1.000  H
  C304     1.0000 0.12160  0.49100  0.00270  Biso   1.000  C
  H158     1.0000 0.12150  0.48810  0.91260  Biso   1.000  H
  C305     1.0000 0.10130  0.53030  0.05700  Biso   1.000  C
  H159     1.0000 0.08930  0.55420  0.00550  Biso   1.000  H
  C306     1.0000 0.09960  0.53270  0.19050  Biso   1.000  C
  H160     1.0000 0.08530  0.55810  0.23040  Biso   1.000  H
  C307     1.0000 0.11890  0.49790  0.26570  Biso   1.000  C
  C308     1.0000 0.11740  0.49750  0.40270  Biso   1.000  C
  H161     1.0000 0.10460  0.52290  0.44670  Biso   1.000  H
  C309     1.0000 0.13320  0.46290  0.46720  Biso   1.000  C
  H162     1.0000 0.13130  0.46350  0.55740  Biso   1.000  H
  C310     1.0000 0.15320  0.42430  0.40750  Biso   1.000  C
  C311     1.0000 0.17000  0.38540  0.47200  Biso   1.000  C
  H163     1.0000 0.16960  0.38480  0.56240  Biso   1.000  H
  C312     1.0000 0.18670  0.34850  0.40760  Biso   1.000  C
  H164     1.0000 0.19620  0.32150  0.45070  Biso   1.000  H
  C313     1.0000 0.18910  0.35210  0.27340  Biso   1.000  C
  H165     1.0000 0.20090  0.32690  0.22680  Biso   1.000  H
  C314     1.0000 0.15710  0.42410  0.27290  Biso   1.000  C
  C315     1.0000 0.13860  0.46160  0.20100  Biso   1.000  C
  N29      1.0000 0.14040  0.45850  0.06990  Biso   1.000  N
  N30      1.0000 0.17600  0.38880  0.20950  Biso   1.000  N
  O99      1.0000 0.95011  0.31741  0.69660  Biso   1.000  O
  O100     1.0000 0.93484  0.24614  0.76690  Biso   1.000  O
  O101     1.0000 0.02981  0.31876  0.83630  Biso   1.000  O
  O102     1.0000 0.10115  0.38152  0.88760  Biso   1.000  O
  O103     1.0000 0.13400  0.32920  0.01350  Biso   1.000  O
  O104     1.0000 0.23427  0.33034  0.02330  Biso   1.000  O
  O105     1.0000 0.30549  0.35179  0.97090  Biso   1.000  O
  Eu16     1.0000 0.68331  0.89184  0.46445  Biso   1.000  Eu
  C316     1.0000 0.60150  0.84190  0.43830  Biso   1.000  C
  C317     1.0000 0.56660  0.80780  0.41090  Biso   1.000  C
  C318     1.0000 0.56310  0.76390  0.45120  Biso   1.000  C
  H166     1.0000 0.58470  0.74780  0.50190  Biso   1.000  H
  C319     1.0000 0.52120  0.74670  0.40350  Biso   1.000  C
  H167     1.0000 0.50860  0.71710  0.41750  Biso   1.000  H
  C320     1.0000 0.50280  0.78120  0.33350  Biso   1.000  C
  C321     1.0000 0.45950  0.78260  0.25980  Biso   1.000  C
  C322     1.0000 0.77630  0.82410  0.51800  Biso   1.000  C
  C323     1.0000 0.79680  0.78280  0.57480  Biso   1.000  C
  C324     1.0000 0.84140  0.77050  0.59180  Biso   1.000  C
  H168     1.0000 0.86750  0.78700  0.56350  Biso   1.000  H
  C325     1.0000 0.62160  0.99100  0.50270  Biso   1.000  C
  H169     1.0000 0.62150  0.98810  0.41260  Biso   1.000  H
  C326     1.0000 0.60130  0.03030  0.55700  Biso   1.000  C
  H170     1.0000 0.58930  0.05420  0.50550  Biso   1.000  H
  C327     1.0000 0.59960  0.03270  0.69050  Biso   1.000  C
  H171     1.0000 0.58530  0.05810  0.73040  Biso   1.000  H
  C328     1.0000 0.61890  0.99790  0.76570  Biso   1.000  C
  C329     1.0000 0.61740  0.99750  0.90270  Biso   1.000  C
  H172     1.0000 0.60460  0.02290  0.94670  Biso   1.000  H
  C330     1.0000 0.63320  0.96290  0.96720  Biso   1.000  C
  H173     1.0000 0.63130  0.96350  0.05740  Biso   1.000  H
  C331     1.0000 0.65320  0.92430  0.90750  Biso   1.000  C
  C332     1.0000 0.67000  0.88540  0.97200  Biso   1.000  C
  H174     1.0000 0.66960  0.88480  0.06240  Biso   1.000  H
  C333     1.0000 0.68670  0.84850  0.90760  Biso   1.000  C
  H175     1.0000 0.69620  0.82150  0.95070  Biso   1.000  H
  C334     1.0000 0.68910  0.85210  0.77340  Biso   1.000  C
  H176     1.0000 0.70090  0.82690  0.72680  Biso   1.000  H
  C335     1.0000 0.65710  0.92410  0.77290  Biso   1.000  C
  C336     1.0000 0.63860  0.96160  0.70100  Biso   1.000  C
  N31      1.0000 0.64040  0.95850  0.56990  Biso   1.000  N
  N32      1.0000 0.67600  0.88880  0.70950  Biso   1.000  N
  O106     1.0000 0.45011  0.81741  0.19660  Biso   1.000  O
  O107     1.0000 0.43484  0.74614  0.26690  Biso   1.000  O
  O108     1.0000 0.52981  0.81876  0.33630  Biso   1.000  O
  O109     1.0000 0.60115  0.88152  0.38760  Biso   1.000  O
  O110     1.0000 0.63400  0.82920  0.51350  Biso   1.000  O
  O111     1.0000 0.73427  0.83034  0.52330  Biso   1.000  O
  O112     1.0000 0.80549  0.85179  0.47090  Biso   1.000  O
  O113     1.0000 0.25000  0.76920  0.37500  Biso   1.000  O
  O114     1.0000 0.75000  0.26920  0.87500  Biso   1.000  O
  O115     1.0000 0.75000  0.23080  0.37500  Biso   1.000  O
  O116     1.0000 0.25000  0.73080  0.87500  Biso   1.000  O
  O117     1.0000 0.76920  0.75000  0.62500  Biso   1.000  O
  O118     1.0000 0.23080  0.25000  0.62500  Biso   1.000  O
  O119     1.0000 0.73080  0.75000  0.12500  Biso   1.000  O
  O120     1.0000 0.26920  0.25000  0.12500  Biso   1.000  O
