data_image0
_cell_length_a       27.083
_cell_length_b       27.083
_cell_length_c       27.083
_cell_angle_alpha    90
_cell_angle_beta     90
_cell_angle_gamma    90

_symmetry_space_group_name_H-M    "P 1"
_symmetry_int_tables_number       1

loop_
  _symmetry_equiv_pos_as_xyz
  'x, y, z'

loop_
  _atom_site_label
  _atom_site_occupancy
  _atom_site_fract_x
  _atom_site_fract_y
  _atom_site_fract_z
  _atom_site_thermal_displace_type
  _atom_site_B_iso_or_equiv
  _atom_site_type_symbol
  O1       1.0000 0.17290  0.08000  0.45330  Biso   1.000  O
  O2       1.0000 0.18530  0.98070  0.44210  Biso   1.000  O
  C1       1.0000 0.23470  0.10260  0.60940  Biso   1.000  C
  O3       1.0000 0.21120  0.17530  0.56380  Biso   1.000  O
  C2       1.0000 0.16630  0.13160  0.44860  Biso   1.000  C
  C3       1.0000 0.15050  0.05770  0.57660  Biso   1.000  C
  H1       1.0000 0.11880  0.04270  0.56770  Biso   1.000  H
  C4       1.0000 0.20080  0.12810  0.57860  Biso   1.000  C
  C5       1.0000 0.13980  0.15500  0.48270  Biso   1.000  C
  C6       1.0000 0.13510  0.05390  0.43090  Biso   1.000  C
  H2       1.0000 0.13030  0.06620  0.39760  Biso   1.000  H
  H3       1.0000 0.10470  0.05910  0.44920  Biso   1.000  H
  C7       1.0000 0.16870  0.97800  0.62240  Biso   1.000  C
  C8       1.0000 0.12990  0.20450  0.47350  Biso   1.000  C
  H4       1.0000 0.11130  0.22240  0.49620  Biso   1.000  H
  C9       1.0000 0.18650  0.15340  0.40760  Biso   1.000  C
  C10      1.0000 0.18210  0.03020  0.60710  Biso   1.000  C
  C11      1.0000 0.15840  0.10320  0.56180  Biso   1.000  C
  C12      1.0000 0.22270  0.05280  0.62070  Biso   1.000  C
  H5       1.0000 0.24350  0.03600  0.64500  Biso   1.000  H
  O4       1.0000 0.10900  0.97370  0.40830  Biso   1.000  O
  C13      1.0000 0.14690  0.99770  0.42910  Biso   1.000  C
  C14      1.0000 0.14760  0.22870  0.42960  Biso   1.000  C
  C15      1.0000 0.17440  0.20330  0.39980  Biso   1.000  C
  H6       1.0000 0.18640  0.21870  0.37160  Biso   1.000  H
  C16      1.0000 0.11960  0.13170  0.52940  Biso   1.000  C
  H7       1.0000 0.09360  0.10880  0.52020  Biso   1.000  H
  H8       1.0000 0.10480  0.15740  0.54940  Biso   1.000  H
  C17      1.0000 0.18440  0.31290  0.42410  Biso   1.000  C
  H9       1.0000 0.17910  0.34770  0.41980  Biso   1.000  H
  H10      1.0000 0.20490  0.30080  0.39790  Biso   1.000  H
  H11      1.0000 0.20020  0.30710  0.45530  Biso   1.000  H
  C18      1.0000 0.21780  0.12770  0.37300  Biso   1.000  C
  H12      1.0000 0.22700  0.15120  0.34760  Biso   1.000  H
  H13      1.0000 0.19780  0.10260  0.35720  Biso   1.000  H
  C19      1.0000 0.18070  0.94450  0.57580  Biso   1.000  C
  H14      1.0000 0.16000  0.95410  0.54870  Biso   1.000  H
  H15      1.0000 0.17470  0.91050  0.58380  Biso   1.000  H
  H16      1.0000 0.21470  0.94860  0.56670  Biso   1.000  H
  C20      1.0000 0.20240  0.95820  0.66610  Biso   1.000  C
  H17      1.0000 0.19270  0.92520  0.67450  Biso   1.000  H
  H18      1.0000 0.19850  0.97920  0.69440  Biso   1.000  H
  H19      1.0000 0.23630  0.95840  0.65590  Biso   1.000  H
  C21      1.0000 0.09250  0.30440  0.45580  Biso   1.000  C
  H20      1.0000 0.08650  0.33830  0.44750  Biso   1.000  H
  H21      1.0000 0.10330  0.30220  0.48950  Biso   1.000  H
  H22      1.0000 0.06260  0.28580  0.45180  Biso   1.000  H
  C22      1.0000 0.11260  0.28630  0.37340  Biso   1.000  C
  H23      1.0000 0.10190  0.31940  0.36630  Biso   1.000  H
  H24      1.0000 0.08510  0.26410  0.37020  Biso   1.000  H
  H25      1.0000 0.13810  0.27700  0.35080  Biso   1.000  H
  C23      1.0000 0.11840  0.96880  0.63580  Biso   1.000  C
  H26      1.0000 0.09700  0.97930  0.60950  Biso   1.000  H
  H27      1.0000 0.11050  0.98680  0.66530  Biso   1.000  H
  H28      1.0000 0.11380  0.93410  0.64150  Biso   1.000  H
  C24      1.0000 0.13120  0.28410  0.42300  Biso   1.000  C
  C25      1.0000 0.19850  0.21310  0.58740  Biso   1.000  C
  H29      1.0000 0.20880  0.24200  0.56980  Biso   1.000  H
  H30      1.0000 0.21370  0.21260  0.61940  Biso   1.000  H
  H31      1.0000 0.16330  0.21340  0.59110  Biso   1.000  H
  O5       1.0000 0.67290  0.58000  0.95330  Biso   1.000  O
  O6       1.0000 0.68530  0.48070  0.94210  Biso   1.000  O
  C26      1.0000 0.73470  0.60260  0.10940  Biso   1.000  C
  O7       1.0000 0.71120  0.67530  0.06380  Biso   1.000  O
  C27      1.0000 0.66630  0.63160  0.94860  Biso   1.000  C
  C28      1.0000 0.65050  0.55770  0.07660  Biso   1.000  C
  H32      1.0000 0.61880  0.54270  0.06770  Biso   1.000  H
  C29      1.0000 0.70080  0.62810  0.07860  Biso   1.000  C
  C30      1.0000 0.63980  0.65500  0.98270  Biso   1.000  C
  C31      1.0000 0.63510  0.55390  0.93090  Biso   1.000  C
  H33      1.0000 0.63030  0.56620  0.89760  Biso   1.000  H
  H34      1.0000 0.60470  0.55910  0.94920  Biso   1.000  H
  C32      1.0000 0.66870  0.47800  0.12240  Biso   1.000  C
  C33      1.0000 0.62990  0.70450  0.97350  Biso   1.000  C
  H35      1.0000 0.61130  0.72240  0.99620  Biso   1.000  H
  C34      1.0000 0.68650  0.65340  0.90760  Biso   1.000  C
  C35      1.0000 0.68210  0.53020  0.10710  Biso   1.000  C
  C36      1.0000 0.65840  0.60320  0.06180  Biso   1.000  C
  C37      1.0000 0.72270  0.55280  0.12070  Biso   1.000  C
  H36      1.0000 0.74350  0.53600  0.14500  Biso   1.000  H
  O8       1.0000 0.60900  0.47370  0.90830  Biso   1.000  O
  C38      1.0000 0.64690  0.49770  0.92910  Biso   1.000  C
  C39      1.0000 0.64760  0.72870  0.92960  Biso   1.000  C
  C40      1.0000 0.67440  0.70330  0.89980  Biso   1.000  C
  H37      1.0000 0.68640  0.71870  0.87160  Biso   1.000  H
  C41      1.0000 0.61960  0.63170  0.02940  Biso   1.000  C
  H38      1.0000 0.59360  0.60880  0.02020  Biso   1.000  H
  H39      1.0000 0.60480  0.65740  0.04940  Biso   1.000  H
  C42      1.0000 0.68440  0.81290  0.92410  Biso   1.000  C
  H40      1.0000 0.67910  0.84770  0.91980  Biso   1.000  H
  H41      1.0000 0.70490  0.80080  0.89790  Biso   1.000  H
  H42      1.0000 0.70020  0.80710  0.95530  Biso   1.000  H
  C43      1.0000 0.71780  0.62770  0.87300  Biso   1.000  C
  H43      1.0000 0.72700  0.65120  0.84760  Biso   1.000  H
  H44      1.0000 0.69780  0.60260  0.85720  Biso   1.000  H
  C44      1.0000 0.68070  0.44450  0.07580  Biso   1.000  C
  H45      1.0000 0.66000  0.45410  0.04870  Biso   1.000  H
  H46      1.0000 0.67470  0.41050  0.08380  Biso   1.000  H
  H47      1.0000 0.71470  0.44860  0.06670  Biso   1.000  H
  C45      1.0000 0.70240  0.45820  0.16610  Biso   1.000  C
  H48      1.0000 0.69270  0.42520  0.17450  Biso   1.000  H
  H49      1.0000 0.69850  0.47920  0.19440  Biso   1.000  H
  H50      1.0000 0.73630  0.45840  0.15590  Biso   1.000  H
  C46      1.0000 0.59250  0.80440  0.95580  Biso   1.000  C
  H51      1.0000 0.58650  0.83830  0.94750  Biso   1.000  H
  H52      1.0000 0.60330  0.80220  0.98950  Biso   1.000  H
  H53      1.0000 0.56260  0.78580  0.95180  Biso   1.000  H
  C47      1.0000 0.61260  0.78630  0.87340  Biso   1.000  C
  H54      1.0000 0.60190  0.81940  0.86630  Biso   1.000  H
  H55      1.0000 0.58510  0.76410  0.87020  Biso   1.000  H
  H56      1.0000 0.63810  0.77700  0.85080  Biso   1.000  H
  C48      1.0000 0.61840  0.46880  0.13580  Biso   1.000  C
  H57      1.0000 0.59700  0.47930  0.10950  Biso   1.000  H
  H58      1.0000 0.61050  0.48680  0.16530  Biso   1.000  H
  H59      1.0000 0.61380  0.43410  0.14150  Biso   1.000  H
  C49      1.0000 0.63120  0.78410  0.92300  Biso   1.000  C
  C50      1.0000 0.69850  0.71310  0.08740  Biso   1.000  C
  H60      1.0000 0.70880  0.74200  0.06980  Biso   1.000  H
  H61      1.0000 0.71370  0.71260  0.11940  Biso   1.000  H
  H62      1.0000 0.66330  0.71340  0.09110  Biso   1.000  H
  O9       1.0000 0.32710  0.92000  0.95330  Biso   1.000  O
  O10      1.0000 0.31470  0.01930  0.94210  Biso   1.000  O
  C51      1.0000 0.26530  0.89740  0.10940  Biso   1.000  C
  O11      1.0000 0.28880  0.82470  0.06380  Biso   1.000  O
  C52      1.0000 0.33370  0.86840  0.94860  Biso   1.000  C
  C53      1.0000 0.34950  0.94230  0.07660  Biso   1.000  C
  H63      1.0000 0.38120  0.95730  0.06770  Biso   1.000  H
  C54      1.0000 0.29920  0.87190  0.07860  Biso   1.000  C
  C55      1.0000 0.36020  0.84500  0.98270  Biso   1.000  C
  C56      1.0000 0.36490  0.94610  0.93090  Biso   1.000  C
  H64      1.0000 0.36970  0.93380  0.89760  Biso   1.000  H
  H65      1.0000 0.39530  0.94090  0.94920  Biso   1.000  H
  C57      1.0000 0.33130  0.02200  0.12240  Biso   1.000  C
  C58      1.0000 0.37010  0.79550  0.97350  Biso   1.000  C
  H66      1.0000 0.38870  0.77760  0.99620  Biso   1.000  H
  C59      1.0000 0.31350  0.84660  0.90760  Biso   1.000  C
  C60      1.0000 0.31790  0.96980  0.10710  Biso   1.000  C
  C61      1.0000 0.34160  0.89680  0.06180  Biso   1.000  C
  C62      1.0000 0.27730  0.94720  0.12070  Biso   1.000  C
  H67      1.0000 0.25650  0.96400  0.14500  Biso   1.000  H
  O12      1.0000 0.39100  0.02630  0.90830  Biso   1.000  O
  C63      1.0000 0.35310  0.00230  0.92910  Biso   1.000  C
  C64      1.0000 0.35240  0.77130  0.92960  Biso   1.000  C
  C65      1.0000 0.32560  0.79670  0.89980  Biso   1.000  C
  H68      1.0000 0.31360  0.78130  0.87160  Biso   1.000  H
  C66      1.0000 0.38040  0.86830  0.02940  Biso   1.000  C
  H69      1.0000 0.40640  0.89120  0.02020  Biso   1.000  H
  H70      1.0000 0.39520  0.84260  0.04940  Biso   1.000  H
  C67      1.0000 0.31560  0.68710  0.92410  Biso   1.000  C
  H71      1.0000 0.32090  0.65230  0.91980  Biso   1.000  H
  H72      1.0000 0.29510  0.69920  0.89790  Biso   1.000  H
  H73      1.0000 0.29980  0.69290  0.95530  Biso   1.000  H
  C68      1.0000 0.28220  0.87230  0.87300  Biso   1.000  C
  H74      1.0000 0.27300  0.84880  0.84760  Biso   1.000  H
  H75      1.0000 0.30220  0.89740  0.85720  Biso   1.000  H
  C69      1.0000 0.31930  0.05550  0.07580  Biso   1.000  C
  H76      1.0000 0.34000  0.04590  0.04870  Biso   1.000  H
  H77      1.0000 0.32530  0.08950  0.08380  Biso   1.000  H
  H78      1.0000 0.28530  0.05140  0.06670  Biso   1.000  H
  C70      1.0000 0.29760  0.04180  0.16610  Biso   1.000  C
  H79      1.0000 0.30730  0.07480  0.17450  Biso   1.000  H
  H80      1.0000 0.30150  0.02080  0.19440  Biso   1.000  H
  H81      1.0000 0.26370  0.04160  0.15590  Biso   1.000  H
  C71      1.0000 0.40750  0.69560  0.95580  Biso   1.000  C
  H82      1.0000 0.41350  0.66170  0.94750  Biso   1.000  H
  H83      1.0000 0.39670  0.69780  0.98950  Biso   1.000  H
  H84      1.0000 0.43740  0.71420  0.95180  Biso   1.000  H
  C72      1.0000 0.38740  0.71370  0.87340  Biso   1.000  C
  H85      1.0000 0.39810  0.68060  0.86630  Biso   1.000  H
  H86      1.0000 0.41490  0.73590  0.87020  Biso   1.000  H
  H87      1.0000 0.36190  0.72300  0.85080  Biso   1.000  H
  C73      1.0000 0.38160  0.03120  0.13580  Biso   1.000  C
  H88      1.0000 0.40300  0.02070  0.10950  Biso   1.000  H
  H89      1.0000 0.38950  0.01320  0.16530  Biso   1.000  H
  H90      1.0000 0.38620  0.06590  0.14150  Biso   1.000  H
  C74      1.0000 0.36880  0.71590  0.92300  Biso   1.000  C
  C75      1.0000 0.30150  0.78690  0.08740  Biso   1.000  C
  H91      1.0000 0.29120  0.75800  0.06980  Biso   1.000  H
  H92      1.0000 0.28630  0.78740  0.11940  Biso   1.000  H
  H93      1.0000 0.33670  0.78660  0.09110  Biso   1.000  H
  O13      1.0000 0.82710  0.42000  0.45330  Biso   1.000  O
  O14      1.0000 0.81470  0.51930  0.44210  Biso   1.000  O
  C76      1.0000 0.76530  0.39740  0.60940  Biso   1.000  C
  O15      1.0000 0.78880  0.32470  0.56380  Biso   1.000  O
  C77      1.0000 0.83370  0.36840  0.44860  Biso   1.000  C
  C78      1.0000 0.84950  0.44230  0.57660  Biso   1.000  C
  H94      1.0000 0.88120  0.45730  0.56770  Biso   1.000  H
  C79      1.0000 0.79920  0.37190  0.57860  Biso   1.000  C
  C80      1.0000 0.86020  0.34500  0.48270  Biso   1.000  C
  C81      1.0000 0.86490  0.44610  0.43090  Biso   1.000  C
  H95      1.0000 0.86970  0.43380  0.39760  Biso   1.000  H
  H96      1.0000 0.89530  0.44090  0.44920  Biso   1.000  H
  C82      1.0000 0.83130  0.52200  0.62240  Biso   1.000  C
  C83      1.0000 0.87010  0.29550  0.47350  Biso   1.000  C
  H97      1.0000 0.88870  0.27760  0.49620  Biso   1.000  H
  C84      1.0000 0.81350  0.34660  0.40760  Biso   1.000  C
  C85      1.0000 0.81790  0.46980  0.60710  Biso   1.000  C
  C86      1.0000 0.84160  0.39680  0.56180  Biso   1.000  C
  C87      1.0000 0.77730  0.44720  0.62070  Biso   1.000  C
  H98      1.0000 0.75650  0.46400  0.64500  Biso   1.000  H
  O16      1.0000 0.89100  0.52630  0.40830  Biso   1.000  O
  C88      1.0000 0.85310  0.50230  0.42910  Biso   1.000  C
  C89      1.0000 0.85240  0.27130  0.42960  Biso   1.000  C
  C90      1.0000 0.82560  0.29670  0.39980  Biso   1.000  C
  H99      1.0000 0.81360  0.28130  0.37160  Biso   1.000  H
  C91      1.0000 0.88040  0.36830  0.52940  Biso   1.000  C
  H100     1.0000 0.90640  0.39120  0.52020  Biso   1.000  H
  H101     1.0000 0.89520  0.34260  0.54940  Biso   1.000  H
  C92      1.0000 0.81560  0.18710  0.42410  Biso   1.000  C
  H102     1.0000 0.82090  0.15230  0.41980  Biso   1.000  H
  H103     1.0000 0.79510  0.19920  0.39790  Biso   1.000  H
  H104     1.0000 0.79980  0.19290  0.45530  Biso   1.000  H
  C93      1.0000 0.78220  0.37230  0.37300  Biso   1.000  C
  H105     1.0000 0.77300  0.34880  0.34760  Biso   1.000  H
  H106     1.0000 0.80220  0.39740  0.35720  Biso   1.000  H
  C94      1.0000 0.81930  0.55550  0.57580  Biso   1.000  C
  H107     1.0000 0.84000  0.54590  0.54870  Biso   1.000  H
  H108     1.0000 0.82530  0.58950  0.58380  Biso   1.000  H
  H109     1.0000 0.78530  0.55140  0.56670  Biso   1.000  H
  C95      1.0000 0.79760  0.54180  0.66610  Biso   1.000  C
  H110     1.0000 0.80730  0.57480  0.67450  Biso   1.000  H
  H111     1.0000 0.80150  0.52080  0.69440  Biso   1.000  H
  H112     1.0000 0.76370  0.54160  0.65590  Biso   1.000  H
  C96      1.0000 0.90750  0.19560  0.45580  Biso   1.000  C
  H113     1.0000 0.91350  0.16170  0.44750  Biso   1.000  H
  H114     1.0000 0.89670  0.19780  0.48950  Biso   1.000  H
  H115     1.0000 0.93740  0.21420  0.45180  Biso   1.000  H
  C97      1.0000 0.88740  0.21370  0.37340  Biso   1.000  C
  H116     1.0000 0.89810  0.18060  0.36630  Biso   1.000  H
  H117     1.0000 0.91490  0.23590  0.37020  Biso   1.000  H
  H118     1.0000 0.86190  0.22300  0.35080  Biso   1.000  H
  C98      1.0000 0.88160  0.53120  0.63580  Biso   1.000  C
  H119     1.0000 0.90300  0.52070  0.60950  Biso   1.000  H
  H120     1.0000 0.88950  0.51320  0.66530  Biso   1.000  H
  H121     1.0000 0.88620  0.56590  0.64150  Biso   1.000  H
  C99      1.0000 0.86880  0.21590  0.42300  Biso   1.000  C
  C100     1.0000 0.80150  0.28690  0.58740  Biso   1.000  C
  H122     1.0000 0.79120  0.25800  0.56980  Biso   1.000  H
  H123     1.0000 0.78630  0.28740  0.61940  Biso   1.000  H
  H124     1.0000 0.83670  0.28660  0.59110  Biso   1.000  H
  O17      1.0000 0.82710  0.58000  0.04670  Biso   1.000  O
  O18      1.0000 0.81470  0.48070  0.05790  Biso   1.000  O
  C101     1.0000 0.76530  0.60260  0.89060  Biso   1.000  C
  O19      1.0000 0.78880  0.67530  0.93620  Biso   1.000  O
  C102     1.0000 0.83370  0.63160  0.05140  Biso   1.000  C
  C103     1.0000 0.84950  0.55770  0.92340  Biso   1.000  C
  H125     1.0000 0.88120  0.54270  0.93230  Biso   1.000  H
  C104     1.0000 0.79920  0.62810  0.92140  Biso   1.000  C
  C105     1.0000 0.86020  0.65500  0.01730  Biso   1.000  C
  C106     1.0000 0.86490  0.55390  0.06910  Biso   1.000  C
  H126     1.0000 0.86970  0.56620  0.10240  Biso   1.000  H
  H127     1.0000 0.89530  0.55910  0.05080  Biso   1.000  H
  C107     1.0000 0.83130  0.47800  0.87760  Biso   1.000  C
  C108     1.0000 0.87010  0.70450  0.02650  Biso   1.000  C
  H128     1.0000 0.88870  0.72240  0.00380  Biso   1.000  H
  C109     1.0000 0.81350  0.65340  0.09240  Biso   1.000  C
  C110     1.0000 0.81790  0.53020  0.89290  Biso   1.000  C
  C111     1.0000 0.84160  0.60320  0.93820  Biso   1.000  C
  C112     1.0000 0.77730  0.55280  0.87930  Biso   1.000  C
  H129     1.0000 0.75650  0.53600  0.85500  Biso   1.000  H
  O20      1.0000 0.89100  0.47370  0.09170  Biso   1.000  O
  C113     1.0000 0.85310  0.49770  0.07090  Biso   1.000  C
  C114     1.0000 0.85240  0.72870  0.07040  Biso   1.000  C
  C115     1.0000 0.82560  0.70330  0.10020  Biso   1.000  C
  H130     1.0000 0.81360  0.71870  0.12840  Biso   1.000  H
  C116     1.0000 0.88040  0.63170  0.97060  Biso   1.000  C
  H131     1.0000 0.90640  0.60880  0.97980  Biso   1.000  H
  H132     1.0000 0.89520  0.65740  0.95060  Biso   1.000  H
  C117     1.0000 0.81560  0.81290  0.07590  Biso   1.000  C
  H133     1.0000 0.82090  0.84770  0.08020  Biso   1.000  H
  H134     1.0000 0.79510  0.80080  0.10210  Biso   1.000  H
  H135     1.0000 0.79980  0.80710  0.04470  Biso   1.000  H
  C118     1.0000 0.78220  0.62770  0.12700  Biso   1.000  C
  H136     1.0000 0.77300  0.65120  0.15240  Biso   1.000  H
  H137     1.0000 0.80220  0.60260  0.14280  Biso   1.000  H
  C119     1.0000 0.81930  0.44450  0.92420  Biso   1.000  C
  H138     1.0000 0.84000  0.45410  0.95130  Biso   1.000  H
  H139     1.0000 0.82530  0.41050  0.91620  Biso   1.000  H
  H140     1.0000 0.78530  0.44860  0.93330  Biso   1.000  H
  C120     1.0000 0.79760  0.45820  0.83390  Biso   1.000  C
  H141     1.0000 0.80730  0.42520  0.82550  Biso   1.000  H
  H142     1.0000 0.80150  0.47920  0.80560  Biso   1.000  H
  H143     1.0000 0.76370  0.45840  0.84410  Biso   1.000  H
  C121     1.0000 0.90750  0.80440  0.04420  Biso   1.000  C
  H144     1.0000 0.91350  0.83830  0.05250  Biso   1.000  H
  H145     1.0000 0.89670  0.80220  0.01050  Biso   1.000  H
  H146     1.0000 0.93740  0.78580  0.04820  Biso   1.000  H
  C122     1.0000 0.88740  0.78630  0.12660  Biso   1.000  C
  H147     1.0000 0.89810  0.81940  0.13370  Biso   1.000  H
  H148     1.0000 0.91490  0.76410  0.12980  Biso   1.000  H
  H149     1.0000 0.86190  0.77700  0.14920  Biso   1.000  H
  C123     1.0000 0.88160  0.46880  0.86420  Biso   1.000  C
  H150     1.0000 0.90300  0.47930  0.89050  Biso   1.000  H
  H151     1.0000 0.88950  0.48680  0.83470  Biso   1.000  H
  H152     1.0000 0.88620  0.43410  0.85850  Biso   1.000  H
  C124     1.0000 0.86880  0.78410  0.07700  Biso   1.000  C
  C125     1.0000 0.80150  0.71310  0.91260  Biso   1.000  C
  H153     1.0000 0.79120  0.74200  0.93020  Biso   1.000  H
  H154     1.0000 0.78630  0.71260  0.88060  Biso   1.000  H
  H155     1.0000 0.83670  0.71340  0.90890  Biso   1.000  H
  O21      1.0000 0.32710  0.08000  0.54670  Biso   1.000  O
  O22      1.0000 0.31470  0.98070  0.55790  Biso   1.000  O
  C126     1.0000 0.26530  0.10260  0.39060  Biso   1.000  C
  O23      1.0000 0.28880  0.17530  0.43620  Biso   1.000  O
  C127     1.0000 0.33370  0.13160  0.55140  Biso   1.000  C
  C128     1.0000 0.34950  0.05770  0.42340  Biso   1.000  C
  H156     1.0000 0.38120  0.04270  0.43230  Biso   1.000  H
  C129     1.0000 0.29920  0.12810  0.42140  Biso   1.000  C
  C130     1.0000 0.36020  0.15500  0.51730  Biso   1.000  C
  C131     1.0000 0.36490  0.05390  0.56910  Biso   1.000  C
  H157     1.0000 0.36970  0.06620  0.60240  Biso   1.000  H
  H158     1.0000 0.39530  0.05910  0.55080  Biso   1.000  H
  C132     1.0000 0.33130  0.97800  0.37760  Biso   1.000  C
  C133     1.0000 0.37010  0.20450  0.52650  Biso   1.000  C
  H159     1.0000 0.38870  0.22240  0.50380  Biso   1.000  H
  C134     1.0000 0.31350  0.15340  0.59240  Biso   1.000  C
  C135     1.0000 0.31790  0.03020  0.39290  Biso   1.000  C
  C136     1.0000 0.34160  0.10320  0.43820  Biso   1.000  C
  C137     1.0000 0.27730  0.05280  0.37930  Biso   1.000  C
  H160     1.0000 0.25650  0.03600  0.35500  Biso   1.000  H
  O24      1.0000 0.39100  0.97370  0.59170  Biso   1.000  O
  C138     1.0000 0.35310  0.99770  0.57090  Biso   1.000  C
  C139     1.0000 0.35240  0.22870  0.57040  Biso   1.000  C
  C140     1.0000 0.32560  0.20330  0.60020  Biso   1.000  C
  H161     1.0000 0.31360  0.21870  0.62840  Biso   1.000  H
  C141     1.0000 0.38040  0.13170  0.47060  Biso   1.000  C
  H162     1.0000 0.40640  0.10880  0.47980  Biso   1.000  H
  H163     1.0000 0.39520  0.15740  0.45060  Biso   1.000  H
  C142     1.0000 0.31560  0.31290  0.57590  Biso   1.000  C
  H164     1.0000 0.32090  0.34770  0.58020  Biso   1.000  H
  H165     1.0000 0.29510  0.30080  0.60210  Biso   1.000  H
  H166     1.0000 0.29980  0.30710  0.54470  Biso   1.000  H
  C143     1.0000 0.28220  0.12770  0.62700  Biso   1.000  C
  H167     1.0000 0.27300  0.15120  0.65240  Biso   1.000  H
  H168     1.0000 0.30220  0.10260  0.64280  Biso   1.000  H
  C144     1.0000 0.31930  0.94450  0.42420  Biso   1.000  C
  H169     1.0000 0.34000  0.95410  0.45130  Biso   1.000  H
  H170     1.0000 0.32530  0.91050  0.41620  Biso   1.000  H
  H171     1.0000 0.28530  0.94860  0.43330  Biso   1.000  H
  C145     1.0000 0.29760  0.95820  0.33390  Biso   1.000  C
  H172     1.0000 0.30730  0.92520  0.32550  Biso   1.000  H
  H173     1.0000 0.30150  0.97920  0.30560  Biso   1.000  H
  H174     1.0000 0.26370  0.95840  0.34410  Biso   1.000  H
  C146     1.0000 0.40750  0.30440  0.54420  Biso   1.000  C
  H175     1.0000 0.41350  0.33830  0.55250  Biso   1.000  H
  H176     1.0000 0.39670  0.30220  0.51050  Biso   1.000  H
  H177     1.0000 0.43740  0.28580  0.54820  Biso   1.000  H
  C147     1.0000 0.38740  0.28630  0.62660  Biso   1.000  C
  H178     1.0000 0.39810  0.31940  0.63370  Biso   1.000  H
  H179     1.0000 0.41490  0.26410  0.62980  Biso   1.000  H
  H180     1.0000 0.36190  0.27700  0.64920  Biso   1.000  H
  C148     1.0000 0.38160  0.96880  0.36420  Biso   1.000  C
  H181     1.0000 0.40300  0.97930  0.39050  Biso   1.000  H
  H182     1.0000 0.38950  0.98680  0.33470  Biso   1.000  H
  H183     1.0000 0.38620  0.93410  0.35850  Biso   1.000  H
  C149     1.0000 0.36880  0.28410  0.57700  Biso   1.000  C
  C150     1.0000 0.30150  0.21310  0.41260  Biso   1.000  C
  H184     1.0000 0.29120  0.24200  0.43020  Biso   1.000  H
  H185     1.0000 0.28630  0.21260  0.38060  Biso   1.000  H
  H186     1.0000 0.33670  0.21340  0.40890  Biso   1.000  H
  O25      1.0000 0.67290  0.42000  0.54670  Biso   1.000  O
  O26      1.0000 0.68530  0.51930  0.55790  Biso   1.000  O
  C151     1.0000 0.73470  0.39740  0.39060  Biso   1.000  C
  O27      1.0000 0.71120  0.32470  0.43620  Biso   1.000  O
  C152     1.0000 0.66630  0.36840  0.55140  Biso   1.000  C
  C153     1.0000 0.65050  0.44230  0.42340  Biso   1.000  C
  H187     1.0000 0.61880  0.45730  0.43230  Biso   1.000  H
  C154     1.0000 0.70080  0.37190  0.42140  Biso   1.000  C
  C155     1.0000 0.63980  0.34500  0.51730  Biso   1.000  C
  C156     1.0000 0.63510  0.44610  0.56910  Biso   1.000  C
  H188     1.0000 0.63030  0.43380  0.60240  Biso   1.000  H
  H189     1.0000 0.60470  0.44090  0.55080  Biso   1.000  H
  C157     1.0000 0.66870  0.52200  0.37760  Biso   1.000  C
  C158     1.0000 0.62990  0.29550  0.52650  Biso   1.000  C
  H190     1.0000 0.61130  0.27760  0.50380  Biso   1.000  H
  C159     1.0000 0.68650  0.34660  0.59240  Biso   1.000  C
  C160     1.0000 0.68210  0.46980  0.39290  Biso   1.000  C
  C161     1.0000 0.65840  0.39680  0.43820  Biso   1.000  C
  C162     1.0000 0.72270  0.44720  0.37930  Biso   1.000  C
  H191     1.0000 0.74350  0.46400  0.35500  Biso   1.000  H
  O28      1.0000 0.60900  0.52630  0.59170  Biso   1.000  O
  C163     1.0000 0.64690  0.50230  0.57090  Biso   1.000  C
  C164     1.0000 0.64760  0.27130  0.57040  Biso   1.000  C
  C165     1.0000 0.67440  0.29670  0.60020  Biso   1.000  C
  H192     1.0000 0.68640  0.28130  0.62840  Biso   1.000  H
  C166     1.0000 0.61960  0.36830  0.47060  Biso   1.000  C
  H193     1.0000 0.59360  0.39120  0.47980  Biso   1.000  H
  H194     1.0000 0.60480  0.34260  0.45060  Biso   1.000  H
  C167     1.0000 0.68440  0.18710  0.57590  Biso   1.000  C
  H195     1.0000 0.67910  0.15230  0.58020  Biso   1.000  H
  H196     1.0000 0.70490  0.19920  0.60210  Biso   1.000  H
  H197     1.0000 0.70020  0.19290  0.54470  Biso   1.000  H
  C168     1.0000 0.71780  0.37230  0.62700  Biso   1.000  C
  H198     1.0000 0.72700  0.34880  0.65240  Biso   1.000  H
  H199     1.0000 0.69780  0.39740  0.64280  Biso   1.000  H
  C169     1.0000 0.68070  0.55550  0.42420  Biso   1.000  C
  H200     1.0000 0.66000  0.54590  0.45130  Biso   1.000  H
  H201     1.0000 0.67470  0.58950  0.41620  Biso   1.000  H
  H202     1.0000 0.71470  0.55140  0.43330  Biso   1.000  H
  C170     1.0000 0.70240  0.54180  0.33390  Biso   1.000  C
  H203     1.0000 0.69270  0.57480  0.32550  Biso   1.000  H
  H204     1.0000 0.69850  0.52080  0.30560  Biso   1.000  H
  H205     1.0000 0.73630  0.54160  0.34410  Biso   1.000  H
  C171     1.0000 0.59250  0.19560  0.54420  Biso   1.000  C
  H206     1.0000 0.58650  0.16170  0.55250  Biso   1.000  H
  H207     1.0000 0.60330  0.19780  0.51050  Biso   1.000  H
  H208     1.0000 0.56260  0.21420  0.54820  Biso   1.000  H
  C172     1.0000 0.61260  0.21370  0.62660  Biso   1.000  C
  H209     1.0000 0.60190  0.18060  0.63370  Biso   1.000  H
  H210     1.0000 0.58510  0.23590  0.62980  Biso   1.000  H
  H211     1.0000 0.63810  0.22300  0.64920  Biso   1.000  H
  C173     1.0000 0.61840  0.53120  0.36420  Biso   1.000  C
  H212     1.0000 0.59700  0.52070  0.39050  Biso   1.000  H
  H213     1.0000 0.61050  0.51320  0.33470  Biso   1.000  H
  H214     1.0000 0.61380  0.56590  0.35850  Biso   1.000  H
  C174     1.0000 0.63120  0.21590  0.57700  Biso   1.000  C
  C175     1.0000 0.69850  0.28690  0.41260  Biso   1.000  C
  H215     1.0000 0.70880  0.25800  0.43020  Biso   1.000  H
  H216     1.0000 0.71370  0.28740  0.38060  Biso   1.000  H
  H217     1.0000 0.66330  0.28660  0.40890  Biso   1.000  H
  O29      1.0000 0.17290  0.92000  0.04670  Biso   1.000  O
  O30      1.0000 0.18530  0.01930  0.05790  Biso   1.000  O
  C176     1.0000 0.23470  0.89740  0.89060  Biso   1.000  C
  O31      1.0000 0.21120  0.82470  0.93620  Biso   1.000  O
  C177     1.0000 0.16630  0.86840  0.05140  Biso   1.000  C
  C178     1.0000 0.15050  0.94230  0.92340  Biso   1.000  C
  H218     1.0000 0.11880  0.95730  0.93230  Biso   1.000  H
  C179     1.0000 0.20080  0.87190  0.92140  Biso   1.000  C
  C180     1.0000 0.13980  0.84500  0.01730  Biso   1.000  C
  C181     1.0000 0.13510  0.94610  0.06910  Biso   1.000  C
  H219     1.0000 0.13030  0.93380  0.10240  Biso   1.000  H
  H220     1.0000 0.10470  0.94090  0.05080  Biso   1.000  H
  C182     1.0000 0.16870  0.02200  0.87760  Biso   1.000  C
  C183     1.0000 0.12990  0.79550  0.02650  Biso   1.000  C
  H221     1.0000 0.11130  0.77760  0.00380  Biso   1.000  H
  C184     1.0000 0.18650  0.84660  0.09240  Biso   1.000  C
  C185     1.0000 0.18210  0.96980  0.89290  Biso   1.000  C
  C186     1.0000 0.15840  0.89680  0.93820  Biso   1.000  C
  C187     1.0000 0.22270  0.94720  0.87930  Biso   1.000  C
  H222     1.0000 0.24350  0.96400  0.85500  Biso   1.000  H
  O32      1.0000 0.10900  0.02630  0.09170  Biso   1.000  O
  C188     1.0000 0.14690  0.00230  0.07090  Biso   1.000  C
  C189     1.0000 0.14760  0.77130  0.07040  Biso   1.000  C
  C190     1.0000 0.17440  0.79670  0.10020  Biso   1.000  C
  H223     1.0000 0.18640  0.78130  0.12840  Biso   1.000  H
  C191     1.0000 0.11960  0.86830  0.97060  Biso   1.000  C
  H224     1.0000 0.09360  0.89120  0.97980  Biso   1.000  H
  H225     1.0000 0.10480  0.84260  0.95060  Biso   1.000  H
  C192     1.0000 0.18440  0.68710  0.07590  Biso   1.000  C
  H226     1.0000 0.17910  0.65230  0.08020  Biso   1.000  H
  H227     1.0000 0.20490  0.69920  0.10210  Biso   1.000  H
  H228     1.0000 0.20020  0.69290  0.04470  Biso   1.000  H
  C193     1.0000 0.21780  0.87230  0.12700  Biso   1.000  C
  H229     1.0000 0.22700  0.84880  0.15240  Biso   1.000  H
  H230     1.0000 0.19780  0.89740  0.14280  Biso   1.000  H
  C194     1.0000 0.18070  0.05550  0.92420  Biso   1.000  C
  H231     1.0000 0.16000  0.04590  0.95130  Biso   1.000  H
  H232     1.0000 0.17470  0.08950  0.91620  Biso   1.000  H
  H233     1.0000 0.21470  0.05140  0.93330  Biso   1.000  H
  C195     1.0000 0.20240  0.04180  0.83390  Biso   1.000  C
  H234     1.0000 0.19270  0.07480  0.82550  Biso   1.000  H
  H235     1.0000 0.19850  0.02080  0.80560  Biso   1.000  H
  H236     1.0000 0.23630  0.04160  0.84410  Biso   1.000  H
  C196     1.0000 0.09250  0.69560  0.04420  Biso   1.000  C
  H237     1.0000 0.08650  0.66170  0.05250  Biso   1.000  H
  H238     1.0000 0.10330  0.69780  0.01050  Biso   1.000  H
  H239     1.0000 0.06260  0.71420  0.04820  Biso   1.000  H
  C197     1.0000 0.11260  0.71370  0.12660  Biso   1.000  C
  H240     1.0000 0.10190  0.68060  0.13370  Biso   1.000  H
  H241     1.0000 0.08510  0.73590  0.12980  Biso   1.000  H
  H242     1.0000 0.13810  0.72300  0.14920  Biso   1.000  H
  C198     1.0000 0.11840  0.03120  0.86420  Biso   1.000  C
  H243     1.0000 0.09700  0.02070  0.89050  Biso   1.000  H
  H244     1.0000 0.11050  0.01320  0.83470  Biso   1.000  H
  H245     1.0000 0.11380  0.06590  0.85850  Biso   1.000  H
  C199     1.0000 0.13120  0.71590  0.07700  Biso   1.000  C
  C200     1.0000 0.19850  0.78690  0.91260  Biso   1.000  C
  H246     1.0000 0.20880  0.75800  0.93020  Biso   1.000  H
  H247     1.0000 0.21370  0.78740  0.88060  Biso   1.000  H
  H248     1.0000 0.16330  0.78660  0.90890  Biso   1.000  H
  O33      1.0000 0.45330  0.17290  0.08000  Biso   1.000  O
  O34      1.0000 0.44210  0.18530  0.98070  Biso   1.000  O
  C201     1.0000 0.60940  0.23470  0.10260  Biso   1.000  C
  O35      1.0000 0.56380  0.21120  0.17530  Biso   1.000  O
  C202     1.0000 0.44860  0.16630  0.13160  Biso   1.000  C
  C203     1.0000 0.57660  0.15050  0.05770  Biso   1.000  C
  H249     1.0000 0.56770  0.11880  0.04270  Biso   1.000  H
  C204     1.0000 0.57860  0.20080  0.12810  Biso   1.000  C
  C205     1.0000 0.48270  0.13980  0.15500  Biso   1.000  C
  C206     1.0000 0.43090  0.13510  0.05390  Biso   1.000  C
  H250     1.0000 0.39760  0.13030  0.06620  Biso   1.000  H
  H251     1.0000 0.44920  0.10470  0.05910  Biso   1.000  H
  C207     1.0000 0.62240  0.16870  0.97800  Biso   1.000  C
  C208     1.0000 0.47350  0.12990  0.20450  Biso   1.000  C
  H252     1.0000 0.49620  0.11130  0.22240  Biso   1.000  H
  C209     1.0000 0.40760  0.18650  0.15340  Biso   1.000  C
  C210     1.0000 0.60710  0.18210  0.03020  Biso   1.000  C
  C211     1.0000 0.56180  0.15840  0.10320  Biso   1.000  C
  C212     1.0000 0.62070  0.22270  0.05280  Biso   1.000  C
  H253     1.0000 0.64500  0.24350  0.03600  Biso   1.000  H
  O36      1.0000 0.40830  0.10900  0.97370  Biso   1.000  O
  C213     1.0000 0.42910  0.14690  0.99770  Biso   1.000  C
  C214     1.0000 0.42960  0.14760  0.22870  Biso   1.000  C
  C215     1.0000 0.39980  0.17440  0.20330  Biso   1.000  C
  H254     1.0000 0.37160  0.18640  0.21870  Biso   1.000  H
  C216     1.0000 0.52940  0.11960  0.13170  Biso   1.000  C
  H255     1.0000 0.52020  0.09360  0.10880  Biso   1.000  H
  H256     1.0000 0.54940  0.10480  0.15740  Biso   1.000  H
  C217     1.0000 0.42410  0.18440  0.31290  Biso   1.000  C
  H257     1.0000 0.41980  0.17910  0.34770  Biso   1.000  H
  H258     1.0000 0.39790  0.20490  0.30080  Biso   1.000  H
  H259     1.0000 0.45530  0.20020  0.30710  Biso   1.000  H
  C218     1.0000 0.37300  0.21780  0.12770  Biso   1.000  C
  H260     1.0000 0.34760  0.22700  0.15120  Biso   1.000  H
  H261     1.0000 0.35720  0.19780  0.10260  Biso   1.000  H
  C219     1.0000 0.57580  0.18070  0.94450  Biso   1.000  C
  H262     1.0000 0.54870  0.16000  0.95410  Biso   1.000  H
  H263     1.0000 0.58380  0.17470  0.91050  Biso   1.000  H
  H264     1.0000 0.56670  0.21470  0.94860  Biso   1.000  H
  C220     1.0000 0.66610  0.20240  0.95820  Biso   1.000  C
  H265     1.0000 0.67450  0.19270  0.92520  Biso   1.000  H
  H266     1.0000 0.69440  0.19850  0.97920  Biso   1.000  H
  H267     1.0000 0.65590  0.23630  0.95840  Biso   1.000  H
  C221     1.0000 0.45580  0.09250  0.30440  Biso   1.000  C
  H268     1.0000 0.44750  0.08650  0.33830  Biso   1.000  H
  H269     1.0000 0.48950  0.10330  0.30220  Biso   1.000  H
  H270     1.0000 0.45180  0.06260  0.28580  Biso   1.000  H
  C222     1.0000 0.37340  0.11260  0.28630  Biso   1.000  C
  H271     1.0000 0.36630  0.10190  0.31940  Biso   1.000  H
  H272     1.0000 0.37020  0.08510  0.26410  Biso   1.000  H
  H273     1.0000 0.35080  0.13810  0.27700  Biso   1.000  H
  C223     1.0000 0.63580  0.11840  0.96880  Biso   1.000  C
  H274     1.0000 0.60950  0.09700  0.97930  Biso   1.000  H
  H275     1.0000 0.66530  0.11050  0.98680  Biso   1.000  H
  H276     1.0000 0.64150  0.11380  0.93410  Biso   1.000  H
  C224     1.0000 0.42300  0.13120  0.28410  Biso   1.000  C
  C225     1.0000 0.58740  0.19850  0.21310  Biso   1.000  C
  H277     1.0000 0.56980  0.20880  0.24200  Biso   1.000  H
  H278     1.0000 0.61940  0.21370  0.21260  Biso   1.000  H
  H279     1.0000 0.59110  0.16330  0.21340  Biso   1.000  H
  O37      1.0000 0.95330  0.67290  0.58000  Biso   1.000  O
  O38      1.0000 0.94210  0.68530  0.48070  Biso   1.000  O
  C226     1.0000 0.10940  0.73470  0.60260  Biso   1.000  C
  O39      1.0000 0.06380  0.71120  0.67530  Biso   1.000  O
  C227     1.0000 0.94860  0.66630  0.63160  Biso   1.000  C
  C228     1.0000 0.07660  0.65050  0.55770  Biso   1.000  C
  H280     1.0000 0.06770  0.61880  0.54270  Biso   1.000  H
  C229     1.0000 0.07860  0.70080  0.62810  Biso   1.000  C
  C230     1.0000 0.98270  0.63980  0.65500  Biso   1.000  C
  C231     1.0000 0.93090  0.63510  0.55390  Biso   1.000  C
  H281     1.0000 0.89760  0.63030  0.56620  Biso   1.000  H
  H282     1.0000 0.94920  0.60470  0.55910  Biso   1.000  H
  C232     1.0000 0.12240  0.66870  0.47800  Biso   1.000  C
  C233     1.0000 0.97350  0.62990  0.70450  Biso   1.000  C
  H283     1.0000 0.99620  0.61130  0.72240  Biso   1.000  H
  C234     1.0000 0.90760  0.68650  0.65340  Biso   1.000  C
  C235     1.0000 0.10710  0.68210  0.53020  Biso   1.000  C
  C236     1.0000 0.06180  0.65840  0.60320  Biso   1.000  C
  C237     1.0000 0.12070  0.72270  0.55280  Biso   1.000  C
  H284     1.0000 0.14500  0.74350  0.53600  Biso   1.000  H
  O40      1.0000 0.90830  0.60900  0.47370  Biso   1.000  O
  C238     1.0000 0.92910  0.64690  0.49770  Biso   1.000  C
  C239     1.0000 0.92960  0.64760  0.72870  Biso   1.000  C
  C240     1.0000 0.89980  0.67440  0.70330  Biso   1.000  C
  H285     1.0000 0.87160  0.68640  0.71870  Biso   1.000  H
  C241     1.0000 0.02940  0.61960  0.63170  Biso   1.000  C
  H286     1.0000 0.02020  0.59360  0.60880  Biso   1.000  H
  H287     1.0000 0.04940  0.60480  0.65740  Biso   1.000  H
  C242     1.0000 0.92410  0.68440  0.81290  Biso   1.000  C
  H288     1.0000 0.91980  0.67910  0.84770  Biso   1.000  H
  H289     1.0000 0.89790  0.70490  0.80080  Biso   1.000  H
  H290     1.0000 0.95530  0.70020  0.80710  Biso   1.000  H
  C243     1.0000 0.87300  0.71780  0.62770  Biso   1.000  C
  H291     1.0000 0.84760  0.72700  0.65120  Biso   1.000  H
  H292     1.0000 0.85720  0.69780  0.60260  Biso   1.000  H
  C244     1.0000 0.07580  0.68070  0.44450  Biso   1.000  C
  H293     1.0000 0.04870  0.66000  0.45410  Biso   1.000  H
  H294     1.0000 0.08380  0.67470  0.41050  Biso   1.000  H
  H295     1.0000 0.06670  0.71470  0.44860  Biso   1.000  H
  C245     1.0000 0.16610  0.70240  0.45820  Biso   1.000  C
  H296     1.0000 0.17450  0.69270  0.42520  Biso   1.000  H
  H297     1.0000 0.19440  0.69850  0.47920  Biso   1.000  H
  H298     1.0000 0.15590  0.73630  0.45840  Biso   1.000  H
  C246     1.0000 0.95580  0.59250  0.80440  Biso   1.000  C
  H299     1.0000 0.94750  0.58650  0.83830  Biso   1.000  H
  H300     1.0000 0.98950  0.60330  0.80220  Biso   1.000  H
  H301     1.0000 0.95180  0.56260  0.78580  Biso   1.000  H
  C247     1.0000 0.87340  0.61260  0.78630  Biso   1.000  C
  H302     1.0000 0.86630  0.60190  0.81940  Biso   1.000  H
  H303     1.0000 0.87020  0.58510  0.76410  Biso   1.000  H
  H304     1.0000 0.85080  0.63810  0.77700  Biso   1.000  H
  C248     1.0000 0.13580  0.61840  0.46880  Biso   1.000  C
  H305     1.0000 0.10950  0.59700  0.47930  Biso   1.000  H
  H306     1.0000 0.16530  0.61050  0.48680  Biso   1.000  H
  H307     1.0000 0.14150  0.61380  0.43410  Biso   1.000  H
  C249     1.0000 0.92300  0.63120  0.78410  Biso   1.000  C
  C250     1.0000 0.08740  0.69850  0.71310  Biso   1.000  C
  H308     1.0000 0.06980  0.70880  0.74200  Biso   1.000  H
  H309     1.0000 0.11940  0.71370  0.71260  Biso   1.000  H
  H310     1.0000 0.09110  0.66330  0.71340  Biso   1.000  H
  O41      1.0000 0.95330  0.32710  0.92000  Biso   1.000  O
  O42      1.0000 0.94210  0.31470  0.01930  Biso   1.000  O
  C251     1.0000 0.10940  0.26530  0.89740  Biso   1.000  C
  O43      1.0000 0.06380  0.28880  0.82470  Biso   1.000  O
  C252     1.0000 0.94860  0.33370  0.86840  Biso   1.000  C
  C253     1.0000 0.07660  0.34950  0.94230  Biso   1.000  C
  H311     1.0000 0.06770  0.38120  0.95730  Biso   1.000  H
  C254     1.0000 0.07860  0.29920  0.87190  Biso   1.000  C
  C255     1.0000 0.98270  0.36020  0.84500  Biso   1.000  C
  C256     1.0000 0.93090  0.36490  0.94610  Biso   1.000  C
  H312     1.0000 0.89760  0.36970  0.93380  Biso   1.000  H
  H313     1.0000 0.94920  0.39530  0.94090  Biso   1.000  H
  C257     1.0000 0.12240  0.33130  0.02200  Biso   1.000  C
  C258     1.0000 0.97350  0.37010  0.79550  Biso   1.000  C
  H314     1.0000 0.99620  0.38870  0.77760  Biso   1.000  H
  C259     1.0000 0.90760  0.31350  0.84660  Biso   1.000  C
  C260     1.0000 0.10710  0.31790  0.96980  Biso   1.000  C
  C261     1.0000 0.06180  0.34160  0.89680  Biso   1.000  C
  C262     1.0000 0.12070  0.27730  0.94720  Biso   1.000  C
  H315     1.0000 0.14500  0.25650  0.96400  Biso   1.000  H
  O44      1.0000 0.90830  0.39100  0.02630  Biso   1.000  O
  C263     1.0000 0.92910  0.35310  0.00230  Biso   1.000  C
  C264     1.0000 0.92960  0.35240  0.77130  Biso   1.000  C
  C265     1.0000 0.89980  0.32560  0.79670  Biso   1.000  C
  H316     1.0000 0.87160  0.31360  0.78130  Biso   1.000  H
  C266     1.0000 0.02940  0.38040  0.86830  Biso   1.000  C
  H317     1.0000 0.02020  0.40640  0.89120  Biso   1.000  H
  H318     1.0000 0.04940  0.39520  0.84260  Biso   1.000  H
  C267     1.0000 0.92410  0.31560  0.68710  Biso   1.000  C
  H319     1.0000 0.91980  0.32090  0.65230  Biso   1.000  H
  H320     1.0000 0.89790  0.29510  0.69920  Biso   1.000  H
  H321     1.0000 0.95530  0.29980  0.69290  Biso   1.000  H
  C268     1.0000 0.87300  0.28220  0.87230  Biso   1.000  C
  H322     1.0000 0.84760  0.27300  0.84880  Biso   1.000  H
  H323     1.0000 0.85720  0.30220  0.89740  Biso   1.000  H
  C269     1.0000 0.07580  0.31930  0.05550  Biso   1.000  C
  H324     1.0000 0.04870  0.34000  0.04590  Biso   1.000  H
  H325     1.0000 0.08380  0.32530  0.08950  Biso   1.000  H
  H326     1.0000 0.06670  0.28530  0.05140  Biso   1.000  H
  C270     1.0000 0.16610  0.29760  0.04180  Biso   1.000  C
  H327     1.0000 0.17450  0.30730  0.07480  Biso   1.000  H
  H328     1.0000 0.19440  0.30150  0.02080  Biso   1.000  H
  H329     1.0000 0.15590  0.26370  0.04160  Biso   1.000  H
  C271     1.0000 0.95580  0.40750  0.69560  Biso   1.000  C
  H330     1.0000 0.94750  0.41350  0.66170  Biso   1.000  H
  H331     1.0000 0.98950  0.39670  0.69780  Biso   1.000  H
  H332     1.0000 0.95180  0.43740  0.71420  Biso   1.000  H
  C272     1.0000 0.87340  0.38740  0.71370  Biso   1.000  C
  H333     1.0000 0.86630  0.39810  0.68060  Biso   1.000  H
  H334     1.0000 0.87020  0.41490  0.73590  Biso   1.000  H
  H335     1.0000 0.85080  0.36190  0.72300  Biso   1.000  H
  C273     1.0000 0.13580  0.38160  0.03120  Biso   1.000  C
  H336     1.0000 0.10950  0.40300  0.02070  Biso   1.000  H
  H337     1.0000 0.16530  0.38950  0.01320  Biso   1.000  H
  H338     1.0000 0.14150  0.38620  0.06590  Biso   1.000  H
  C274     1.0000 0.92300  0.36880  0.71590  Biso   1.000  C
  C275     1.0000 0.08740  0.30150  0.78690  Biso   1.000  C
  H339     1.0000 0.06980  0.29120  0.75800  Biso   1.000  H
  H340     1.0000 0.11940  0.28630  0.78740  Biso   1.000  H
  H341     1.0000 0.09110  0.33670  0.78660  Biso   1.000  H
  O45      1.0000 0.45330  0.82710  0.42000  Biso   1.000  O
  O46      1.0000 0.44210  0.81470  0.51930  Biso   1.000  O
  C276     1.0000 0.60940  0.76530  0.39740  Biso   1.000  C
  O47      1.0000 0.56380  0.78880  0.32470  Biso   1.000  O
  C277     1.0000 0.44860  0.83370  0.36840  Biso   1.000  C
  C278     1.0000 0.57660  0.84950  0.44230  Biso   1.000  C
  H342     1.0000 0.56770  0.88120  0.45730  Biso   1.000  H
  C279     1.0000 0.57860  0.79920  0.37190  Biso   1.000  C
  C280     1.0000 0.48270  0.86020  0.34500  Biso   1.000  C
  C281     1.0000 0.43090  0.86490  0.44610  Biso   1.000  C
  H343     1.0000 0.39760  0.86970  0.43380  Biso   1.000  H
  H344     1.0000 0.44920  0.89530  0.44090  Biso   1.000  H
  C282     1.0000 0.62240  0.83130  0.52200  Biso   1.000  C
  C283     1.0000 0.47350  0.87010  0.29550  Biso   1.000  C
  H345     1.0000 0.49620  0.88870  0.27760  Biso   1.000  H
  C284     1.0000 0.40760  0.81350  0.34660  Biso   1.000  C
  C285     1.0000 0.60710  0.81790  0.46980  Biso   1.000  C
  C286     1.0000 0.56180  0.84160  0.39680  Biso   1.000  C
  C287     1.0000 0.62070  0.77730  0.44720  Biso   1.000  C
  H346     1.0000 0.64500  0.75650  0.46400  Biso   1.000  H
  O48      1.0000 0.40830  0.89100  0.52630  Biso   1.000  O
  C288     1.0000 0.42910  0.85310  0.50230  Biso   1.000  C
  C289     1.0000 0.42960  0.85240  0.27130  Biso   1.000  C
  C290     1.0000 0.39980  0.82560  0.29670  Biso   1.000  C
  H347     1.0000 0.37160  0.81360  0.28130  Biso   1.000  H
  C291     1.0000 0.52940  0.88040  0.36830  Biso   1.000  C
  H348     1.0000 0.52020  0.90640  0.39120  Biso   1.000  H
  H349     1.0000 0.54940  0.89520  0.34260  Biso   1.000  H
  C292     1.0000 0.42410  0.81560  0.18710  Biso   1.000  C
  H350     1.0000 0.41980  0.82090  0.15230  Biso   1.000  H
  H351     1.0000 0.39790  0.79510  0.19920  Biso   1.000  H
  H352     1.0000 0.45530  0.79980  0.19290  Biso   1.000  H
  C293     1.0000 0.37300  0.78220  0.37230  Biso   1.000  C
  H353     1.0000 0.34760  0.77300  0.34880  Biso   1.000  H
  H354     1.0000 0.35720  0.80220  0.39740  Biso   1.000  H
  C294     1.0000 0.57580  0.81930  0.55550  Biso   1.000  C
  H355     1.0000 0.54870  0.84000  0.54590  Biso   1.000  H
  H356     1.0000 0.58380  0.82530  0.58950  Biso   1.000  H
  H357     1.0000 0.56670  0.78530  0.55140  Biso   1.000  H
  C295     1.0000 0.66610  0.79760  0.54180  Biso   1.000  C
  H358     1.0000 0.67450  0.80730  0.57480  Biso   1.000  H
  H359     1.0000 0.69440  0.80150  0.52080  Biso   1.000  H
  H360     1.0000 0.65590  0.76370  0.54160  Biso   1.000  H
  C296     1.0000 0.45580  0.90750  0.19560  Biso   1.000  C
  H361     1.0000 0.44750  0.91350  0.16170  Biso   1.000  H
  H362     1.0000 0.48950  0.89670  0.19780  Biso   1.000  H
  H363     1.0000 0.45180  0.93740  0.21420  Biso   1.000  H
  C297     1.0000 0.37340  0.88740  0.21370  Biso   1.000  C
  H364     1.0000 0.36630  0.89810  0.18060  Biso   1.000  H
  H365     1.0000 0.37020  0.91490  0.23590  Biso   1.000  H
  H366     1.0000 0.35080  0.86190  0.22300  Biso   1.000  H
  C298     1.0000 0.63580  0.88160  0.53120  Biso   1.000  C
  H367     1.0000 0.60950  0.90300  0.52070  Biso   1.000  H
  H368     1.0000 0.66530  0.88950  0.51320  Biso   1.000  H
  H369     1.0000 0.64150  0.88620  0.56590  Biso   1.000  H
  C299     1.0000 0.42300  0.86880  0.21590  Biso   1.000  C
  C300     1.0000 0.58740  0.80150  0.28690  Biso   1.000  C
  H370     1.0000 0.56980  0.79120  0.25800  Biso   1.000  H
  H371     1.0000 0.61940  0.78630  0.28740  Biso   1.000  H
  H372     1.0000 0.59110  0.83670  0.28660  Biso   1.000  H
  O49      1.0000 0.04670  0.82710  0.58000  Biso   1.000  O
  O50      1.0000 0.05790  0.81470  0.48070  Biso   1.000  O
  C301     1.0000 0.89060  0.76530  0.60260  Biso   1.000  C
  O51      1.0000 0.93620  0.78880  0.67530  Biso   1.000  O
  C302     1.0000 0.05140  0.83370  0.63160  Biso   1.000  C
  C303     1.0000 0.92340  0.84950  0.55770  Biso   1.000  C
  H373     1.0000 0.93230  0.88120  0.54270  Biso   1.000  H
  C304     1.0000 0.92140  0.79920  0.62810  Biso   1.000  C
  C305     1.0000 0.01730  0.86020  0.65500  Biso   1.000  C
  C306     1.0000 0.06910  0.86490  0.55390  Biso   1.000  C
  H374     1.0000 0.10240  0.86970  0.56620  Biso   1.000  H
  H375     1.0000 0.05080  0.89530  0.55910  Biso   1.000  H
  C307     1.0000 0.87760  0.83130  0.47800  Biso   1.000  C
  C308     1.0000 0.02650  0.87010  0.70450  Biso   1.000  C
  H376     1.0000 0.00380  0.88870  0.72240  Biso   1.000  H
  C309     1.0000 0.09240  0.81350  0.65340  Biso   1.000  C
  C310     1.0000 0.89290  0.81790  0.53020  Biso   1.000  C
  C311     1.0000 0.93820  0.84160  0.60320  Biso   1.000  C
  C312     1.0000 0.87930  0.77730  0.55280  Biso   1.000  C
  H377     1.0000 0.85500  0.75650  0.53600  Biso   1.000  H
  O52      1.0000 0.09170  0.89100  0.47370  Biso   1.000  O
  C313     1.0000 0.07090  0.85310  0.49770  Biso   1.000  C
  C314     1.0000 0.07040  0.85240  0.72870  Biso   1.000  C
  C315     1.0000 0.10020  0.82560  0.70330  Biso   1.000  C
  H378     1.0000 0.12840  0.81360  0.71870  Biso   1.000  H
  C316     1.0000 0.97060  0.88040  0.63170  Biso   1.000  C
  H379     1.0000 0.97980  0.90640  0.60880  Biso   1.000  H
  H380     1.0000 0.95060  0.89520  0.65740  Biso   1.000  H
  C317     1.0000 0.07590  0.81560  0.81290  Biso   1.000  C
  H381     1.0000 0.08020  0.82090  0.84770  Biso   1.000  H
  H382     1.0000 0.10210  0.79510  0.80080  Biso   1.000  H
  H383     1.0000 0.04470  0.79980  0.80710  Biso   1.000  H
  C318     1.0000 0.12700  0.78220  0.62770  Biso   1.000  C
  H384     1.0000 0.15240  0.77300  0.65120  Biso   1.000  H
  H385     1.0000 0.14280  0.80220  0.60260  Biso   1.000  H
  C319     1.0000 0.92420  0.81930  0.44450  Biso   1.000  C
  H386     1.0000 0.95130  0.84000  0.45410  Biso   1.000  H
  H387     1.0000 0.91620  0.82530  0.41050  Biso   1.000  H
  H388     1.0000 0.93330  0.78530  0.44860  Biso   1.000  H
  C320     1.0000 0.83390  0.79760  0.45820  Biso   1.000  C
  H389     1.0000 0.82550  0.80730  0.42520  Biso   1.000  H
  H390     1.0000 0.80560  0.80150  0.47920  Biso   1.000  H
  H391     1.0000 0.84410  0.76370  0.45840  Biso   1.000  H
  C321     1.0000 0.04420  0.90750  0.80440  Biso   1.000  C
  H392     1.0000 0.05250  0.91350  0.83830  Biso   1.000  H
  H393     1.0000 0.01050  0.89670  0.80220  Biso   1.000  H
  H394     1.0000 0.04820  0.93740  0.78580  Biso   1.000  H
  C322     1.0000 0.12660  0.88740  0.78630  Biso   1.000  C
  H395     1.0000 0.13370  0.89810  0.81940  Biso   1.000  H
  H396     1.0000 0.12980  0.91490  0.76410  Biso   1.000  H
  H397     1.0000 0.14920  0.86190  0.77700  Biso   1.000  H
  C323     1.0000 0.86420  0.88160  0.46880  Biso   1.000  C
  H398     1.0000 0.89050  0.90300  0.47930  Biso   1.000  H
  H399     1.0000 0.83470  0.88950  0.48680  Biso   1.000  H
  H400     1.0000 0.85850  0.88620  0.43410  Biso   1.000  H
  C324     1.0000 0.07700  0.86880  0.78410  Biso   1.000  C
  C325     1.0000 0.91260  0.80150  0.71310  Biso   1.000  C
  H401     1.0000 0.93020  0.79120  0.74200  Biso   1.000  H
  H402     1.0000 0.88060  0.78630  0.71260  Biso   1.000  H
  H403     1.0000 0.90890  0.83670  0.71340  Biso   1.000  H
  O53      1.0000 0.54670  0.32710  0.08000  Biso   1.000  O
  O54      1.0000 0.55790  0.31470  0.98070  Biso   1.000  O
  C326     1.0000 0.39060  0.26530  0.10260  Biso   1.000  C
  O55      1.0000 0.43620  0.28880  0.17530  Biso   1.000  O
  C327     1.0000 0.55140  0.33370  0.13160  Biso   1.000  C
  C328     1.0000 0.42340  0.34950  0.05770  Biso   1.000  C
  H404     1.0000 0.43230  0.38120  0.04270  Biso   1.000  H
  C329     1.0000 0.42140  0.29920  0.12810  Biso   1.000  C
  C330     1.0000 0.51730  0.36020  0.15500  Biso   1.000  C
  C331     1.0000 0.56910  0.36490  0.05390  Biso   1.000  C
  H405     1.0000 0.60240  0.36970  0.06620  Biso   1.000  H
  H406     1.0000 0.55080  0.39530  0.05910  Biso   1.000  H
  C332     1.0000 0.37760  0.33130  0.97800  Biso   1.000  C
  C333     1.0000 0.52650  0.37010  0.20450  Biso   1.000  C
  H407     1.0000 0.50380  0.38870  0.22240  Biso   1.000  H
  C334     1.0000 0.59240  0.31350  0.15340  Biso   1.000  C
  C335     1.0000 0.39290  0.31790  0.03020  Biso   1.000  C
  C336     1.0000 0.43820  0.34160  0.10320  Biso   1.000  C
  C337     1.0000 0.37930  0.27730  0.05280  Biso   1.000  C
  H408     1.0000 0.35500  0.25650  0.03600  Biso   1.000  H
  O56      1.0000 0.59170  0.39100  0.97370  Biso   1.000  O
  C338     1.0000 0.57090  0.35310  0.99770  Biso   1.000  C
  C339     1.0000 0.57040  0.35240  0.22870  Biso   1.000  C
  C340     1.0000 0.60020  0.32560  0.20330  Biso   1.000  C
  H409     1.0000 0.62840  0.31360  0.21870  Biso   1.000  H
  C341     1.0000 0.47060  0.38040  0.13170  Biso   1.000  C
  H410     1.0000 0.47980  0.40640  0.10880  Biso   1.000  H
  H411     1.0000 0.45060  0.39520  0.15740  Biso   1.000  H
  C342     1.0000 0.57590  0.31560  0.31290  Biso   1.000  C
  H412     1.0000 0.58020  0.32090  0.34770  Biso   1.000  H
  H413     1.0000 0.60210  0.29510  0.30080  Biso   1.000  H
  H414     1.0000 0.54470  0.29980  0.30710  Biso   1.000  H
  C343     1.0000 0.62700  0.28220  0.12770  Biso   1.000  C
  H415     1.0000 0.65240  0.27300  0.15120  Biso   1.000  H
  H416     1.0000 0.64280  0.30220  0.10260  Biso   1.000  H
  C344     1.0000 0.42420  0.31930  0.94450  Biso   1.000  C
  H417     1.0000 0.45130  0.34000  0.95410  Biso   1.000  H
  H418     1.0000 0.41620  0.32530  0.91050  Biso   1.000  H
  H419     1.0000 0.43330  0.28530  0.94860  Biso   1.000  H
  C345     1.0000 0.33390  0.29760  0.95820  Biso   1.000  C
  H420     1.0000 0.32550  0.30730  0.92520  Biso   1.000  H
  H421     1.0000 0.30560  0.30150  0.97920  Biso   1.000  H
  H422     1.0000 0.34410  0.26370  0.95840  Biso   1.000  H
  C346     1.0000 0.54420  0.40750  0.30440  Biso   1.000  C
  H423     1.0000 0.55250  0.41350  0.33830  Biso   1.000  H
  H424     1.0000 0.51050  0.39670  0.30220  Biso   1.000  H
  H425     1.0000 0.54820  0.43740  0.28580  Biso   1.000  H
  C347     1.0000 0.62660  0.38740  0.28630  Biso   1.000  C
  H426     1.0000 0.63370  0.39810  0.31940  Biso   1.000  H
  H427     1.0000 0.62980  0.41490  0.26410  Biso   1.000  H
  H428     1.0000 0.64920  0.36190  0.27700  Biso   1.000  H
  C348     1.0000 0.36420  0.38160  0.96880  Biso   1.000  C
  H429     1.0000 0.39050  0.40300  0.97930  Biso   1.000  H
  H430     1.0000 0.33470  0.38950  0.98680  Biso   1.000  H
  H431     1.0000 0.35850  0.38620  0.93410  Biso   1.000  H
  C349     1.0000 0.57700  0.36880  0.28410  Biso   1.000  C
  C350     1.0000 0.41260  0.30150  0.21310  Biso   1.000  C
  H432     1.0000 0.43020  0.29120  0.24200  Biso   1.000  H
  H433     1.0000 0.38060  0.28630  0.21260  Biso   1.000  H
  H434     1.0000 0.40890  0.33670  0.21340  Biso   1.000  H
  O57      1.0000 0.54670  0.67290  0.42000  Biso   1.000  O
  O58      1.0000 0.55790  0.68530  0.51930  Biso   1.000  O
  C351     1.0000 0.39060  0.73470  0.39740  Biso   1.000  C
  O59      1.0000 0.43620  0.71120  0.32470  Biso   1.000  O
  C352     1.0000 0.55140  0.66630  0.36840  Biso   1.000  C
  C353     1.0000 0.42340  0.65050  0.44230  Biso   1.000  C
  H435     1.0000 0.43230  0.61880  0.45730  Biso   1.000  H
  C354     1.0000 0.42140  0.70080  0.37190  Biso   1.000  C
  C355     1.0000 0.51730  0.63980  0.34500  Biso   1.000  C
  C356     1.0000 0.56910  0.63510  0.44610  Biso   1.000  C
  H436     1.0000 0.60240  0.63030  0.43380  Biso   1.000  H
  H437     1.0000 0.55080  0.60470  0.44090  Biso   1.000  H
  C357     1.0000 0.37760  0.66870  0.52200  Biso   1.000  C
  C358     1.0000 0.52650  0.62990  0.29550  Biso   1.000  C
  H438     1.0000 0.50380  0.61130  0.27760  Biso   1.000  H
  C359     1.0000 0.59240  0.68650  0.34660  Biso   1.000  C
  C360     1.0000 0.39290  0.68210  0.46980  Biso   1.000  C
  C361     1.0000 0.43820  0.65840  0.39680  Biso   1.000  C
  C362     1.0000 0.37930  0.72270  0.44720  Biso   1.000  C
  H439     1.0000 0.35500  0.74350  0.46400  Biso   1.000  H
  O60      1.0000 0.59170  0.60900  0.52630  Biso   1.000  O
  C363     1.0000 0.57090  0.64690  0.50230  Biso   1.000  C
  C364     1.0000 0.57040  0.64760  0.27130  Biso   1.000  C
  C365     1.0000 0.60020  0.67440  0.29670  Biso   1.000  C
  H440     1.0000 0.62840  0.68640  0.28130  Biso   1.000  H
  C366     1.0000 0.47060  0.61960  0.36830  Biso   1.000  C
  H441     1.0000 0.47980  0.59360  0.39120  Biso   1.000  H
  H442     1.0000 0.45060  0.60480  0.34260  Biso   1.000  H
  C367     1.0000 0.57590  0.68440  0.18710  Biso   1.000  C
  H443     1.0000 0.58020  0.67910  0.15230  Biso   1.000  H
  H444     1.0000 0.60210  0.70490  0.19920  Biso   1.000  H
  H445     1.0000 0.54470  0.70020  0.19290  Biso   1.000  H
  C368     1.0000 0.62700  0.71780  0.37230  Biso   1.000  C
  H446     1.0000 0.65240  0.72700  0.34880  Biso   1.000  H
  H447     1.0000 0.64280  0.69780  0.39740  Biso   1.000  H
  C369     1.0000 0.42420  0.68070  0.55550  Biso   1.000  C
  H448     1.0000 0.45130  0.66000  0.54590  Biso   1.000  H
  H449     1.0000 0.41620  0.67470  0.58950  Biso   1.000  H
  H450     1.0000 0.43330  0.71470  0.55140  Biso   1.000  H
  C370     1.0000 0.33390  0.70240  0.54180  Biso   1.000  C
  H451     1.0000 0.32550  0.69270  0.57480  Biso   1.000  H
  H452     1.0000 0.30560  0.69850  0.52080  Biso   1.000  H
  H453     1.0000 0.34410  0.73630  0.54160  Biso   1.000  H
  C371     1.0000 0.54420  0.59250  0.19560  Biso   1.000  C
  H454     1.0000 0.55250  0.58650  0.16170  Biso   1.000  H
  H455     1.0000 0.51050  0.60330  0.19780  Biso   1.000  H
  H456     1.0000 0.54820  0.56260  0.21420  Biso   1.000  H
  C372     1.0000 0.62660  0.61260  0.21370  Biso   1.000  C
  H457     1.0000 0.63370  0.60190  0.18060  Biso   1.000  H
  H458     1.0000 0.62980  0.58510  0.23590  Biso   1.000  H
  H459     1.0000 0.64920  0.63810  0.22300  Biso   1.000  H
  C373     1.0000 0.36420  0.61840  0.53120  Biso   1.000  C
  H460     1.0000 0.39050  0.59700  0.52070  Biso   1.000  H
  H461     1.0000 0.33470  0.61050  0.51320  Biso   1.000  H
  H462     1.0000 0.35850  0.61380  0.56590  Biso   1.000  H
  C374     1.0000 0.57700  0.63120  0.21590  Biso   1.000  C
  C375     1.0000 0.41260  0.69850  0.28690  Biso   1.000  C
  H463     1.0000 0.43020  0.70880  0.25800  Biso   1.000  H
  H464     1.0000 0.38060  0.71370  0.28740  Biso   1.000  H
  H465     1.0000 0.40890  0.66330  0.28660  Biso   1.000  H
  O61      1.0000 0.04670  0.17290  0.92000  Biso   1.000  O
  O62      1.0000 0.05790  0.18530  0.01930  Biso   1.000  O
  C376     1.0000 0.89060  0.23470  0.89740  Biso   1.000  C
  O63      1.0000 0.93620  0.21120  0.82470  Biso   1.000  O
  C377     1.0000 0.05140  0.16630  0.86840  Biso   1.000  C
  C378     1.0000 0.92340  0.15050  0.94230  Biso   1.000  C
  H466     1.0000 0.93230  0.11880  0.95730  Biso   1.000  H
  C379     1.0000 0.92140  0.20080  0.87190  Biso   1.000  C
  C380     1.0000 0.01730  0.13980  0.84500  Biso   1.000  C
  C381     1.0000 0.06910  0.13510  0.94610  Biso   1.000  C
  H467     1.0000 0.10240  0.13030  0.93380  Biso   1.000  H
  H468     1.0000 0.05080  0.10470  0.94090  Biso   1.000  H
  C382     1.0000 0.87760  0.16870  0.02200  Biso   1.000  C
  C383     1.0000 0.02650  0.12990  0.79550  Biso   1.000  C
  H469     1.0000 0.00380  0.11130  0.77760  Biso   1.000  H
  C384     1.0000 0.09240  0.18650  0.84660  Biso   1.000  C
  C385     1.0000 0.89290  0.18210  0.96980  Biso   1.000  C
  C386     1.0000 0.93820  0.15840  0.89680  Biso   1.000  C
  C387     1.0000 0.87930  0.22270  0.94720  Biso   1.000  C
  H470     1.0000 0.85500  0.24350  0.96400  Biso   1.000  H
  O64      1.0000 0.09170  0.10900  0.02630  Biso   1.000  O
  C388     1.0000 0.07090  0.14690  0.00230  Biso   1.000  C
  C389     1.0000 0.07040  0.14760  0.77130  Biso   1.000  C
  C390     1.0000 0.10020  0.17440  0.79670  Biso   1.000  C
  H471     1.0000 0.12840  0.18640  0.78130  Biso   1.000  H
  C391     1.0000 0.97060  0.11960  0.86830  Biso   1.000  C
  H472     1.0000 0.97980  0.09360  0.89120  Biso   1.000  H
  H473     1.0000 0.95060  0.10480  0.84260  Biso   1.000  H
  C392     1.0000 0.07590  0.18440  0.68710  Biso   1.000  C
  H474     1.0000 0.08020  0.17910  0.65230  Biso   1.000  H
  H475     1.0000 0.10210  0.20490  0.69920  Biso   1.000  H
  H476     1.0000 0.04470  0.20020  0.69290  Biso   1.000  H
  C393     1.0000 0.12700  0.21780  0.87230  Biso   1.000  C
  H477     1.0000 0.15240  0.22700  0.84880  Biso   1.000  H
  H478     1.0000 0.14280  0.19780  0.89740  Biso   1.000  H
  C394     1.0000 0.92420  0.18070  0.05550  Biso   1.000  C
  H479     1.0000 0.95130  0.16000  0.04590  Biso   1.000  H
  H480     1.0000 0.91620  0.17470  0.08950  Biso   1.000  H
  H481     1.0000 0.93330  0.21470  0.05140  Biso   1.000  H
  C395     1.0000 0.83390  0.20240  0.04180  Biso   1.000  C
  H482     1.0000 0.82550  0.19270  0.07480  Biso   1.000  H
  H483     1.0000 0.80560  0.19850  0.02080  Biso   1.000  H
  H484     1.0000 0.84410  0.23630  0.04160  Biso   1.000  H
  C396     1.0000 0.04420  0.09250  0.69560  Biso   1.000  C
  H485     1.0000 0.05250  0.08650  0.66170  Biso   1.000  H
  H486     1.0000 0.01050  0.10330  0.69780  Biso   1.000  H
  H487     1.0000 0.04820  0.06260  0.71420  Biso   1.000  H
  C397     1.0000 0.12660  0.11260  0.71370  Biso   1.000  C
  H488     1.0000 0.13370  0.10190  0.68060  Biso   1.000  H
  H489     1.0000 0.12980  0.08510  0.73590  Biso   1.000  H
  H490     1.0000 0.14920  0.13810  0.72300  Biso   1.000  H
  C398     1.0000 0.86420  0.11840  0.03120  Biso   1.000  C
  H491     1.0000 0.89050  0.09700  0.02070  Biso   1.000  H
  H492     1.0000 0.83470  0.11050  0.01320  Biso   1.000  H
  H493     1.0000 0.85850  0.11380  0.06590  Biso   1.000  H
  C399     1.0000 0.07700  0.13120  0.71590  Biso   1.000  C
  C400     1.0000 0.91260  0.19850  0.78690  Biso   1.000  C
  H494     1.0000 0.93020  0.20880  0.75800  Biso   1.000  H
  H495     1.0000 0.88060  0.21370  0.78740  Biso   1.000  H
  H496     1.0000 0.90890  0.16330  0.78660  Biso   1.000  H
  O65      1.0000 0.08000  0.45330  0.17290  Biso   1.000  O
  O66      1.0000 0.98070  0.44210  0.18530  Biso   1.000  O
  C401     1.0000 0.10260  0.60940  0.23470  Biso   1.000  C
  O67      1.0000 0.17530  0.56380  0.21120  Biso   1.000  O
  C402     1.0000 0.13160  0.44860  0.16630  Biso   1.000  C
  C403     1.0000 0.05770  0.57660  0.15050  Biso   1.000  C
  H497     1.0000 0.04270  0.56770  0.11880  Biso   1.000  H
  C404     1.0000 0.12810  0.57860  0.20080  Biso   1.000  C
  C405     1.0000 0.15500  0.48270  0.13980  Biso   1.000  C
  C406     1.0000 0.05390  0.43090  0.13510  Biso   1.000  C
  H498     1.0000 0.06620  0.39760  0.13030  Biso   1.000  H
  H499     1.0000 0.05910  0.44920  0.10470  Biso   1.000  H
  C407     1.0000 0.97800  0.62240  0.16870  Biso   1.000  C
  C408     1.0000 0.20450  0.47350  0.12990  Biso   1.000  C
  H500     1.0000 0.22240  0.49620  0.11130  Biso   1.000  H
  C409     1.0000 0.15340  0.40760  0.18650  Biso   1.000  C
  C410     1.0000 0.03020  0.60710  0.18210  Biso   1.000  C
  C411     1.0000 0.10320  0.56180  0.15840  Biso   1.000  C
  C412     1.0000 0.05280  0.62070  0.22270  Biso   1.000  C
  H501     1.0000 0.03600  0.64500  0.24350  Biso   1.000  H
  O68      1.0000 0.97370  0.40830  0.10900  Biso   1.000  O
  C413     1.0000 0.99770  0.42910  0.14690  Biso   1.000  C
  C414     1.0000 0.22870  0.42960  0.14760  Biso   1.000  C
  C415     1.0000 0.20330  0.39980  0.17440  Biso   1.000  C
  H502     1.0000 0.21870  0.37160  0.18640  Biso   1.000  H
  C416     1.0000 0.13170  0.52940  0.11960  Biso   1.000  C
  H503     1.0000 0.10880  0.52020  0.09360  Biso   1.000  H
  H504     1.0000 0.15740  0.54940  0.10480  Biso   1.000  H
  C417     1.0000 0.31290  0.42410  0.18440  Biso   1.000  C
  H505     1.0000 0.34770  0.41980  0.17910  Biso   1.000  H
  H506     1.0000 0.30080  0.39790  0.20490  Biso   1.000  H
  H507     1.0000 0.30710  0.45530  0.20020  Biso   1.000  H
  C418     1.0000 0.12770  0.37300  0.21780  Biso   1.000  C
  H508     1.0000 0.15120  0.34760  0.22700  Biso   1.000  H
  H509     1.0000 0.10260  0.35720  0.19780  Biso   1.000  H
  C419     1.0000 0.94450  0.57580  0.18070  Biso   1.000  C
  H510     1.0000 0.95410  0.54870  0.16000  Biso   1.000  H
  H511     1.0000 0.91050  0.58380  0.17470  Biso   1.000  H
  H512     1.0000 0.94860  0.56670  0.21470  Biso   1.000  H
  C420     1.0000 0.95820  0.66610  0.20240  Biso   1.000  C
  H513     1.0000 0.92520  0.67450  0.19270  Biso   1.000  H
  H514     1.0000 0.97920  0.69440  0.19850  Biso   1.000  H
  H515     1.0000 0.95840  0.65590  0.23630  Biso   1.000  H
  C421     1.0000 0.30440  0.45580  0.09250  Biso   1.000  C
  H516     1.0000 0.33830  0.44750  0.08650  Biso   1.000  H
  H517     1.0000 0.30220  0.48950  0.10330  Biso   1.000  H
  H518     1.0000 0.28580  0.45180  0.06260  Biso   1.000  H
  C422     1.0000 0.28630  0.37340  0.11260  Biso   1.000  C
  H519     1.0000 0.31940  0.36630  0.10190  Biso   1.000  H
  H520     1.0000 0.26410  0.37020  0.08510  Biso   1.000  H
  H521     1.0000 0.27700  0.35080  0.13810  Biso   1.000  H
  C423     1.0000 0.96880  0.63580  0.11840  Biso   1.000  C
  H522     1.0000 0.97930  0.60950  0.09700  Biso   1.000  H
  H523     1.0000 0.98680  0.66530  0.11050  Biso   1.000  H
  H524     1.0000 0.93410  0.64150  0.11380  Biso   1.000  H
  C424     1.0000 0.28410  0.42300  0.13120  Biso   1.000  C
  C425     1.0000 0.21310  0.58740  0.19850  Biso   1.000  C
  H525     1.0000 0.24200  0.56980  0.20880  Biso   1.000  H
  H526     1.0000 0.21260  0.61940  0.21370  Biso   1.000  H
  H527     1.0000 0.21340  0.59110  0.16330  Biso   1.000  H
  O69      1.0000 0.58000  0.95330  0.67290  Biso   1.000  O
  O70      1.0000 0.48070  0.94210  0.68530  Biso   1.000  O
  C426     1.0000 0.60260  0.10940  0.73470  Biso   1.000  C
  O71      1.0000 0.67530  0.06380  0.71120  Biso   1.000  O
  C427     1.0000 0.63160  0.94860  0.66630  Biso   1.000  C
  C428     1.0000 0.55770  0.07660  0.65050  Biso   1.000  C
  H528     1.0000 0.54270  0.06770  0.61880  Biso   1.000  H
  C429     1.0000 0.62810  0.07860  0.70080  Biso   1.000  C
  C430     1.0000 0.65500  0.98270  0.63980  Biso   1.000  C
  C431     1.0000 0.55390  0.93090  0.63510  Biso   1.000  C
  H529     1.0000 0.56620  0.89760  0.63030  Biso   1.000  H
  H530     1.0000 0.55910  0.94920  0.60470  Biso   1.000  H
  C432     1.0000 0.47800  0.12240  0.66870  Biso   1.000  C
  C433     1.0000 0.70450  0.97350  0.62990  Biso   1.000  C
  H531     1.0000 0.72240  0.99620  0.61130  Biso   1.000  H
  C434     1.0000 0.65340  0.90760  0.68650  Biso   1.000  C
  C435     1.0000 0.53020  0.10710  0.68210  Biso   1.000  C
  C436     1.0000 0.60320  0.06180  0.65840  Biso   1.000  C
  C437     1.0000 0.55280  0.12070  0.72270  Biso   1.000  C
  H532     1.0000 0.53600  0.14500  0.74350  Biso   1.000  H
  O72      1.0000 0.47370  0.90830  0.60900  Biso   1.000  O
  C438     1.0000 0.49770  0.92910  0.64690  Biso   1.000  C
  C439     1.0000 0.72870  0.92960  0.64760  Biso   1.000  C
  C440     1.0000 0.70330  0.89980  0.67440  Biso   1.000  C
  H533     1.0000 0.71870  0.87160  0.68640  Biso   1.000  H
  C441     1.0000 0.63170  0.02940  0.61960  Biso   1.000  C
  H534     1.0000 0.60880  0.02020  0.59360  Biso   1.000  H
  H535     1.0000 0.65740  0.04940  0.60480  Biso   1.000  H
  C442     1.0000 0.81290  0.92410  0.68440  Biso   1.000  C
  H536     1.0000 0.84770  0.91980  0.67910  Biso   1.000  H
  H537     1.0000 0.80080  0.89790  0.70490  Biso   1.000  H
  H538     1.0000 0.80710  0.95530  0.70020  Biso   1.000  H
  C443     1.0000 0.62770  0.87300  0.71780  Biso   1.000  C
  H539     1.0000 0.65120  0.84760  0.72700  Biso   1.000  H
  H540     1.0000 0.60260  0.85720  0.69780  Biso   1.000  H
  C444     1.0000 0.44450  0.07580  0.68070  Biso   1.000  C
  H541     1.0000 0.45410  0.04870  0.66000  Biso   1.000  H
  H542     1.0000 0.41050  0.08380  0.67470  Biso   1.000  H
  H543     1.0000 0.44860  0.06670  0.71470  Biso   1.000  H
  C445     1.0000 0.45820  0.16610  0.70240  Biso   1.000  C
  H544     1.0000 0.42520  0.17450  0.69270  Biso   1.000  H
  H545     1.0000 0.47920  0.19440  0.69850  Biso   1.000  H
  H546     1.0000 0.45840  0.15590  0.73630  Biso   1.000  H
  C446     1.0000 0.80440  0.95580  0.59250  Biso   1.000  C
  H547     1.0000 0.83830  0.94750  0.58650  Biso   1.000  H
  H548     1.0000 0.80220  0.98950  0.60330  Biso   1.000  H
  H549     1.0000 0.78580  0.95180  0.56260  Biso   1.000  H
  C447     1.0000 0.78630  0.87340  0.61260  Biso   1.000  C
  H550     1.0000 0.81940  0.86630  0.60190  Biso   1.000  H
  H551     1.0000 0.76410  0.87020  0.58510  Biso   1.000  H
  H552     1.0000 0.77700  0.85080  0.63810  Biso   1.000  H
  C448     1.0000 0.46880  0.13580  0.61840  Biso   1.000  C
  H553     1.0000 0.47930  0.10950  0.59700  Biso   1.000  H
  H554     1.0000 0.48680  0.16530  0.61050  Biso   1.000  H
  H555     1.0000 0.43410  0.14150  0.61380  Biso   1.000  H
  C449     1.0000 0.78410  0.92300  0.63120  Biso   1.000  C
  C450     1.0000 0.71310  0.08740  0.69850  Biso   1.000  C
  H556     1.0000 0.74200  0.06980  0.70880  Biso   1.000  H
  H557     1.0000 0.71260  0.11940  0.71370  Biso   1.000  H
  H558     1.0000 0.71340  0.09110  0.66330  Biso   1.000  H
  O73      1.0000 0.92000  0.95330  0.32710  Biso   1.000  O
  O74      1.0000 0.01930  0.94210  0.31470  Biso   1.000  O
  C451     1.0000 0.89740  0.10940  0.26530  Biso   1.000  C
  O75      1.0000 0.82470  0.06380  0.28880  Biso   1.000  O
  C452     1.0000 0.86840  0.94860  0.33370  Biso   1.000  C
  C453     1.0000 0.94230  0.07660  0.34950  Biso   1.000  C
  H559     1.0000 0.95730  0.06770  0.38120  Biso   1.000  H
  C454     1.0000 0.87190  0.07860  0.29920  Biso   1.000  C
  C455     1.0000 0.84500  0.98270  0.36020  Biso   1.000  C
  C456     1.0000 0.94610  0.93090  0.36490  Biso   1.000  C
  H560     1.0000 0.93380  0.89760  0.36970  Biso   1.000  H
  H561     1.0000 0.94090  0.94920  0.39530  Biso   1.000  H
  C457     1.0000 0.02200  0.12240  0.33130  Biso   1.000  C
  C458     1.0000 0.79550  0.97350  0.37010  Biso   1.000  C
  H562     1.0000 0.77760  0.99620  0.38870  Biso   1.000  H
  C459     1.0000 0.84660  0.90760  0.31350  Biso   1.000  C
  C460     1.0000 0.96980  0.10710  0.31790  Biso   1.000  C
  C461     1.0000 0.89680  0.06180  0.34160  Biso   1.000  C
  C462     1.0000 0.94720  0.12070  0.27730  Biso   1.000  C
  H563     1.0000 0.96400  0.14500  0.25650  Biso   1.000  H
  O76      1.0000 0.02630  0.90830  0.39100  Biso   1.000  O
  C463     1.0000 0.00230  0.92910  0.35310  Biso   1.000  C
  C464     1.0000 0.77130  0.92960  0.35240  Biso   1.000  C
  C465     1.0000 0.79670  0.89980  0.32560  Biso   1.000  C
  H564     1.0000 0.78130  0.87160  0.31360  Biso   1.000  H
  C466     1.0000 0.86830  0.02940  0.38040  Biso   1.000  C
  H565     1.0000 0.89120  0.02020  0.40640  Biso   1.000  H
  H566     1.0000 0.84260  0.04940  0.39520  Biso   1.000  H
  C467     1.0000 0.68710  0.92410  0.31560  Biso   1.000  C
  H567     1.0000 0.65230  0.91980  0.32090  Biso   1.000  H
  H568     1.0000 0.69920  0.89790  0.29510  Biso   1.000  H
  H569     1.0000 0.69290  0.95530  0.29980  Biso   1.000  H
  C468     1.0000 0.87230  0.87300  0.28220  Biso   1.000  C
  H570     1.0000 0.84880  0.84760  0.27300  Biso   1.000  H
  H571     1.0000 0.89740  0.85720  0.30220  Biso   1.000  H
  C469     1.0000 0.05550  0.07580  0.31930  Biso   1.000  C
  H572     1.0000 0.04590  0.04870  0.34000  Biso   1.000  H
  H573     1.0000 0.08950  0.08380  0.32530  Biso   1.000  H
  H574     1.0000 0.05140  0.06670  0.28530  Biso   1.000  H
  C470     1.0000 0.04180  0.16610  0.29760  Biso   1.000  C
  H575     1.0000 0.07480  0.17450  0.30730  Biso   1.000  H
  H576     1.0000 0.02080  0.19440  0.30150  Biso   1.000  H
  H577     1.0000 0.04160  0.15590  0.26370  Biso   1.000  H
  C471     1.0000 0.69560  0.95580  0.40750  Biso   1.000  C
  H578     1.0000 0.66170  0.94750  0.41350  Biso   1.000  H
  H579     1.0000 0.69780  0.98950  0.39670  Biso   1.000  H
  H580     1.0000 0.71420  0.95180  0.43740  Biso   1.000  H
  C472     1.0000 0.71370  0.87340  0.38740  Biso   1.000  C
  H581     1.0000 0.68060  0.86630  0.39810  Biso   1.000  H
  H582     1.0000 0.73590  0.87020  0.41490  Biso   1.000  H
  H583     1.0000 0.72300  0.85080  0.36190  Biso   1.000  H
  C473     1.0000 0.03120  0.13580  0.38160  Biso   1.000  C
  H584     1.0000 0.02070  0.10950  0.40300  Biso   1.000  H
  H585     1.0000 0.01320  0.16530  0.38950  Biso   1.000  H
  H586     1.0000 0.06590  0.14150  0.38620  Biso   1.000  H
  C474     1.0000 0.71590  0.92300  0.36880  Biso   1.000  C
  C475     1.0000 0.78690  0.08740  0.30150  Biso   1.000  C
  H587     1.0000 0.75800  0.06980  0.29120  Biso   1.000  H
  H588     1.0000 0.78740  0.11940  0.28630  Biso   1.000  H
  H589     1.0000 0.78660  0.09110  0.33670  Biso   1.000  H
  O77      1.0000 0.42000  0.45330  0.82710  Biso   1.000  O
  O78      1.0000 0.51930  0.44210  0.81470  Biso   1.000  O
  C476     1.0000 0.39740  0.60940  0.76530  Biso   1.000  C
  O79      1.0000 0.32470  0.56380  0.78880  Biso   1.000  O
  C477     1.0000 0.36840  0.44860  0.83370  Biso   1.000  C
  C478     1.0000 0.44230  0.57660  0.84950  Biso   1.000  C
  H590     1.0000 0.45730  0.56770  0.88120  Biso   1.000  H
  C479     1.0000 0.37190  0.57860  0.79920  Biso   1.000  C
  C480     1.0000 0.34500  0.48270  0.86020  Biso   1.000  C
  C481     1.0000 0.44610  0.43090  0.86490  Biso   1.000  C
  H591     1.0000 0.43380  0.39760  0.86970  Biso   1.000  H
  H592     1.0000 0.44090  0.44920  0.89530  Biso   1.000  H
  C482     1.0000 0.52200  0.62240  0.83130  Biso   1.000  C
  C483     1.0000 0.29550  0.47350  0.87010  Biso   1.000  C
  H593     1.0000 0.27760  0.49620  0.88870  Biso   1.000  H
  C484     1.0000 0.34660  0.40760  0.81350  Biso   1.000  C
  C485     1.0000 0.46980  0.60710  0.81790  Biso   1.000  C
  C486     1.0000 0.39680  0.56180  0.84160  Biso   1.000  C
  C487     1.0000 0.44720  0.62070  0.77730  Biso   1.000  C
  H594     1.0000 0.46400  0.64500  0.75650  Biso   1.000  H
  O80      1.0000 0.52630  0.40830  0.89100  Biso   1.000  O
  C488     1.0000 0.50230  0.42910  0.85310  Biso   1.000  C
  C489     1.0000 0.27130  0.42960  0.85240  Biso   1.000  C
  C490     1.0000 0.29670  0.39980  0.82560  Biso   1.000  C
  H595     1.0000 0.28130  0.37160  0.81360  Biso   1.000  H
  C491     1.0000 0.36830  0.52940  0.88040  Biso   1.000  C
  H596     1.0000 0.39120  0.52020  0.90640  Biso   1.000  H
  H597     1.0000 0.34260  0.54940  0.89520  Biso   1.000  H
  C492     1.0000 0.18710  0.42410  0.81560  Biso   1.000  C
  H598     1.0000 0.15230  0.41980  0.82090  Biso   1.000  H
  H599     1.0000 0.19920  0.39790  0.79510  Biso   1.000  H
  H600     1.0000 0.19290  0.45530  0.79980  Biso   1.000  H
  C493     1.0000 0.37230  0.37300  0.78220  Biso   1.000  C
  H601     1.0000 0.34880  0.34760  0.77300  Biso   1.000  H
  H602     1.0000 0.39740  0.35720  0.80220  Biso   1.000  H
  C494     1.0000 0.55550  0.57580  0.81930  Biso   1.000  C
  H603     1.0000 0.54590  0.54870  0.84000  Biso   1.000  H
  H604     1.0000 0.58950  0.58380  0.82530  Biso   1.000  H
  H605     1.0000 0.55140  0.56670  0.78530  Biso   1.000  H
  C495     1.0000 0.54180  0.66610  0.79760  Biso   1.000  C
  H606     1.0000 0.57480  0.67450  0.80730  Biso   1.000  H
  H607     1.0000 0.52080  0.69440  0.80150  Biso   1.000  H
  H608     1.0000 0.54160  0.65590  0.76370  Biso   1.000  H
  C496     1.0000 0.19560  0.45580  0.90750  Biso   1.000  C
  H609     1.0000 0.16170  0.44750  0.91350  Biso   1.000  H
  H610     1.0000 0.19780  0.48950  0.89670  Biso   1.000  H
  H611     1.0000 0.21420  0.45180  0.93740  Biso   1.000  H
  C497     1.0000 0.21370  0.37340  0.88740  Biso   1.000  C
  H612     1.0000 0.18060  0.36630  0.89810  Biso   1.000  H
  H613     1.0000 0.23590  0.37020  0.91490  Biso   1.000  H
  H614     1.0000 0.22300  0.35080  0.86190  Biso   1.000  H
  C498     1.0000 0.53120  0.63580  0.88160  Biso   1.000  C
  H615     1.0000 0.52070  0.60950  0.90300  Biso   1.000  H
  H616     1.0000 0.51320  0.66530  0.88950  Biso   1.000  H
  H617     1.0000 0.56590  0.64150  0.88620  Biso   1.000  H
  C499     1.0000 0.21590  0.42300  0.86880  Biso   1.000  C
  C500     1.0000 0.28690  0.58740  0.80150  Biso   1.000  C
  H618     1.0000 0.25800  0.56980  0.79120  Biso   1.000  H
  H619     1.0000 0.28740  0.61940  0.78630  Biso   1.000  H
  H620     1.0000 0.28660  0.59110  0.83670  Biso   1.000  H
  O81      1.0000 0.58000  0.04670  0.82710  Biso   1.000  O
  O82      1.0000 0.48070  0.05790  0.81470  Biso   1.000  O
  C501     1.0000 0.60260  0.89060  0.76530  Biso   1.000  C
  O83      1.0000 0.67530  0.93620  0.78880  Biso   1.000  O
  C502     1.0000 0.63160  0.05140  0.83370  Biso   1.000  C
  C503     1.0000 0.55770  0.92340  0.84950  Biso   1.000  C
  H621     1.0000 0.54270  0.93230  0.88120  Biso   1.000  H
  C504     1.0000 0.62810  0.92140  0.79920  Biso   1.000  C
  C505     1.0000 0.65500  0.01730  0.86020  Biso   1.000  C
  C506     1.0000 0.55390  0.06910  0.86490  Biso   1.000  C
  H622     1.0000 0.56620  0.10240  0.86970  Biso   1.000  H
  H623     1.0000 0.55910  0.05080  0.89530  Biso   1.000  H
  C507     1.0000 0.47800  0.87760  0.83130  Biso   1.000  C
  C508     1.0000 0.70450  0.02650  0.87010  Biso   1.000  C
  H624     1.0000 0.72240  0.00380  0.88870  Biso   1.000  H
  C509     1.0000 0.65340  0.09240  0.81350  Biso   1.000  C
  C510     1.0000 0.53020  0.89290  0.81790  Biso   1.000  C
  C511     1.0000 0.60320  0.93820  0.84160  Biso   1.000  C
  C512     1.0000 0.55280  0.87930  0.77730  Biso   1.000  C
  H625     1.0000 0.53600  0.85500  0.75650  Biso   1.000  H
  O84      1.0000 0.47370  0.09170  0.89100  Biso   1.000  O
  C513     1.0000 0.49770  0.07090  0.85310  Biso   1.000  C
  C514     1.0000 0.72870  0.07040  0.85240  Biso   1.000  C
  C515     1.0000 0.70330  0.10020  0.82560  Biso   1.000  C
  H626     1.0000 0.71870  0.12840  0.81360  Biso   1.000  H
  C516     1.0000 0.63170  0.97060  0.88040  Biso   1.000  C
  H627     1.0000 0.60880  0.97980  0.90640  Biso   1.000  H
  H628     1.0000 0.65740  0.95060  0.89520  Biso   1.000  H
  C517     1.0000 0.81290  0.07590  0.81560  Biso   1.000  C
  H629     1.0000 0.84770  0.08020  0.82090  Biso   1.000  H
  H630     1.0000 0.80080  0.10210  0.79510  Biso   1.000  H
  H631     1.0000 0.80710  0.04470  0.79980  Biso   1.000  H
  C518     1.0000 0.62770  0.12700  0.78220  Biso   1.000  C
  H632     1.0000 0.65120  0.15240  0.77300  Biso   1.000  H
  H633     1.0000 0.60260  0.14280  0.80220  Biso   1.000  H
  C519     1.0000 0.44450  0.92420  0.81930  Biso   1.000  C
  H634     1.0000 0.45410  0.95130  0.84000  Biso   1.000  H
  H635     1.0000 0.41050  0.91620  0.82530  Biso   1.000  H
  H636     1.0000 0.44860  0.93330  0.78530  Biso   1.000  H
  C520     1.0000 0.45820  0.83390  0.79760  Biso   1.000  C
  H637     1.0000 0.42520  0.82550  0.80730  Biso   1.000  H
  H638     1.0000 0.47920  0.80560  0.80150  Biso   1.000  H
  H639     1.0000 0.45840  0.84410  0.76370  Biso   1.000  H
  C521     1.0000 0.80440  0.04420  0.90750  Biso   1.000  C
  H640     1.0000 0.83830  0.05250  0.91350  Biso   1.000  H
  H641     1.0000 0.80220  0.01050  0.89670  Biso   1.000  H
  H642     1.0000 0.78580  0.04820  0.93740  Biso   1.000  H
  C522     1.0000 0.78630  0.12660  0.88740  Biso   1.000  C
  H643     1.0000 0.81940  0.13370  0.89810  Biso   1.000  H
  H644     1.0000 0.76410  0.12980  0.91490  Biso   1.000  H
  H645     1.0000 0.77700  0.14920  0.86190  Biso   1.000  H
  C523     1.0000 0.46880  0.86420  0.88160  Biso   1.000  C
  H646     1.0000 0.47930  0.89050  0.90300  Biso   1.000  H
  H647     1.0000 0.48680  0.83470  0.88950  Biso   1.000  H
  H648     1.0000 0.43410  0.85850  0.88620  Biso   1.000  H
  C524     1.0000 0.78410  0.07700  0.86880  Biso   1.000  C
  C525     1.0000 0.71310  0.91260  0.80150  Biso   1.000  C
  H649     1.0000 0.74200  0.93020  0.79120  Biso   1.000  H
  H650     1.0000 0.71260  0.88060  0.78630  Biso   1.000  H
  H651     1.0000 0.71340  0.90890  0.83670  Biso   1.000  H
  O85      1.0000 0.08000  0.54670  0.32710  Biso   1.000  O
  O86      1.0000 0.98070  0.55790  0.31470  Biso   1.000  O
  C526     1.0000 0.10260  0.39060  0.26530  Biso   1.000  C
  O87      1.0000 0.17530  0.43620  0.28880  Biso   1.000  O
  C527     1.0000 0.13160  0.55140  0.33370  Biso   1.000  C
  C528     1.0000 0.05770  0.42340  0.34950  Biso   1.000  C
  H652     1.0000 0.04270  0.43230  0.38120  Biso   1.000  H
  C529     1.0000 0.12810  0.42140  0.29920  Biso   1.000  C
  C530     1.0000 0.15500  0.51730  0.36020  Biso   1.000  C
  C531     1.0000 0.05390  0.56910  0.36490  Biso   1.000  C
  H653     1.0000 0.06620  0.60240  0.36970  Biso   1.000  H
  H654     1.0000 0.05910  0.55080  0.39530  Biso   1.000  H
  C532     1.0000 0.97800  0.37760  0.33130  Biso   1.000  C
  C533     1.0000 0.20450  0.52650  0.37010  Biso   1.000  C
  H655     1.0000 0.22240  0.50380  0.38870  Biso   1.000  H
  C534     1.0000 0.15340  0.59240  0.31350  Biso   1.000  C
  C535     1.0000 0.03020  0.39290  0.31790  Biso   1.000  C
  C536     1.0000 0.10320  0.43820  0.34160  Biso   1.000  C
  C537     1.0000 0.05280  0.37930  0.27730  Biso   1.000  C
  H656     1.0000 0.03600  0.35500  0.25650  Biso   1.000  H
  O88      1.0000 0.97370  0.59170  0.39100  Biso   1.000  O
  C538     1.0000 0.99770  0.57090  0.35310  Biso   1.000  C
  C539     1.0000 0.22870  0.57040  0.35240  Biso   1.000  C
  C540     1.0000 0.20330  0.60020  0.32560  Biso   1.000  C
  H657     1.0000 0.21870  0.62840  0.31360  Biso   1.000  H
  C541     1.0000 0.13170  0.47060  0.38040  Biso   1.000  C
  H658     1.0000 0.10880  0.47980  0.40640  Biso   1.000  H
  H659     1.0000 0.15740  0.45060  0.39520  Biso   1.000  H
  C542     1.0000 0.31290  0.57590  0.31560  Biso   1.000  C
  H660     1.0000 0.34770  0.58020  0.32090  Biso   1.000  H
  H661     1.0000 0.30080  0.60210  0.29510  Biso   1.000  H
  H662     1.0000 0.30710  0.54470  0.29980  Biso   1.000  H
  C543     1.0000 0.12770  0.62700  0.28220  Biso   1.000  C
  H663     1.0000 0.15120  0.65240  0.27300  Biso   1.000  H
  H664     1.0000 0.10260  0.64280  0.30220  Biso   1.000  H
  C544     1.0000 0.94450  0.42420  0.31930  Biso   1.000  C
  H665     1.0000 0.95410  0.45130  0.34000  Biso   1.000  H
  H666     1.0000 0.91050  0.41620  0.32530  Biso   1.000  H
  H667     1.0000 0.94860  0.43330  0.28530  Biso   1.000  H
  C545     1.0000 0.95820  0.33390  0.29760  Biso   1.000  C
  H668     1.0000 0.92520  0.32550  0.30730  Biso   1.000  H
  H669     1.0000 0.97920  0.30560  0.30150  Biso   1.000  H
  H670     1.0000 0.95840  0.34410  0.26370  Biso   1.000  H
  C546     1.0000 0.30440  0.54420  0.40750  Biso   1.000  C
  H671     1.0000 0.33830  0.55250  0.41350  Biso   1.000  H
  H672     1.0000 0.30220  0.51050  0.39670  Biso   1.000  H
  H673     1.0000 0.28580  0.54820  0.43740  Biso   1.000  H
  C547     1.0000 0.28630  0.62660  0.38740  Biso   1.000  C
  H674     1.0000 0.31940  0.63370  0.39810  Biso   1.000  H
  H675     1.0000 0.26410  0.62980  0.41490  Biso   1.000  H
  H676     1.0000 0.27700  0.64920  0.36190  Biso   1.000  H
  C548     1.0000 0.96880  0.36420  0.38160  Biso   1.000  C
  H677     1.0000 0.97930  0.39050  0.40300  Biso   1.000  H
  H678     1.0000 0.98680  0.33470  0.38950  Biso   1.000  H
  H679     1.0000 0.93410  0.35850  0.38620  Biso   1.000  H
  C549     1.0000 0.28410  0.57700  0.36880  Biso   1.000  C
  C550     1.0000 0.21310  0.41260  0.30150  Biso   1.000  C
  H680     1.0000 0.24200  0.43020  0.29120  Biso   1.000  H
  H681     1.0000 0.21260  0.38060  0.28630  Biso   1.000  H
  H682     1.0000 0.21340  0.40890  0.33670  Biso   1.000  H
  O89      1.0000 0.42000  0.54670  0.67290  Biso   1.000  O
  O90      1.0000 0.51930  0.55790  0.68530  Biso   1.000  O
  C551     1.0000 0.39740  0.39060  0.73470  Biso   1.000  C
  O91      1.0000 0.32470  0.43620  0.71120  Biso   1.000  O
  C552     1.0000 0.36840  0.55140  0.66630  Biso   1.000  C
  C553     1.0000 0.44230  0.42340  0.65050  Biso   1.000  C
  H683     1.0000 0.45730  0.43230  0.61880  Biso   1.000  H
  C554     1.0000 0.37190  0.42140  0.70080  Biso   1.000  C
  C555     1.0000 0.34500  0.51730  0.63980  Biso   1.000  C
  C556     1.0000 0.44610  0.56910  0.63510  Biso   1.000  C
  H684     1.0000 0.43380  0.60240  0.63030  Biso   1.000  H
  H685     1.0000 0.44090  0.55080  0.60470  Biso   1.000  H
  C557     1.0000 0.52200  0.37760  0.66870  Biso   1.000  C
  C558     1.0000 0.29550  0.52650  0.62990  Biso   1.000  C
  H686     1.0000 0.27760  0.50380  0.61130  Biso   1.000  H
  C559     1.0000 0.34660  0.59240  0.68650  Biso   1.000  C
  C560     1.0000 0.46980  0.39290  0.68210  Biso   1.000  C
  C561     1.0000 0.39680  0.43820  0.65840  Biso   1.000  C
  C562     1.0000 0.44720  0.37930  0.72270  Biso   1.000  C
  H687     1.0000 0.46400  0.35500  0.74350  Biso   1.000  H
  O92      1.0000 0.52630  0.59170  0.60900  Biso   1.000  O
  C563     1.0000 0.50230  0.57090  0.64690  Biso   1.000  C
  C564     1.0000 0.27130  0.57040  0.64760  Biso   1.000  C
  C565     1.0000 0.29670  0.60020  0.67440  Biso   1.000  C
  H688     1.0000 0.28130  0.62840  0.68640  Biso   1.000  H
  C566     1.0000 0.36830  0.47060  0.61960  Biso   1.000  C
  H689     1.0000 0.39120  0.47980  0.59360  Biso   1.000  H
  H690     1.0000 0.34260  0.45060  0.60480  Biso   1.000  H
  C567     1.0000 0.18710  0.57590  0.68440  Biso   1.000  C
  H691     1.0000 0.15230  0.58020  0.67910  Biso   1.000  H
  H692     1.0000 0.19920  0.60210  0.70490  Biso   1.000  H
  H693     1.0000 0.19290  0.54470  0.70020  Biso   1.000  H
  C568     1.0000 0.37230  0.62700  0.71780  Biso   1.000  C
  H694     1.0000 0.34880  0.65240  0.72700  Biso   1.000  H
  H695     1.0000 0.39740  0.64280  0.69780  Biso   1.000  H
  C569     1.0000 0.55550  0.42420  0.68070  Biso   1.000  C
  H696     1.0000 0.54590  0.45130  0.66000  Biso   1.000  H
  H697     1.0000 0.58950  0.41620  0.67470  Biso   1.000  H
  H698     1.0000 0.55140  0.43330  0.71470  Biso   1.000  H
  C570     1.0000 0.54180  0.33390  0.70240  Biso   1.000  C
  H699     1.0000 0.57480  0.32550  0.69270  Biso   1.000  H
  H700     1.0000 0.52080  0.30560  0.69850  Biso   1.000  H
  H701     1.0000 0.54160  0.34410  0.73630  Biso   1.000  H
  C571     1.0000 0.19560  0.54420  0.59250  Biso   1.000  C
  H702     1.0000 0.16170  0.55250  0.58650  Biso   1.000  H
  H703     1.0000 0.19780  0.51050  0.60330  Biso   1.000  H
  H704     1.0000 0.21420  0.54820  0.56260  Biso   1.000  H
  C572     1.0000 0.21370  0.62660  0.61260  Biso   1.000  C
  H705     1.0000 0.18060  0.63370  0.60190  Biso   1.000  H
  H706     1.0000 0.23590  0.62980  0.58510  Biso   1.000  H
  H707     1.0000 0.22300  0.64920  0.63810  Biso   1.000  H
  C573     1.0000 0.53120  0.36420  0.61840  Biso   1.000  C
  H708     1.0000 0.52070  0.39050  0.59700  Biso   1.000  H
  H709     1.0000 0.51320  0.33470  0.61050  Biso   1.000  H
  H710     1.0000 0.56590  0.35850  0.61380  Biso   1.000  H
  C574     1.0000 0.21590  0.57700  0.63120  Biso   1.000  C
  C575     1.0000 0.28690  0.41260  0.69850  Biso   1.000  C
  H711     1.0000 0.25800  0.43020  0.70880  Biso   1.000  H
  H712     1.0000 0.28740  0.38060  0.71370  Biso   1.000  H
  H713     1.0000 0.28660  0.40890  0.66330  Biso   1.000  H
  O93      1.0000 0.92000  0.04670  0.17290  Biso   1.000  O
  O94      1.0000 0.01930  0.05790  0.18530  Biso   1.000  O
  C576     1.0000 0.89740  0.89060  0.23470  Biso   1.000  C
  O95      1.0000 0.82470  0.93620  0.21120  Biso   1.000  O
  C577     1.0000 0.86840  0.05140  0.16630  Biso   1.000  C
  C578     1.0000 0.94230  0.92340  0.15050  Biso   1.000  C
  H714     1.0000 0.95730  0.93230  0.11880  Biso   1.000  H
  C579     1.0000 0.87190  0.92140  0.20080  Biso   1.000  C
  C580     1.0000 0.84500  0.01730  0.13980  Biso   1.000  C
  C581     1.0000 0.94610  0.06910  0.13510  Biso   1.000  C
  H715     1.0000 0.93380  0.10240  0.13030  Biso   1.000  H
  H716     1.0000 0.94090  0.05080  0.10470  Biso   1.000  H
  C582     1.0000 0.02200  0.87760  0.16870  Biso   1.000  C
  C583     1.0000 0.79550  0.02650  0.12990  Biso   1.000  C
  H717     1.0000 0.77760  0.00380  0.11130  Biso   1.000  H
  C584     1.0000 0.84660  0.09240  0.18650  Biso   1.000  C
  C585     1.0000 0.96980  0.89290  0.18210  Biso   1.000  C
  C586     1.0000 0.89680  0.93820  0.15840  Biso   1.000  C
  C587     1.0000 0.94720  0.87930  0.22270  Biso   1.000  C
  H718     1.0000 0.96400  0.85500  0.24350  Biso   1.000  H
  O96      1.0000 0.02630  0.09170  0.10900  Biso   1.000  O
  C588     1.0000 0.00230  0.07090  0.14690  Biso   1.000  C
  C589     1.0000 0.77130  0.07040  0.14760  Biso   1.000  C
  C590     1.0000 0.79670  0.10020  0.17440  Biso   1.000  C
  H719     1.0000 0.78130  0.12840  0.18640  Biso   1.000  H
  C591     1.0000 0.86830  0.97060  0.11960  Biso   1.000  C
  H720     1.0000 0.89120  0.97980  0.09360  Biso   1.000  H
  H721     1.0000 0.84260  0.95060  0.10480  Biso   1.000  H
  C592     1.0000 0.68710  0.07590  0.18440  Biso   1.000  C
  H722     1.0000 0.65230  0.08020  0.17910  Biso   1.000  H
  H723     1.0000 0.69920  0.10210  0.20490  Biso   1.000  H
  H724     1.0000 0.69290  0.04470  0.20020  Biso   1.000  H
  C593     1.0000 0.87230  0.12700  0.21780  Biso   1.000  C
  H725     1.0000 0.84880  0.15240  0.22700  Biso   1.000  H
  H726     1.0000 0.89740  0.14280  0.19780  Biso   1.000  H
  C594     1.0000 0.05550  0.92420  0.18070  Biso   1.000  C
  H727     1.0000 0.04590  0.95130  0.16000  Biso   1.000  H
  H728     1.0000 0.08950  0.91620  0.17470  Biso   1.000  H
  H729     1.0000 0.05140  0.93330  0.21470  Biso   1.000  H
  C595     1.0000 0.04180  0.83390  0.20240  Biso   1.000  C
  H730     1.0000 0.07480  0.82550  0.19270  Biso   1.000  H
  H731     1.0000 0.02080  0.80560  0.19850  Biso   1.000  H
  H732     1.0000 0.04160  0.84410  0.23630  Biso   1.000  H
  C596     1.0000 0.69560  0.04420  0.09250  Biso   1.000  C
  H733     1.0000 0.66170  0.05250  0.08650  Biso   1.000  H
  H734     1.0000 0.69780  0.01050  0.10330  Biso   1.000  H
  H735     1.0000 0.71420  0.04820  0.06260  Biso   1.000  H
  C597     1.0000 0.71370  0.12660  0.11260  Biso   1.000  C
  H736     1.0000 0.68060  0.13370  0.10190  Biso   1.000  H
  H737     1.0000 0.73590  0.12980  0.08510  Biso   1.000  H
  H738     1.0000 0.72300  0.14920  0.13810  Biso   1.000  H
  C598     1.0000 0.03120  0.86420  0.11840  Biso   1.000  C
  H739     1.0000 0.02070  0.89050  0.09700  Biso   1.000  H
  H740     1.0000 0.01320  0.83470  0.11050  Biso   1.000  H
  H741     1.0000 0.06590  0.85850  0.11380  Biso   1.000  H
  C599     1.0000 0.71590  0.07700  0.13120  Biso   1.000  C
  C600     1.0000 0.78690  0.91260  0.19850  Biso   1.000  C
  H742     1.0000 0.75800  0.93020  0.20880  Biso   1.000  H
  H743     1.0000 0.78740  0.88060  0.21370  Biso   1.000  H
  H744     1.0000 0.78660  0.90890  0.16330  Biso   1.000  H
  Rb1      1.0000 0.25000  0.03401  0.50000  Biso   1.000  Rb
  Rb2      1.0000 0.25000  0.96599  0.00000  Biso   1.000  Rb
  Rb3      1.0000 0.75000  0.53401  0.00000  Biso   1.000  Rb
  Rb4      1.0000 0.75000  0.46599  0.50000  Biso   1.000  Rb
  Rb5      1.0000 0.50000  0.25000  0.03401  Biso   1.000  Rb
  Rb6      1.0000 0.00000  0.25000  0.96599  Biso   1.000  Rb
  Rb7      1.0000 0.00000  0.75000  0.53401  Biso   1.000  Rb
  Rb8      1.0000 0.50000  0.75000  0.46599  Biso   1.000  Rb
  Rb9      1.0000 0.03401  0.50000  0.25000  Biso   1.000  Rb
  Rb10     1.0000 0.96599  0.00000  0.25000  Biso   1.000  Rb
  Rb11     1.0000 0.53401  0.00000  0.75000  Biso   1.000  Rb
  Rb12     1.0000 0.46599  0.50000  0.75000  Biso   1.000  Rb
  Co1      1.0000 0.10067  0.89933  0.39933  Biso   1.000  Co
  Co2      1.0000 0.60067  0.39933  0.89933  Biso   1.000  Co
  Co3      1.0000 0.39933  0.10067  0.89933  Biso   1.000  Co
  Co4      1.0000 0.89933  0.60067  0.39933  Biso   1.000  Co
  Co5      1.0000 0.89933  0.39933  0.10067  Biso   1.000  Co
  Co6      1.0000 0.39933  0.89933  0.60067  Biso   1.000  Co
  Co7      1.0000 0.60067  0.60067  0.60067  Biso   1.000  Co
  Co8      1.0000 0.10067  0.10067  0.10067  Biso   1.000  Co
