data_LOQSUG_clean
_audit_creation_date              2014-07-02
_audit_creation_method            'Materials Studio'
_symmetry_space_group_name_H-M    'P1'
_symmetry_Int_Tables_number       1
_symmetry_cell_setting            triclinic
loop_
_symmetry_equiv_pos_as_xyz
  x,y,z
_cell_length_a                    24.1205
_cell_length_b                    24.1205
_cell_length_c                    24.1205
_cell_angle_alpha                 109.4610
_cell_angle_beta                  109.4610
_cell_angle_gamma                 109.4610
loop_
_atom_site_label
_atom_site_type_symbol
_atom_site_fract_x
_atom_site_fract_y
_atom_site_fract_z
_atom_site_U_iso_or_equiv
_atom_site_adp_type
_atom_site_occupancy
Er1    Er    0.40152   0.35207   0.85207   0.01267  Uiso   1.00
Er2    Er    0.85207   0.40152   0.35207   0.01267  Uiso   1.00
Er3    Er    0.35207   0.85207   0.40152   0.01267  Uiso   1.00
Er4    Er    0.85207   0.90152   0.35207   0.01267  Uiso   1.00
Er5    Er    0.90152   0.35207   0.85207   0.01267  Uiso   1.00
Er6    Er    0.35207   0.85207   0.90152   0.01267  Uiso   1.00
Er7    Er    0.30283   0.30283   0.30283   0.01267  Uiso   1.00
Er8    Er    0.80283   0.80283   0.80283   0.01267  Uiso   1.00
H1     H     0.34900   0.47680   0.02730   0.01267  Uiso   1.00
H2     H     0.39000   0.71530   0.21220   0.01267  Uiso   1.00
H3     H     0.66850   0.67610   0.30800   0.01267  Uiso   1.00
H4     H     0.48250   0.52620   0.35290   0.01267  Uiso   1.00
H5     H     0.46460   0.66480   0.19200   0.01267  Uiso   1.00
H6     H     0.53450   0.66730   0.20870   0.01267  Uiso   1.00
H7     H     0.37760   0.53640   0.15330   0.01267  Uiso   1.00
H8     H     0.39320   0.53530   0.22160   0.01267  Uiso   1.00
H9     H     0.51370   0.63560   0.33050   0.01267  Uiso   1.00
H10    H     0.50370   0.68920   0.31150   0.01267  Uiso   1.00
H11    H     0.54690   0.57280   0.23530   0.01267  Uiso   1.00
H12    H     0.47730   0.52000   0.16810   0.01267  Uiso   1.00
H13    H     0.52340   0.70400   0.13360   0.01267  Uiso   1.00
H14    H     0.54070   0.73020   0.05740   0.01267  Uiso   1.00
H15    H     0.51680   0.64700   0.95690   0.01267  Uiso   1.00
H16    H     0.43490   0.54510   0.92410   0.01267  Uiso   1.00
H17    H     0.29170   0.36160   0.93400   0.01267  Uiso   1.00
H18    H     0.35810   0.37270   0.98940   0.01267  Uiso   1.00
H19    H     0.35670   0.36450   0.08660   0.01267  Uiso   1.00
H20    H     0.31420   0.37400   0.15980   0.01267  Uiso   1.00
H21    H     0.20530   0.35390   0.12080   0.01267  Uiso   1.00
H22    H     0.14870   0.34770   0.01920   0.01267  Uiso   1.00
H23    H     0.20900   0.38000   0.96920   0.01267  Uiso   1.00
H24    H     0.28360   0.50010   0.17290   0.01267  Uiso   1.00
H25    H     0.17980   0.47050   0.16500   0.01267  Uiso   1.00
H26    H     0.16120   0.55370   0.21890   0.01267  Uiso   1.00
H27    H     0.23310   0.66010   0.24970   0.01267  Uiso   1.00
H28    H     0.42780   0.84510   0.28760   0.01267  Uiso   1.00
H29    H     0.47220   0.82880   0.33750   0.01267  Uiso   1.00
H30    H     0.57200   0.83330   0.33490   0.01267  Uiso   1.00
H31    H     0.63860   0.83660   0.28600   0.01267  Uiso   1.00
H32    H     0.61330   0.85340   0.19460   0.01267  Uiso   1.00
H33    H     0.51450   0.85540   0.14650   0.01267  Uiso   1.00
H34    H     0.43860   0.82990   0.18220   0.01267  Uiso   1.00
H35    H     0.57410   0.73650   0.42630   0.01267  Uiso   1.00
H36    H     0.64570   0.83960   0.52550   0.01267  Uiso   1.00
H37    H     0.74690   0.91110   0.53940   0.01267  Uiso   1.00
H38    H     0.78210   0.87080   0.46680   0.01267  Uiso   1.00
H39    H     0.77220   0.70870   0.28390   0.01267  Uiso   1.00
H40    H     0.71790   0.71770   0.23500   0.01267  Uiso   1.00
H41    H     0.62230   0.62700   0.14050   0.01267  Uiso   1.00
H42    H     0.56160   0.51490   0.06160   0.01267  Uiso   1.00
H43    H     0.57640   0.43740   0.09130   0.01267  Uiso   1.00
H44    H     0.68460   0.47820   0.17870   0.01267  Uiso   1.00
H45    H     0.74030   0.58850   0.26260   0.01267  Uiso   1.00
H46    H     0.53720   0.46640   0.18460   0.01267  Uiso   1.00
H47    H     0.53580   0.36390   0.15380   0.01267  Uiso   1.00
H48    H     0.49450   0.30500   0.19760   0.01267  Uiso   1.00
H49    H     0.44910   0.33110   0.25890   0.01267  Uiso   1.00
H50    H     0.36830   0.48340   0.34850   0.01267  Uiso   1.00
H51    H     0.42400   0.49370   0.41420   0.01267  Uiso   1.00
H52    H     0.36180   0.57810   0.34760   0.01267  Uiso   1.00
H53    H     0.40330   0.69210   0.38830   0.01267  Uiso   1.00
H54    H     0.49820   0.76720   0.49160   0.01267  Uiso   1.00
H55    H     0.54520   0.72710   0.55820   0.01267  Uiso   1.00
H56    H     0.52340   0.61740   0.50400   0.01267  Uiso   1.00
H57    H     0.02730   0.34900   0.47680   0.01267  Uiso   1.00
H58    H     0.21220   0.39000   0.71530   0.01267  Uiso   1.00
H59    H     0.30800   0.66850   0.67610   0.01267  Uiso   1.00
H60    H     0.35290   0.48250   0.52620   0.01267  Uiso   1.00
H61    H     0.19200   0.46460   0.66480   0.01267  Uiso   1.00
H62    H     0.20870   0.53450   0.66730   0.01267  Uiso   1.00
H63    H     0.15330   0.37760   0.53640   0.01267  Uiso   1.00
H64    H     0.22160   0.39320   0.53530   0.01267  Uiso   1.00
H65    H     0.33050   0.51370   0.63560   0.01267  Uiso   1.00
H66    H     0.31150   0.50370   0.68920   0.01267  Uiso   1.00
H67    H     0.23530   0.54690   0.57280   0.01267  Uiso   1.00
H68    H     0.16810   0.47730   0.52000   0.01267  Uiso   1.00
H69    H     0.13360   0.52340   0.70400   0.01267  Uiso   1.00
H70    H     0.05740   0.54070   0.73020   0.01267  Uiso   1.00
H71    H     0.95690   0.51680   0.64700   0.01267  Uiso   1.00
H72    H     0.92410   0.43490   0.54510   0.01267  Uiso   1.00
H73    H     0.93400   0.29170   0.36160   0.01267  Uiso   1.00
H74    H     0.98940   0.35810   0.37270   0.01267  Uiso   1.00
H75    H     0.08660   0.35670   0.36450   0.01267  Uiso   1.00
H76    H     0.15980   0.31420   0.37400   0.01267  Uiso   1.00
H77    H     0.12080   0.20530   0.35390   0.01267  Uiso   1.00
H78    H     0.01920   0.14870   0.34770   0.01267  Uiso   1.00
H79    H     0.96920   0.20900   0.38000   0.01267  Uiso   1.00
H80    H     0.17290   0.28360   0.50010   0.01267  Uiso   1.00
H81    H     0.16500   0.17980   0.47050   0.01267  Uiso   1.00
H82    H     0.21890   0.16120   0.55370   0.01267  Uiso   1.00
H83    H     0.24970   0.23310   0.66010   0.01267  Uiso   1.00
H84    H     0.28760   0.42780   0.84510   0.01267  Uiso   1.00
H85    H     0.33750   0.47220   0.82880   0.01267  Uiso   1.00
H86    H     0.33490   0.57200   0.83330   0.01267  Uiso   1.00
H87    H     0.28600   0.63860   0.83660   0.01267  Uiso   1.00
H88    H     0.19460   0.61330   0.85340   0.01267  Uiso   1.00
H89    H     0.14650   0.51450   0.85540   0.01267  Uiso   1.00
H90    H     0.18220   0.43860   0.82990   0.01267  Uiso   1.00
H91    H     0.42630   0.57410   0.73650   0.01267  Uiso   1.00
H92    H     0.52550   0.64570   0.83960   0.01267  Uiso   1.00
H93    H     0.53940   0.74690   0.91110   0.01267  Uiso   1.00
H94    H     0.46680   0.78210   0.87080   0.01267  Uiso   1.00
H95    H     0.28390   0.77220   0.70870   0.01267  Uiso   1.00
H96    H     0.23500   0.71790   0.71770   0.01267  Uiso   1.00
H97    H     0.14050   0.62230   0.62700   0.01267  Uiso   1.00
H98    H     0.06160   0.56160   0.51490   0.01267  Uiso   1.00
H99    H     0.09130   0.57640   0.43740   0.01267  Uiso   1.00
H100   H     0.17870   0.68460   0.47820   0.01267  Uiso   1.00
H101   H     0.26260   0.74030   0.58850   0.01267  Uiso   1.00
H102   H     0.18460   0.53720   0.46640   0.01267  Uiso   1.00
H103   H     0.15380   0.53580   0.36390   0.01267  Uiso   1.00
H104   H     0.19760   0.49450   0.30500   0.01267  Uiso   1.00
H105   H     0.25890   0.44910   0.33110   0.01267  Uiso   1.00
H106   H     0.34850   0.36830   0.48340   0.01267  Uiso   1.00
H107   H     0.41420   0.42400   0.49370   0.01267  Uiso   1.00
H108   H     0.34760   0.36180   0.57810   0.01267  Uiso   1.00
H109   H     0.38830   0.40330   0.69210   0.01267  Uiso   1.00
H110   H     0.49160   0.49820   0.76720   0.01267  Uiso   1.00
H111   H     0.55820   0.54520   0.72710   0.01267  Uiso   1.00
H112   H     0.50400   0.52340   0.61740   0.01267  Uiso   1.00
H113   H     0.47680   0.02730   0.34900   0.01267  Uiso   1.00
H114   H     0.71530   0.21220   0.39000   0.01267  Uiso   1.00
H115   H     0.67610   0.30800   0.66850   0.01267  Uiso   1.00
H116   H     0.52620   0.35290   0.48250   0.01267  Uiso   1.00
H117   H     0.66480   0.19200   0.46460   0.01267  Uiso   1.00
H118   H     0.66730   0.20870   0.53450   0.01267  Uiso   1.00
H119   H     0.53640   0.15330   0.37760   0.01267  Uiso   1.00
H120   H     0.53530   0.22160   0.39320   0.01267  Uiso   1.00
H121   H     0.63560   0.33050   0.51370   0.01267  Uiso   1.00
H122   H     0.68920   0.31150   0.50370   0.01267  Uiso   1.00
H123   H     0.57280   0.23530   0.54690   0.01267  Uiso   1.00
H124   H     0.52000   0.16810   0.47730   0.01267  Uiso   1.00
H125   H     0.70400   0.13360   0.52340   0.01267  Uiso   1.00
H126   H     0.73020   0.05740   0.54070   0.01267  Uiso   1.00
H127   H     0.64700   0.95690   0.51680   0.01267  Uiso   1.00
H128   H     0.54510   0.92410   0.43490   0.01267  Uiso   1.00
H129   H     0.36160   0.93400   0.29170   0.01267  Uiso   1.00
H130   H     0.37270   0.98940   0.35810   0.01267  Uiso   1.00
H131   H     0.36450   0.08660   0.35670   0.01267  Uiso   1.00
H132   H     0.37400   0.15980   0.31420   0.01267  Uiso   1.00
H133   H     0.35390   0.12080   0.20530   0.01267  Uiso   1.00
H134   H     0.34770   0.01920   0.14870   0.01267  Uiso   1.00
H135   H     0.38000   0.96920   0.20900   0.01267  Uiso   1.00
H136   H     0.50010   0.17290   0.28360   0.01267  Uiso   1.00
H137   H     0.47050   0.16500   0.17980   0.01267  Uiso   1.00
H138   H     0.55370   0.21890   0.16120   0.01267  Uiso   1.00
H139   H     0.66010   0.24970   0.23310   0.01267  Uiso   1.00
H140   H     0.84510   0.28760   0.42780   0.01267  Uiso   1.00
H141   H     0.82880   0.33750   0.47220   0.01267  Uiso   1.00
H142   H     0.83330   0.33490   0.57200   0.01267  Uiso   1.00
H143   H     0.83660   0.28600   0.63860   0.01267  Uiso   1.00
H144   H     0.85340   0.19460   0.61330   0.01267  Uiso   1.00
H145   H     0.85540   0.14650   0.51450   0.01267  Uiso   1.00
H146   H     0.82990   0.18220   0.43860   0.01267  Uiso   1.00
H147   H     0.73650   0.42630   0.57410   0.01267  Uiso   1.00
H148   H     0.83960   0.52550   0.64570   0.01267  Uiso   1.00
H149   H     0.91110   0.53940   0.74690   0.01267  Uiso   1.00
H150   H     0.87080   0.46680   0.78210   0.01267  Uiso   1.00
H151   H     0.70870   0.28390   0.77220   0.01267  Uiso   1.00
H152   H     0.71770   0.23500   0.71790   0.01267  Uiso   1.00
H153   H     0.62700   0.14050   0.62230   0.01267  Uiso   1.00
H154   H     0.51490   0.06160   0.56160   0.01267  Uiso   1.00
H155   H     0.43740   0.09130   0.57640   0.01267  Uiso   1.00
H156   H     0.47820   0.17870   0.68460   0.01267  Uiso   1.00
H157   H     0.58850   0.26260   0.74030   0.01267  Uiso   1.00
H158   H     0.46640   0.18460   0.53720   0.01267  Uiso   1.00
H159   H     0.36390   0.15380   0.53580   0.01267  Uiso   1.00
H160   H     0.30500   0.19760   0.49450   0.01267  Uiso   1.00
H161   H     0.33110   0.25890   0.44910   0.01267  Uiso   1.00
H162   H     0.48340   0.34850   0.36830   0.01267  Uiso   1.00
H163   H     0.49370   0.41420   0.42400   0.01267  Uiso   1.00
H164   H     0.57810   0.34760   0.36180   0.01267  Uiso   1.00
H165   H     0.69210   0.38830   0.40330   0.01267  Uiso   1.00
H166   H     0.76720   0.49160   0.49820   0.01267  Uiso   1.00
H167   H     0.72710   0.55820   0.54520   0.01267  Uiso   1.00
H168   H     0.61740   0.50400   0.52340   0.01267  Uiso   1.00
H169   H     0.97680   0.84900   0.52730   0.01267  Uiso   1.00
H170   H     0.21530   0.89000   0.71220   0.01267  Uiso   1.00
H171   H     0.17610   0.16850   0.80800   0.01267  Uiso   1.00
H172   H     0.02620   0.98250   0.85290   0.01267  Uiso   1.00
H173   H     0.16480   0.96460   0.69200   0.01267  Uiso   1.00
H174   H     0.16730   0.03450   0.70870   0.01267  Uiso   1.00
H175   H     0.03640   0.87760   0.65330   0.01267  Uiso   1.00
H176   H     0.03530   0.89320   0.72160   0.01267  Uiso   1.00
H177   H     0.13560   0.01370   0.83050   0.01267  Uiso   1.00
H178   H     0.18920   0.00370   0.81150   0.01267  Uiso   1.00
H179   H     0.07280   0.04690   0.73530   0.01267  Uiso   1.00
H180   H     0.02000   0.97730   0.66810   0.01267  Uiso   1.00
H181   H     0.20400   0.02340   0.63360   0.01267  Uiso   1.00
H182   H     0.23020   0.04070   0.55740   0.01267  Uiso   1.00
H183   H     0.14700   0.01680   0.45690   0.01267  Uiso   1.00
H184   H     0.04510   0.93490   0.42410   0.01267  Uiso   1.00
H185   H     0.86160   0.79170   0.43400   0.01267  Uiso   1.00
H186   H     0.87270   0.85810   0.48940   0.01267  Uiso   1.00
H187   H     0.86450   0.85670   0.58660   0.01267  Uiso   1.00
H188   H     0.87400   0.81420   0.65980   0.01267  Uiso   1.00
H189   H     0.85390   0.70530   0.62080   0.01267  Uiso   1.00
H190   H     0.84770   0.64870   0.51920   0.01267  Uiso   1.00
H191   H     0.88000   0.70900   0.46920   0.01267  Uiso   1.00
H192   H     0.00010   0.78360   0.67290   0.01267  Uiso   1.00
H193   H     0.97050   0.67980   0.66500   0.01267  Uiso   1.00
H194   H     0.05370   0.66120   0.71890   0.01267  Uiso   1.00
H195   H     0.16010   0.73310   0.74970   0.01267  Uiso   1.00
H196   H     0.34510   0.92780   0.78760   0.01267  Uiso   1.00
H197   H     0.32880   0.97220   0.83750   0.01267  Uiso   1.00
H198   H     0.33330   0.07200   0.83490   0.01267  Uiso   1.00
H199   H     0.33660   0.13860   0.78600   0.01267  Uiso   1.00
H200   H     0.35340   0.11330   0.69460   0.01267  Uiso   1.00
H201   H     0.35540   0.01450   0.64650   0.01267  Uiso   1.00
H202   H     0.32990   0.93860   0.68220   0.01267  Uiso   1.00
H203   H     0.23650   0.07410   0.92630   0.01267  Uiso   1.00
H204   H     0.33960   0.14570   0.02550   0.01267  Uiso   1.00
H205   H     0.41110   0.24690   0.03940   0.01267  Uiso   1.00
H206   H     0.37080   0.28210   0.96680   0.01267  Uiso   1.00
H207   H     0.20870   0.27220   0.78390   0.01267  Uiso   1.00
H208   H     0.21770   0.21790   0.73500   0.01267  Uiso   1.00
H209   H     0.12700   0.12230   0.64050   0.01267  Uiso   1.00
H210   H     0.01490   0.06160   0.56160   0.01267  Uiso   1.00
H211   H     0.93740   0.07640   0.59130   0.01267  Uiso   1.00
H212   H     0.97820   0.18460   0.67870   0.01267  Uiso   1.00
H213   H     0.08850   0.24030   0.76260   0.01267  Uiso   1.00
H214   H     0.96640   0.03720   0.68460   0.01267  Uiso   1.00
H215   H     0.86390   0.03580   0.65380   0.01267  Uiso   1.00
H216   H     0.80500   0.99450   0.69760   0.01267  Uiso   1.00
H217   H     0.83110   0.94910   0.75890   0.01267  Uiso   1.00
H218   H     0.98340   0.86830   0.84850   0.01267  Uiso   1.00
H219   H     0.99370   0.92400   0.91420   0.01267  Uiso   1.00
H220   H     0.07810   0.86180   0.84760   0.01267  Uiso   1.00
H221   H     0.19210   0.90330   0.88830   0.01267  Uiso   1.00
H222   H     0.26720   0.99820   0.99160   0.01267  Uiso   1.00
H223   H     0.22710   0.04520   0.05820   0.01267  Uiso   1.00
H224   H     0.11740   0.02340   0.00400   0.01267  Uiso   1.00
H225   H     0.84900   0.52730   0.97680   0.01267  Uiso   1.00
H226   H     0.89000   0.71220   0.21530   0.01267  Uiso   1.00
H227   H     0.16850   0.80800   0.17610   0.01267  Uiso   1.00
H228   H     0.98250   0.85290   0.02620   0.01267  Uiso   1.00
H229   H     0.96460   0.69200   0.16480   0.01267  Uiso   1.00
H230   H     0.03450   0.70870   0.16730   0.01267  Uiso   1.00
H231   H     0.87760   0.65330   0.03640   0.01267  Uiso   1.00
H232   H     0.89320   0.72160   0.03530   0.01267  Uiso   1.00
H233   H     0.01370   0.83050   0.13560   0.01267  Uiso   1.00
H234   H     0.00370   0.81150   0.18920   0.01267  Uiso   1.00
H235   H     0.04690   0.73530   0.07280   0.01267  Uiso   1.00
H236   H     0.97730   0.66810   0.02000   0.01267  Uiso   1.00
H237   H     0.02340   0.63360   0.20400   0.01267  Uiso   1.00
H238   H     0.04070   0.55740   0.23020   0.01267  Uiso   1.00
H239   H     0.01680   0.45690   0.14700   0.01267  Uiso   1.00
H240   H     0.93490   0.42410   0.04510   0.01267  Uiso   1.00
H241   H     0.79170   0.43400   0.86160   0.01267  Uiso   1.00
H242   H     0.85810   0.48940   0.87270   0.01267  Uiso   1.00
H243   H     0.85670   0.58660   0.86450   0.01267  Uiso   1.00
H244   H     0.81420   0.65980   0.87400   0.01267  Uiso   1.00
H245   H     0.70530   0.62080   0.85390   0.01267  Uiso   1.00
H246   H     0.64870   0.51920   0.84770   0.01267  Uiso   1.00
H247   H     0.70900   0.46920   0.88000   0.01267  Uiso   1.00
H248   H     0.78360   0.67290   0.00010   0.01267  Uiso   1.00
H249   H     0.67980   0.66500   0.97050   0.01267  Uiso   1.00
H250   H     0.66120   0.71890   0.05370   0.01267  Uiso   1.00
H251   H     0.73310   0.74970   0.16010   0.01267  Uiso   1.00
H252   H     0.92780   0.78760   0.34510   0.01267  Uiso   1.00
H253   H     0.97220   0.83750   0.32880   0.01267  Uiso   1.00
H254   H     0.07200   0.83490   0.33330   0.01267  Uiso   1.00
H255   H     0.13860   0.78600   0.33660   0.01267  Uiso   1.00
H256   H     0.11330   0.69460   0.35340   0.01267  Uiso   1.00
H257   H     0.01450   0.64650   0.35540   0.01267  Uiso   1.00
H258   H     0.93860   0.68220   0.32990   0.01267  Uiso   1.00
H259   H     0.07410   0.92630   0.23650   0.01267  Uiso   1.00
H260   H     0.14570   0.02550   0.33960   0.01267  Uiso   1.00
H261   H     0.24690   0.03940   0.41110   0.01267  Uiso   1.00
H262   H     0.28210   0.96680   0.37080   0.01267  Uiso   1.00
H263   H     0.27220   0.78390   0.20870   0.01267  Uiso   1.00
H264   H     0.21790   0.73500   0.21770   0.01267  Uiso   1.00
H265   H     0.12230   0.64050   0.12700   0.01267  Uiso   1.00
H266   H     0.06160   0.56160   0.01490   0.01267  Uiso   1.00
H267   H     0.07640   0.59130   0.93740   0.01267  Uiso   1.00
H268   H     0.18460   0.67870   0.97820   0.01267  Uiso   1.00
H269   H     0.24030   0.76260   0.08850   0.01267  Uiso   1.00
H270   H     0.03720   0.68460   0.96640   0.01267  Uiso   1.00
H271   H     0.03580   0.65380   0.86390   0.01267  Uiso   1.00
H272   H     0.99450   0.69760   0.80500   0.01267  Uiso   1.00
H273   H     0.94910   0.75890   0.83110   0.01267  Uiso   1.00
H274   H     0.86830   0.84850   0.98340   0.01267  Uiso   1.00
H275   H     0.92400   0.91420   0.99370   0.01267  Uiso   1.00
H276   H     0.86180   0.84760   0.07810   0.01267  Uiso   1.00
H277   H     0.90330   0.88830   0.19210   0.01267  Uiso   1.00
H278   H     0.99820   0.99160   0.26720   0.01267  Uiso   1.00
H279   H     0.04520   0.05820   0.22710   0.01267  Uiso   1.00
H280   H     0.02340   0.00400   0.11740   0.01267  Uiso   1.00
H281   H     0.52730   0.97680   0.84900   0.01267  Uiso   1.00
H282   H     0.71220   0.21530   0.89000   0.01267  Uiso   1.00
H283   H     0.80800   0.17610   0.16850   0.01267  Uiso   1.00
H284   H     0.85290   0.02620   0.98250   0.01267  Uiso   1.00
H285   H     0.69200   0.16480   0.96460   0.01267  Uiso   1.00
H286   H     0.70870   0.16730   0.03450   0.01267  Uiso   1.00
H287   H     0.65330   0.03640   0.87760   0.01267  Uiso   1.00
H288   H     0.72160   0.03530   0.89320   0.01267  Uiso   1.00
H289   H     0.83050   0.13560   0.01370   0.01267  Uiso   1.00
H290   H     0.81150   0.18920   0.00370   0.01267  Uiso   1.00
H291   H     0.73530   0.07280   0.04690   0.01267  Uiso   1.00
H292   H     0.66810   0.02000   0.97730   0.01267  Uiso   1.00
H293   H     0.63360   0.20400   0.02340   0.01267  Uiso   1.00
H294   H     0.55740   0.23020   0.04070   0.01267  Uiso   1.00
H295   H     0.45690   0.14700   0.01680   0.01267  Uiso   1.00
H296   H     0.42410   0.04510   0.93490   0.01267  Uiso   1.00
H297   H     0.43400   0.86160   0.79170   0.01267  Uiso   1.00
H298   H     0.48940   0.87270   0.85810   0.01267  Uiso   1.00
H299   H     0.58660   0.86450   0.85670   0.01267  Uiso   1.00
H300   H     0.65980   0.87400   0.81420   0.01267  Uiso   1.00
H301   H     0.62080   0.85390   0.70530   0.01267  Uiso   1.00
H302   H     0.51920   0.84770   0.64870   0.01267  Uiso   1.00
H303   H     0.46920   0.88000   0.70900   0.01267  Uiso   1.00
H304   H     0.67290   0.00010   0.78360   0.01267  Uiso   1.00
H305   H     0.66500   0.97050   0.67980   0.01267  Uiso   1.00
H306   H     0.71890   0.05370   0.66120   0.01267  Uiso   1.00
H307   H     0.74970   0.16010   0.73310   0.01267  Uiso   1.00
H308   H     0.78760   0.34510   0.92780   0.01267  Uiso   1.00
H309   H     0.83750   0.32880   0.97220   0.01267  Uiso   1.00
H310   H     0.83490   0.33330   0.07200   0.01267  Uiso   1.00
H311   H     0.78600   0.33660   0.13860   0.01267  Uiso   1.00
H312   H     0.69460   0.35340   0.11330   0.01267  Uiso   1.00
H313   H     0.64650   0.35540   0.01450   0.01267  Uiso   1.00
H314   H     0.68220   0.32990   0.93860   0.01267  Uiso   1.00
H315   H     0.92630   0.23650   0.07410   0.01267  Uiso   1.00
H316   H     0.02550   0.33960   0.14570   0.01267  Uiso   1.00
H317   H     0.03940   0.41110   0.24690   0.01267  Uiso   1.00
H318   H     0.96680   0.37080   0.28210   0.01267  Uiso   1.00
H319   H     0.78390   0.20870   0.27220   0.01267  Uiso   1.00
H320   H     0.73500   0.21770   0.21790   0.01267  Uiso   1.00
H321   H     0.64050   0.12700   0.12230   0.01267  Uiso   1.00
H322   H     0.56160   0.01490   0.06160   0.01267  Uiso   1.00
H323   H     0.59130   0.93740   0.07640   0.01267  Uiso   1.00
H324   H     0.67870   0.97820   0.18460   0.01267  Uiso   1.00
H325   H     0.76260   0.08850   0.24030   0.01267  Uiso   1.00
H326   H     0.68460   0.96640   0.03720   0.01267  Uiso   1.00
H327   H     0.65380   0.86390   0.03580   0.01267  Uiso   1.00
H328   H     0.69760   0.80500   0.99450   0.01267  Uiso   1.00
H329   H     0.75890   0.83110   0.94910   0.01267  Uiso   1.00
H330   H     0.84850   0.98340   0.86830   0.01267  Uiso   1.00
H331   H     0.91420   0.99370   0.92400   0.01267  Uiso   1.00
H332   H     0.84760   0.07810   0.86180   0.01267  Uiso   1.00
H333   H     0.88830   0.19210   0.90330   0.01267  Uiso   1.00
H334   H     0.99160   0.26720   0.99820   0.01267  Uiso   1.00
H335   H     0.05820   0.22710   0.04520   0.01267  Uiso   1.00
H336   H     0.00400   0.11740   0.02340   0.01267  Uiso   1.00
C1     C     0.47600   0.60160   0.22730   0.01267  Uiso   1.00
C2     C     0.48650   0.63740   0.18940   0.01267  Uiso   1.00
C3     C     0.40280   0.56420   0.20230   0.01267  Uiso   1.00
C4     C     0.51930   0.65660   0.30330   0.01267  Uiso   1.00
C5     C     0.49820   0.55000   0.21650   0.01267  Uiso   1.00
C6     C     0.39550   0.47730   0.97700   0.01267  Uiso   1.00
C7     C     0.44580   0.55070   0.00870   0.01267  Uiso   1.00
C8     C     0.47210   0.60430   0.07100   0.01267  Uiso   1.00
C9     C     0.50750   0.67000   0.09020   0.01267  Uiso   1.00
C10    C     0.51920   0.68480   0.04570   0.01267  Uiso   1.00
C11    C     0.50150   0.63780   0.98530   0.01267  Uiso   1.00
C12    C     0.45970   0.57660   0.97040   0.01267  Uiso   1.00
C13    C     0.32550   0.38820   0.98190   0.01267  Uiso   1.00
C14    C     0.29090   0.37880   0.02410   0.01267  Uiso   1.00
C15    C     0.31870   0.36980   0.07760   0.01267  Uiso   1.00
C16    C     0.29010   0.36850   0.11740   0.01267  Uiso   1.00
C17    C     0.22650   0.35940   0.09560   0.01267  Uiso   1.00
C18    C     0.19390   0.35840   0.03710   0.01267  Uiso   1.00
C19    C     0.22830   0.37320   0.00500   0.01267  Uiso   1.00
C20    C     0.35680   0.73280   0.27800   0.01267  Uiso   1.00
C21    C     0.30870   0.65070   0.24740   0.01267  Uiso   1.00
C22    C     0.31930   0.59910   0.22120   0.01267  Uiso   1.00
C23    C     0.27340   0.53350   0.19110   0.01267  Uiso   1.00
C24    C     0.21280   0.51600   0.18730   0.01267  Uiso   1.00
C25    C     0.20010   0.56370   0.21530   0.01267  Uiso   1.00
C26    C     0.24650   0.62790   0.23850   0.01267  Uiso   1.00
C27    C     0.44770   0.81650   0.29030   0.01267  Uiso   1.00
C28    C     0.49530   0.82400   0.26010   0.01267  Uiso   1.00
C29    C     0.55760   0.83200   0.29330   0.01267  Uiso   1.00
C30    C     0.59920   0.83840   0.26660   0.01267  Uiso   1.00
C31    C     0.58380   0.84710   0.21180   0.01267  Uiso   1.00
C32    C     0.52430   0.84650   0.18220   0.01267  Uiso   1.00
C33    C     0.48030   0.83320   0.20470   0.01267  Uiso   1.00
C34    C     0.72870   0.77380   0.35170   0.01267  Uiso   1.00
C35    C     0.69390   0.78780   0.39440   0.01267  Uiso   1.00
C36    C     0.63030   0.74960   0.38310   0.01267  Uiso   1.00
C37    C     0.61480   0.76650   0.43270   0.01267  Uiso   1.00
C38    C     0.65770   0.82690   0.49230   0.01267  Uiso   1.00
C39    C     0.71840   0.86770   0.50150   0.01267  Uiso   1.00
C40    C     0.73750   0.84560   0.45590   0.01267  Uiso   1.00
C41    C     0.72430   0.69390   0.25990   0.01267  Uiso   1.00
C42    C     0.68370   0.61870   0.21250   0.01267  Uiso   1.00
C43    C     0.63240   0.59640   0.15080   0.01267  Uiso   1.00
C44    C     0.59580   0.52970   0.10440   0.01267  Uiso   1.00
C45    C     0.60790   0.48350   0.11840   0.01267  Uiso   1.00
C46    C     0.66800   0.50700   0.17400   0.01267  Uiso   1.00
C47    C     0.70260   0.57320   0.22200   0.01267  Uiso   1.00
C48    C     0.43450   0.43650   0.31120   0.01267  Uiso   1.00
C49    C     0.45840   0.41520   0.25850   0.01267  Uiso   1.00
C50    C     0.48280   0.44880   0.22930   0.01267  Uiso   1.00
C51    C     0.51600   0.43600   0.19630   0.01267  Uiso   1.00
C52    C     0.51790   0.37840   0.18060   0.01267  Uiso   1.00
C53    C     0.49270   0.34460   0.20630   0.01267  Uiso   1.00
C54    C     0.46480   0.35980   0.24300   0.01267  Uiso   1.00
C55    C     0.41670   0.50760   0.38030   0.01267  Uiso   1.00
C56    C     0.44480   0.58810   0.41600   0.01267  Uiso   1.00
C57    C     0.40420   0.60950   0.38600   0.01267  Uiso   1.00
C58    C     0.42640   0.67640   0.41270   0.01267  Uiso   1.00
C59    C     0.48160   0.72080   0.47450   0.01267  Uiso   1.00
C60    C     0.51360   0.69820   0.51220   0.01267  Uiso   1.00
C61    C     0.49800   0.63240   0.48110   0.01267  Uiso   1.00
C62    C     0.22730   0.47600   0.60160   0.01267  Uiso   1.00
C63    C     0.18940   0.48650   0.63740   0.01267  Uiso   1.00
C64    C     0.20230   0.40280   0.56420   0.01267  Uiso   1.00
C65    C     0.30330   0.51930   0.65660   0.01267  Uiso   1.00
C66    C     0.21650   0.49820   0.55000   0.01267  Uiso   1.00
C67    C     0.97700   0.39550   0.47730   0.01267  Uiso   1.00
C68    C     0.00870   0.44580   0.55070   0.01267  Uiso   1.00
C69    C     0.07100   0.47210   0.60430   0.01267  Uiso   1.00
C70    C     0.09020   0.50750   0.67000   0.01267  Uiso   1.00
C71    C     0.04570   0.51920   0.68480   0.01267  Uiso   1.00
C72    C     0.98530   0.50150   0.63780   0.01267  Uiso   1.00
C73    C     0.97040   0.45970   0.57660   0.01267  Uiso   1.00
C74    C     0.98190   0.32550   0.38820   0.01267  Uiso   1.00
C75    C     0.02410   0.29090   0.37880   0.01267  Uiso   1.00
C76    C     0.07760   0.31870   0.36980   0.01267  Uiso   1.00
C77    C     0.11740   0.29010   0.36850   0.01267  Uiso   1.00
C78    C     0.09560   0.22650   0.35940   0.01267  Uiso   1.00
C79    C     0.03710   0.19390   0.35840   0.01267  Uiso   1.00
C80    C     0.00500   0.22830   0.37320   0.01267  Uiso   1.00
C81    C     0.27800   0.35680   0.73280   0.01267  Uiso   1.00
C82    C     0.24740   0.30870   0.65070   0.01267  Uiso   1.00
C83    C     0.22120   0.31930   0.59910   0.01267  Uiso   1.00
C84    C     0.19110   0.27340   0.53350   0.01267  Uiso   1.00
C85    C     0.18730   0.21280   0.51600   0.01267  Uiso   1.00
C86    C     0.21530   0.20010   0.56370   0.01267  Uiso   1.00
C87    C     0.23850   0.24650   0.62790   0.01267  Uiso   1.00
C88    C     0.29030   0.44770   0.81650   0.01267  Uiso   1.00
C89    C     0.26010   0.49530   0.82400   0.01267  Uiso   1.00
C90    C     0.29330   0.55760   0.83200   0.01267  Uiso   1.00
C91    C     0.26660   0.59920   0.83840   0.01267  Uiso   1.00
C92    C     0.21180   0.58380   0.84710   0.01267  Uiso   1.00
C93    C     0.18220   0.52430   0.84650   0.01267  Uiso   1.00
C94    C     0.20470   0.48030   0.83320   0.01267  Uiso   1.00
C95    C     0.35170   0.72870   0.77380   0.01267  Uiso   1.00
C96    C     0.39440   0.69390   0.78780   0.01267  Uiso   1.00
C97    C     0.38310   0.63030   0.74960   0.01267  Uiso   1.00
C98    C     0.43270   0.61480   0.76650   0.01267  Uiso   1.00
C99    C     0.49230   0.65770   0.82690   0.01267  Uiso   1.00
C100   C     0.50150   0.71840   0.86770   0.01267  Uiso   1.00
C101   C     0.45590   0.73750   0.84560   0.01267  Uiso   1.00
C102   C     0.25990   0.72430   0.69390   0.01267  Uiso   1.00
C103   C     0.21250   0.68370   0.61870   0.01267  Uiso   1.00
C104   C     0.15080   0.63240   0.59640   0.01267  Uiso   1.00
C105   C     0.10440   0.59580   0.52970   0.01267  Uiso   1.00
C106   C     0.11840   0.60790   0.48350   0.01267  Uiso   1.00
C107   C     0.17400   0.66800   0.50700   0.01267  Uiso   1.00
C108   C     0.22200   0.70260   0.57320   0.01267  Uiso   1.00
C109   C     0.31120   0.43450   0.43650   0.01267  Uiso   1.00
C110   C     0.25850   0.45840   0.41520   0.01267  Uiso   1.00
C111   C     0.22930   0.48280   0.44880   0.01267  Uiso   1.00
C112   C     0.19630   0.51600   0.43600   0.01267  Uiso   1.00
C113   C     0.18060   0.51790   0.37840   0.01267  Uiso   1.00
C114   C     0.20630   0.49270   0.34460   0.01267  Uiso   1.00
C115   C     0.24300   0.46480   0.35980   0.01267  Uiso   1.00
C116   C     0.38030   0.41670   0.50760   0.01267  Uiso   1.00
C117   C     0.41600   0.44480   0.58810   0.01267  Uiso   1.00
C118   C     0.38600   0.40420   0.60950   0.01267  Uiso   1.00
C119   C     0.41270   0.42640   0.67640   0.01267  Uiso   1.00
C120   C     0.47450   0.48160   0.72080   0.01267  Uiso   1.00
C121   C     0.51220   0.51360   0.69820   0.01267  Uiso   1.00
C122   C     0.48110   0.49800   0.63240   0.01267  Uiso   1.00
C123   C     0.60160   0.22730   0.47600   0.01267  Uiso   1.00
C124   C     0.63740   0.18940   0.48650   0.01267  Uiso   1.00
C125   C     0.56420   0.20230   0.40280   0.01267  Uiso   1.00
C126   C     0.65660   0.30330   0.51930   0.01267  Uiso   1.00
C127   C     0.55000   0.21650   0.49820   0.01267  Uiso   1.00
C128   C     0.47730   0.97700   0.39550   0.01267  Uiso   1.00
C129   C     0.55070   0.00870   0.44580   0.01267  Uiso   1.00
C130   C     0.60430   0.07100   0.47210   0.01267  Uiso   1.00
C131   C     0.67000   0.09020   0.50750   0.01267  Uiso   1.00
C132   C     0.68480   0.04570   0.51920   0.01267  Uiso   1.00
C133   C     0.63780   0.98530   0.50150   0.01267  Uiso   1.00
C134   C     0.57660   0.97040   0.45970   0.01267  Uiso   1.00
C135   C     0.38820   0.98190   0.32550   0.01267  Uiso   1.00
C136   C     0.37880   0.02410   0.29090   0.01267  Uiso   1.00
C137   C     0.36980   0.07760   0.31870   0.01267  Uiso   1.00
C138   C     0.36850   0.11740   0.29010   0.01267  Uiso   1.00
C139   C     0.35940   0.09560   0.22650   0.01267  Uiso   1.00
C140   C     0.35840   0.03710   0.19390   0.01267  Uiso   1.00
C141   C     0.37320   0.00500   0.22830   0.01267  Uiso   1.00
C142   C     0.73280   0.27800   0.35680   0.01267  Uiso   1.00
C143   C     0.65070   0.24740   0.30870   0.01267  Uiso   1.00
C144   C     0.59910   0.22120   0.31930   0.01267  Uiso   1.00
C145   C     0.53350   0.19110   0.27340   0.01267  Uiso   1.00
C146   C     0.51600   0.18730   0.21280   0.01267  Uiso   1.00
C147   C     0.56370   0.21530   0.20010   0.01267  Uiso   1.00
C148   C     0.62790   0.23850   0.24650   0.01267  Uiso   1.00
C149   C     0.81650   0.29030   0.44770   0.01267  Uiso   1.00
C150   C     0.82400   0.26010   0.49530   0.01267  Uiso   1.00
C151   C     0.83200   0.29330   0.55760   0.01267  Uiso   1.00
C152   C     0.83840   0.26660   0.59920   0.01267  Uiso   1.00
C153   C     0.84710   0.21180   0.58380   0.01267  Uiso   1.00
C154   C     0.84650   0.18220   0.52430   0.01267  Uiso   1.00
C155   C     0.83320   0.20470   0.48030   0.01267  Uiso   1.00
C156   C     0.77380   0.35170   0.72870   0.01267  Uiso   1.00
C157   C     0.78780   0.39440   0.69390   0.01267  Uiso   1.00
C158   C     0.74960   0.38310   0.63030   0.01267  Uiso   1.00
C159   C     0.76650   0.43270   0.61480   0.01267  Uiso   1.00
C160   C     0.82690   0.49230   0.65770   0.01267  Uiso   1.00
C161   C     0.86770   0.50150   0.71840   0.01267  Uiso   1.00
C162   C     0.84560   0.45590   0.73750   0.01267  Uiso   1.00
C163   C     0.69390   0.25990   0.72430   0.01267  Uiso   1.00
C164   C     0.61870   0.21250   0.68370   0.01267  Uiso   1.00
C165   C     0.59640   0.15080   0.63240   0.01267  Uiso   1.00
C166   C     0.52970   0.10440   0.59580   0.01267  Uiso   1.00
C167   C     0.48350   0.11840   0.60790   0.01267  Uiso   1.00
C168   C     0.50700   0.17400   0.66800   0.01267  Uiso   1.00
C169   C     0.57320   0.22200   0.70260   0.01267  Uiso   1.00
C170   C     0.43650   0.31120   0.43450   0.01267  Uiso   1.00
C171   C     0.41520   0.25850   0.45840   0.01267  Uiso   1.00
C172   C     0.44880   0.22930   0.48280   0.01267  Uiso   1.00
C173   C     0.43600   0.19630   0.51600   0.01267  Uiso   1.00
C174   C     0.37840   0.18060   0.51790   0.01267  Uiso   1.00
C175   C     0.34460   0.20630   0.49270   0.01267  Uiso   1.00
C176   C     0.35980   0.24300   0.46480   0.01267  Uiso   1.00
C177   C     0.50760   0.38030   0.41670   0.01267  Uiso   1.00
C178   C     0.58810   0.41600   0.44480   0.01267  Uiso   1.00
C179   C     0.60950   0.38600   0.40420   0.01267  Uiso   1.00
C180   C     0.67640   0.41270   0.42640   0.01267  Uiso   1.00
C181   C     0.72080   0.47450   0.48160   0.01267  Uiso   1.00
C182   C     0.69820   0.51220   0.51360   0.01267  Uiso   1.00
C183   C     0.63240   0.48110   0.49800   0.01267  Uiso   1.00
C184   C     0.10160   0.97600   0.72730   0.01267  Uiso   1.00
C185   C     0.13740   0.98650   0.68940   0.01267  Uiso   1.00
C186   C     0.06420   0.90280   0.70230   0.01267  Uiso   1.00
C187   C     0.15660   0.01930   0.80330   0.01267  Uiso   1.00
C188   C     0.05000   0.99820   0.71650   0.01267  Uiso   1.00
C189   C     0.97730   0.89550   0.47700   0.01267  Uiso   1.00
C190   C     0.05070   0.94580   0.50870   0.01267  Uiso   1.00
C191   C     0.10430   0.97210   0.57100   0.01267  Uiso   1.00
C192   C     0.17000   0.00750   0.59020   0.01267  Uiso   1.00
C193   C     0.18480   0.01920   0.54570   0.01267  Uiso   1.00
C194   C     0.13780   0.00150   0.48530   0.01267  Uiso   1.00
C195   C     0.07660   0.95970   0.47040   0.01267  Uiso   1.00
C196   C     0.88820   0.82550   0.48190   0.01267  Uiso   1.00
C197   C     0.87880   0.79090   0.52410   0.01267  Uiso   1.00
C198   C     0.86980   0.81870   0.57760   0.01267  Uiso   1.00
C199   C     0.86850   0.79010   0.61740   0.01267  Uiso   1.00
C200   C     0.85940   0.72650   0.59560   0.01267  Uiso   1.00
C201   C     0.85840   0.69390   0.53710   0.01267  Uiso   1.00
C202   C     0.87320   0.72830   0.50500   0.01267  Uiso   1.00
C203   C     0.23280   0.85680   0.77800   0.01267  Uiso   1.00
C204   C     0.15070   0.80870   0.74740   0.01267  Uiso   1.00
C205   C     0.09910   0.81930   0.72120   0.01267  Uiso   1.00
C206   C     0.03350   0.77340   0.69110   0.01267  Uiso   1.00
C207   C     0.01600   0.71280   0.68730   0.01267  Uiso   1.00
C208   C     0.06370   0.70010   0.71530   0.01267  Uiso   1.00
C209   C     0.12790   0.74650   0.73850   0.01267  Uiso   1.00
C210   C     0.31650   0.94770   0.79030   0.01267  Uiso   1.00
C211   C     0.32400   0.99530   0.76010   0.01267  Uiso   1.00
C212   C     0.33200   0.05760   0.79330   0.01267  Uiso   1.00
C213   C     0.33840   0.09920   0.76660   0.01267  Uiso   1.00
C214   C     0.34710   0.08380   0.71180   0.01267  Uiso   1.00
C215   C     0.34650   0.02430   0.68220   0.01267  Uiso   1.00
C216   C     0.33320   0.98030   0.70470   0.01267  Uiso   1.00
C217   C     0.27380   0.22870   0.85170   0.01267  Uiso   1.00
C218   C     0.28780   0.19390   0.89440   0.01267  Uiso   1.00
C219   C     0.24960   0.13030   0.88310   0.01267  Uiso   1.00
C220   C     0.26650   0.11480   0.93270   0.01267  Uiso   1.00
C221   C     0.32690   0.15770   0.99230   0.01267  Uiso   1.00
C222   C     0.36770   0.21840   0.00150   0.01267  Uiso   1.00
C223   C     0.34560   0.23750   0.95590   0.01267  Uiso   1.00
C224   C     0.19390   0.22430   0.75990   0.01267  Uiso   1.00
C225   C     0.11870   0.18370   0.71250   0.01267  Uiso   1.00
C226   C     0.09640   0.13240   0.65080   0.01267  Uiso   1.00
C227   C     0.02970   0.09580   0.60440   0.01267  Uiso   1.00
C228   C     0.98350   0.10790   0.61840   0.01267  Uiso   1.00
C229   C     0.00700   0.16800   0.67400   0.01267  Uiso   1.00
C230   C     0.07320   0.20260   0.72200   0.01267  Uiso   1.00
C231   C     0.93650   0.93450   0.81120   0.01267  Uiso   1.00
C232   C     0.91520   0.95840   0.75850   0.01267  Uiso   1.00
C233   C     0.94880   0.98280   0.72930   0.01267  Uiso   1.00
C234   C     0.93600   0.01600   0.69630   0.01267  Uiso   1.00
C235   C     0.87840   0.01790   0.68060   0.01267  Uiso   1.00
C236   C     0.84460   0.99270   0.70630   0.01267  Uiso   1.00
C237   C     0.85980   0.96480   0.74300   0.01267  Uiso   1.00
C238   C     0.00760   0.91670   0.88030   0.01267  Uiso   1.00
C239   C     0.08810   0.94480   0.91600   0.01267  Uiso   1.00
C240   C     0.10950   0.90420   0.88600   0.01267  Uiso   1.00
C241   C     0.17640   0.92640   0.91270   0.01267  Uiso   1.00
C242   C     0.22080   0.98160   0.97450   0.01267  Uiso   1.00
C243   C     0.19820   0.01360   0.01220   0.01267  Uiso   1.00
C244   C     0.13240   0.99800   0.98110   0.01267  Uiso   1.00
C245   C     0.97600   0.72730   0.10160   0.01267  Uiso   1.00
C246   C     0.98650   0.68940   0.13740   0.01267  Uiso   1.00
C247   C     0.90280   0.70230   0.06420   0.01267  Uiso   1.00
C248   C     0.01930   0.80330   0.15660   0.01267  Uiso   1.00
C249   C     0.99820   0.71650   0.05000   0.01267  Uiso   1.00
C250   C     0.89550   0.47700   0.97730   0.01267  Uiso   1.00
C251   C     0.94580   0.50870   0.05070   0.01267  Uiso   1.00
C252   C     0.97210   0.57100   0.10430   0.01267  Uiso   1.00
C253   C     0.00750   0.59020   0.17000   0.01267  Uiso   1.00
C254   C     0.01920   0.54570   0.18480   0.01267  Uiso   1.00
C255   C     0.00150   0.48530   0.13780   0.01267  Uiso   1.00
C256   C     0.95970   0.47040   0.07660   0.01267  Uiso   1.00
C257   C     0.82550   0.48190   0.88820   0.01267  Uiso   1.00
C258   C     0.79090   0.52410   0.87880   0.01267  Uiso   1.00
C259   C     0.81870   0.57760   0.86980   0.01267  Uiso   1.00
C260   C     0.79010   0.61740   0.86850   0.01267  Uiso   1.00
C261   C     0.72650   0.59560   0.85940   0.01267  Uiso   1.00
C262   C     0.69390   0.53710   0.85840   0.01267  Uiso   1.00
C263   C     0.72830   0.50500   0.87320   0.01267  Uiso   1.00
C264   C     0.85680   0.77800   0.23280   0.01267  Uiso   1.00
C265   C     0.80870   0.74740   0.15070   0.01267  Uiso   1.00
C266   C     0.81930   0.72120   0.09910   0.01267  Uiso   1.00
C267   C     0.77340   0.69110   0.03350   0.01267  Uiso   1.00
C268   C     0.71280   0.68730   0.01600   0.01267  Uiso   1.00
C269   C     0.70010   0.71530   0.06370   0.01267  Uiso   1.00
C270   C     0.74650   0.73850   0.12790   0.01267  Uiso   1.00
C271   C     0.94770   0.79030   0.31650   0.01267  Uiso   1.00
C272   C     0.99530   0.76010   0.32400   0.01267  Uiso   1.00
C273   C     0.05760   0.79330   0.33200   0.01267  Uiso   1.00
C274   C     0.09920   0.76660   0.33840   0.01267  Uiso   1.00
C275   C     0.08380   0.71180   0.34710   0.01267  Uiso   1.00
C276   C     0.02430   0.68220   0.34650   0.01267  Uiso   1.00
C277   C     0.98030   0.70470   0.33320   0.01267  Uiso   1.00
C278   C     0.22870   0.85170   0.27380   0.01267  Uiso   1.00
C279   C     0.19390   0.89440   0.28780   0.01267  Uiso   1.00
C280   C     0.13030   0.88310   0.24960   0.01267  Uiso   1.00
C281   C     0.11480   0.93270   0.26650   0.01267  Uiso   1.00
C282   C     0.15770   0.99230   0.32690   0.01267  Uiso   1.00
C283   C     0.21840   0.00150   0.36770   0.01267  Uiso   1.00
C284   C     0.23750   0.95590   0.34560   0.01267  Uiso   1.00
C285   C     0.22430   0.75990   0.19390   0.01267  Uiso   1.00
C286   C     0.18370   0.71250   0.11870   0.01267  Uiso   1.00
C287   C     0.13240   0.65080   0.09640   0.01267  Uiso   1.00
C288   C     0.09580   0.60440   0.02970   0.01267  Uiso   1.00
C289   C     0.10790   0.61840   0.98350   0.01267  Uiso   1.00
C290   C     0.16800   0.67400   0.00700   0.01267  Uiso   1.00
C291   C     0.20260   0.72200   0.07320   0.01267  Uiso   1.00
C292   C     0.93450   0.81120   0.93650   0.01267  Uiso   1.00
C293   C     0.95840   0.75850   0.91520   0.01267  Uiso   1.00
C294   C     0.98280   0.72930   0.94880   0.01267  Uiso   1.00
C295   C     0.01600   0.69630   0.93600   0.01267  Uiso   1.00
C296   C     0.01790   0.68060   0.87840   0.01267  Uiso   1.00
C297   C     0.99270   0.70630   0.84460   0.01267  Uiso   1.00
C298   C     0.96480   0.74300   0.85980   0.01267  Uiso   1.00
C299   C     0.91670   0.88030   0.00760   0.01267  Uiso   1.00
C300   C     0.94480   0.91600   0.08810   0.01267  Uiso   1.00
C301   C     0.90420   0.88600   0.10950   0.01267  Uiso   1.00
C302   C     0.92640   0.91270   0.17640   0.01267  Uiso   1.00
C303   C     0.98160   0.97450   0.22080   0.01267  Uiso   1.00
C304   C     0.01360   0.01220   0.19820   0.01267  Uiso   1.00
C305   C     0.99800   0.98110   0.13240   0.01267  Uiso   1.00
C306   C     0.72730   0.10160   0.97600   0.01267  Uiso   1.00
C307   C     0.68940   0.13740   0.98650   0.01267  Uiso   1.00
C308   C     0.70230   0.06420   0.90280   0.01267  Uiso   1.00
C309   C     0.80330   0.15660   0.01930   0.01267  Uiso   1.00
C310   C     0.71650   0.05000   0.99820   0.01267  Uiso   1.00
C311   C     0.47700   0.97730   0.89550   0.01267  Uiso   1.00
C312   C     0.50870   0.05070   0.94580   0.01267  Uiso   1.00
C313   C     0.57100   0.10430   0.97210   0.01267  Uiso   1.00
C314   C     0.59020   0.17000   0.00750   0.01267  Uiso   1.00
C315   C     0.54570   0.18480   0.01920   0.01267  Uiso   1.00
C316   C     0.48530   0.13780   0.00150   0.01267  Uiso   1.00
C317   C     0.47040   0.07660   0.95970   0.01267  Uiso   1.00
C318   C     0.48190   0.88820   0.82550   0.01267  Uiso   1.00
C319   C     0.52410   0.87880   0.79090   0.01267  Uiso   1.00
C320   C     0.57760   0.86980   0.81870   0.01267  Uiso   1.00
C321   C     0.61740   0.86850   0.79010   0.01267  Uiso   1.00
C322   C     0.59560   0.85940   0.72650   0.01267  Uiso   1.00
C323   C     0.53710   0.85840   0.69390   0.01267  Uiso   1.00
C324   C     0.50500   0.87320   0.72830   0.01267  Uiso   1.00
C325   C     0.77800   0.23280   0.85680   0.01267  Uiso   1.00
C326   C     0.74740   0.15070   0.80870   0.01267  Uiso   1.00
C327   C     0.72120   0.09910   0.81930   0.01267  Uiso   1.00
C328   C     0.69110   0.03350   0.77340   0.01267  Uiso   1.00
C329   C     0.68730   0.01600   0.71280   0.01267  Uiso   1.00
C330   C     0.71530   0.06370   0.70010   0.01267  Uiso   1.00
C331   C     0.73850   0.12790   0.74650   0.01267  Uiso   1.00
C332   C     0.79030   0.31650   0.94770   0.01267  Uiso   1.00
C333   C     0.76010   0.32400   0.99530   0.01267  Uiso   1.00
C334   C     0.79330   0.33200   0.05760   0.01267  Uiso   1.00
C335   C     0.76660   0.33840   0.09920   0.01267  Uiso   1.00
C336   C     0.71180   0.34710   0.08380   0.01267  Uiso   1.00
C337   C     0.68220   0.34650   0.02430   0.01267  Uiso   1.00
C338   C     0.70470   0.33320   0.98030   0.01267  Uiso   1.00
C339   C     0.85170   0.27380   0.22870   0.01267  Uiso   1.00
C340   C     0.89440   0.28780   0.19390   0.01267  Uiso   1.00
C341   C     0.88310   0.24960   0.13030   0.01267  Uiso   1.00
C342   C     0.93270   0.26650   0.11480   0.01267  Uiso   1.00
C343   C     0.99230   0.32690   0.15770   0.01267  Uiso   1.00
C344   C     0.00150   0.36770   0.21840   0.01267  Uiso   1.00
C345   C     0.95590   0.34560   0.23750   0.01267  Uiso   1.00
C346   C     0.75990   0.19390   0.22430   0.01267  Uiso   1.00
C347   C     0.71250   0.11870   0.18370   0.01267  Uiso   1.00
C348   C     0.65080   0.09640   0.13240   0.01267  Uiso   1.00
C349   C     0.60440   0.02970   0.09580   0.01267  Uiso   1.00
C350   C     0.61840   0.98350   0.10790   0.01267  Uiso   1.00
C351   C     0.67400   0.00700   0.16800   0.01267  Uiso   1.00
C352   C     0.72200   0.07320   0.20260   0.01267  Uiso   1.00
C353   C     0.81120   0.93650   0.93450   0.01267  Uiso   1.00
C354   C     0.75850   0.91520   0.95840   0.01267  Uiso   1.00
C355   C     0.72930   0.94880   0.98280   0.01267  Uiso   1.00
C356   C     0.69630   0.93600   0.01600   0.01267  Uiso   1.00
C357   C     0.68060   0.87840   0.01790   0.01267  Uiso   1.00
C358   C     0.70630   0.84460   0.99270   0.01267  Uiso   1.00
C359   C     0.74300   0.85980   0.96480   0.01267  Uiso   1.00
C360   C     0.88030   0.00760   0.91670   0.01267  Uiso   1.00
C361   C     0.91600   0.08810   0.94480   0.01267  Uiso   1.00
C362   C     0.88600   0.10950   0.90420   0.01267  Uiso   1.00
C363   C     0.91270   0.17640   0.92640   0.01267  Uiso   1.00
C364   C     0.97450   0.22080   0.98160   0.01267  Uiso   1.00
C365   C     0.01220   0.19820   0.01360   0.01267  Uiso   1.00
C366   C     0.98110   0.13240   0.99800   0.01267  Uiso   1.00
N1     N     0.35500   0.44980   0.99910   0.01267  Uiso   1.00
N2     N     0.39540   0.74460   0.24860   0.01267  Uiso   1.00
N3     N     0.69900   0.70740   0.30800   0.01267  Uiso   1.00
N4     N     0.44910   0.49300   0.34750   0.01267  Uiso   1.00
N5     N     0.50860   0.46630   0.87310   0.01267  Uiso   1.00
N6     N     0.39270   0.26240   0.73630   0.01267  Uiso   1.00
N7     N     0.48270   0.32780   0.94390   0.01267  Uiso   1.00
N8     N     0.19490   0.31050   0.22140   0.01267  Uiso   1.00
N9     N     0.99910   0.35500   0.44980   0.01267  Uiso   1.00
N10    N     0.24860   0.39540   0.74460   0.01267  Uiso   1.00
N11    N     0.30800   0.69900   0.70740   0.01267  Uiso   1.00
N12    N     0.34750   0.44910   0.49300   0.01267  Uiso   1.00
N13    N     0.87310   0.50860   0.46630   0.01267  Uiso   1.00
N14    N     0.73630   0.39270   0.26240   0.01267  Uiso   1.00
N15    N     0.94390   0.48270   0.32780   0.01267  Uiso   1.00
N16    N     0.22140   0.19490   0.31050   0.01267  Uiso   1.00
N17    N     0.44980   0.99910   0.35500   0.01267  Uiso   1.00
N18    N     0.74460   0.24860   0.39540   0.01267  Uiso   1.00
N19    N     0.70740   0.30800   0.69900   0.01267  Uiso   1.00
N20    N     0.49300   0.34750   0.44910   0.01267  Uiso   1.00
N21    N     0.46630   0.87310   0.50860   0.01267  Uiso   1.00
N22    N     0.26240   0.73630   0.39270   0.01267  Uiso   1.00
N23    N     0.32780   0.94390   0.48270   0.01267  Uiso   1.00
N24    N     0.31050   0.22140   0.19490   0.01267  Uiso   1.00
N25    N     0.94980   0.85500   0.49910   0.01267  Uiso   1.00
N26    N     0.24460   0.89540   0.74860   0.01267  Uiso   1.00
N27    N     0.20740   0.19900   0.80800   0.01267  Uiso   1.00
N28    N     0.99300   0.94910   0.84750   0.01267  Uiso   1.00
N29    N     0.96630   0.00860   0.37310   0.01267  Uiso   1.00
N30    N     0.76240   0.89270   0.23630   0.01267  Uiso   1.00
N31    N     0.82780   0.98270   0.44390   0.01267  Uiso   1.00
N32    N     0.81050   0.69490   0.72140   0.01267  Uiso   1.00
N33    N     0.85500   0.49910   0.94980   0.01267  Uiso   1.00
N34    N     0.89540   0.74860   0.24460   0.01267  Uiso   1.00
N35    N     0.19900   0.80800   0.20740   0.01267  Uiso   1.00
N36    N     0.94910   0.84750   0.99300   0.01267  Uiso   1.00
N37    N     0.00860   0.37310   0.96630   0.01267  Uiso   1.00
N38    N     0.89270   0.23630   0.76240   0.01267  Uiso   1.00
N39    N     0.98270   0.44390   0.82780   0.01267  Uiso   1.00
N40    N     0.69490   0.72140   0.81050   0.01267  Uiso   1.00
N41    N     0.49910   0.94980   0.85500   0.01267  Uiso   1.00
N42    N     0.74860   0.24460   0.89540   0.01267  Uiso   1.00
N43    N     0.80800   0.20740   0.19900   0.01267  Uiso   1.00
N44    N     0.84750   0.99300   0.94910   0.01267  Uiso   1.00
N45    N     0.37310   0.96630   0.00860   0.01267  Uiso   1.00
N46    N     0.23630   0.76240   0.89270   0.01267  Uiso   1.00
N47    N     0.44390   0.82780   0.98270   0.01267  Uiso   1.00
N48    N     0.72140   0.81050   0.69490   0.01267  Uiso   1.00
O1     O     0.45530   0.58360   0.11390   0.01267  Uiso   1.00
O2     O     0.38360   0.61990   0.22580   0.01267  Uiso   1.00
O3     O     0.58920   0.69080   0.32280   0.01267  Uiso   1.00
O4     O     0.48040   0.51170   0.24680   0.01267  Uiso   1.00
O5     O     0.39520   0.43250   0.93000   0.01267  Uiso   1.00
O6     O     0.34820   0.77270   0.31420   0.01267  Uiso   1.00
O7     O     0.77780   0.81880   0.35630   0.01267  Uiso   1.00
O8     O     0.39030   0.38510   0.30720   0.01267  Uiso   1.00
O9     O     0.51970   0.43960   0.90940   0.01267  Uiso   1.00
O10    O     0.44740   0.45020   0.83730   0.01267  Uiso   1.00
O11    O     0.55440   0.51990   0.88620   0.01267  Uiso   1.00
O12    O     0.35250   0.24090   0.75540   0.01267  Uiso   1.00
O13    O     0.43770   0.32480   0.77020   0.01267  Uiso   1.00
O14    O     0.39320   0.22230   0.68740   0.01267  Uiso   1.00
O15    O     0.46190   0.29570   0.88130   0.01267  Uiso   1.00
O16    O     0.46060   0.36640   0.96430   0.01267  Uiso   1.00
O17    O     0.52250   0.31980   0.98470   0.01267  Uiso   1.00
O18    O     0.25520   0.35270   0.24250   0.01267  Uiso   1.00
O19    O     0.18500   0.26770   0.24110   0.01267  Uiso   1.00
O20    O     0.14850   0.32150   0.19440   0.01267  Uiso   1.00
O21    O     0.11390   0.45530   0.58360   0.01267  Uiso   1.00
O22    O     0.22580   0.38360   0.61990   0.01267  Uiso   1.00
O23    O     0.32280   0.58920   0.69080   0.01267  Uiso   1.00
O24    O     0.24680   0.48040   0.51170   0.01267  Uiso   1.00
O25    O     0.93000   0.39520   0.43250   0.01267  Uiso   1.00
O26    O     0.31420   0.34820   0.77270   0.01267  Uiso   1.00
O27    O     0.35630   0.77780   0.81880   0.01267  Uiso   1.00
O28    O     0.30720   0.39030   0.38510   0.01267  Uiso   1.00
O29    O     0.90940   0.51970   0.43960   0.01267  Uiso   1.00
O30    O     0.83730   0.44740   0.45020   0.01267  Uiso   1.00
O31    O     0.88620   0.55440   0.51990   0.01267  Uiso   1.00
O32    O     0.75540   0.35250   0.24090   0.01267  Uiso   1.00
O33    O     0.77020   0.43770   0.32480   0.01267  Uiso   1.00
O34    O     0.68740   0.39320   0.22230   0.01267  Uiso   1.00
O35    O     0.88130   0.46190   0.29570   0.01267  Uiso   1.00
O36    O     0.96430   0.46060   0.36640   0.01267  Uiso   1.00
O37    O     0.98470   0.52250   0.31980   0.01267  Uiso   1.00
O38    O     0.24250   0.25520   0.35270   0.01267  Uiso   1.00
O39    O     0.24110   0.18500   0.26770   0.01267  Uiso   1.00
O40    O     0.19440   0.14850   0.32150   0.01267  Uiso   1.00
O41    O     0.58360   0.11390   0.45530   0.01267  Uiso   1.00
O42    O     0.61990   0.22580   0.38360   0.01267  Uiso   1.00
O43    O     0.69080   0.32280   0.58920   0.01267  Uiso   1.00
O44    O     0.51170   0.24680   0.48040   0.01267  Uiso   1.00
O45    O     0.43250   0.93000   0.39520   0.01267  Uiso   1.00
O46    O     0.77270   0.31420   0.34820   0.01267  Uiso   1.00
O47    O     0.81880   0.35630   0.77780   0.01267  Uiso   1.00
O48    O     0.38510   0.30720   0.39030   0.01267  Uiso   1.00
O49    O     0.43960   0.90940   0.51970   0.01267  Uiso   1.00
O50    O     0.45020   0.83730   0.44740   0.01267  Uiso   1.00
O51    O     0.51990   0.88620   0.55440   0.01267  Uiso   1.00
O52    O     0.24090   0.75540   0.35250   0.01267  Uiso   1.00
O53    O     0.32480   0.77020   0.43770   0.01267  Uiso   1.00
O54    O     0.22230   0.68740   0.39320   0.01267  Uiso   1.00
O55    O     0.29570   0.88130   0.46190   0.01267  Uiso   1.00
O56    O     0.36640   0.96430   0.46060   0.01267  Uiso   1.00
O57    O     0.31980   0.98470   0.52250   0.01267  Uiso   1.00
O58    O     0.35270   0.24250   0.25520   0.01267  Uiso   1.00
O59    O     0.26770   0.24110   0.18500   0.01267  Uiso   1.00
O60    O     0.32150   0.19440   0.14850   0.01267  Uiso   1.00
O61    O     0.08360   0.95530   0.61390   0.01267  Uiso   1.00
O62    O     0.11990   0.88360   0.72580   0.01267  Uiso   1.00
O63    O     0.19080   0.08920   0.82280   0.01267  Uiso   1.00
O64    O     0.01170   0.98040   0.74680   0.01267  Uiso   1.00
O65    O     0.93250   0.89520   0.43000   0.01267  Uiso   1.00
O66    O     0.27270   0.84820   0.81420   0.01267  Uiso   1.00
O67    O     0.31880   0.27780   0.85630   0.01267  Uiso   1.00
O68    O     0.88510   0.89030   0.80720   0.01267  Uiso   1.00
O69    O     0.93960   0.01970   0.40940   0.01267  Uiso   1.00
O70    O     0.95020   0.94740   0.33730   0.01267  Uiso   1.00
O71    O     0.01990   0.05440   0.38620   0.01267  Uiso   1.00
O72    O     0.74090   0.85250   0.25540   0.01267  Uiso   1.00
O73    O     0.82480   0.93770   0.27020   0.01267  Uiso   1.00
O74    O     0.72230   0.89320   0.18740   0.01267  Uiso   1.00
O75    O     0.79570   0.96190   0.38130   0.01267  Uiso   1.00
O76    O     0.86640   0.96060   0.46430   0.01267  Uiso   1.00
O77    O     0.81980   0.02250   0.48470   0.01267  Uiso   1.00
O78    O     0.85270   0.75520   0.74250   0.01267  Uiso   1.00
O79    O     0.76770   0.68500   0.74110   0.01267  Uiso   1.00
O80    O     0.82150   0.64850   0.69440   0.01267  Uiso   1.00
O81    O     0.95530   0.61390   0.08360   0.01267  Uiso   1.00
O82    O     0.88360   0.72580   0.11990   0.01267  Uiso   1.00
O83    O     0.08920   0.82280   0.19080   0.01267  Uiso   1.00
O84    O     0.98040   0.74680   0.01170   0.01267  Uiso   1.00
O85    O     0.89520   0.43000   0.93250   0.01267  Uiso   1.00
O86    O     0.84820   0.81420   0.27270   0.01267  Uiso   1.00
O87    O     0.27780   0.85630   0.31880   0.01267  Uiso   1.00
O88    O     0.89030   0.80720   0.88510   0.01267  Uiso   1.00
O89    O     0.01970   0.40940   0.93960   0.01267  Uiso   1.00
O90    O     0.94740   0.33730   0.95020   0.01267  Uiso   1.00
O91    O     0.05440   0.38620   0.01990   0.01267  Uiso   1.00
O92    O     0.85250   0.25540   0.74090   0.01267  Uiso   1.00
O93    O     0.93770   0.27020   0.82480   0.01267  Uiso   1.00
O94    O     0.89320   0.18740   0.72230   0.01267  Uiso   1.00
O95    O     0.96190   0.38130   0.79570   0.01267  Uiso   1.00
O96    O     0.96060   0.46430   0.86640   0.01267  Uiso   1.00
O97    O     0.02250   0.48470   0.81980   0.01267  Uiso   1.00
O98    O     0.75520   0.74250   0.85270   0.01267  Uiso   1.00
O99    O     0.68500   0.74110   0.76770   0.01267  Uiso   1.00
O100   O     0.64850   0.69440   0.82150   0.01267  Uiso   1.00
O101   O     0.61390   0.08360   0.95530   0.01267  Uiso   1.00
O102   O     0.72580   0.11990   0.88360   0.01267  Uiso   1.00
O103   O     0.82280   0.19080   0.08920   0.01267  Uiso   1.00
O104   O     0.74680   0.01170   0.98040   0.01267  Uiso   1.00
O105   O     0.43000   0.93250   0.89520   0.01267  Uiso   1.00
O106   O     0.81420   0.27270   0.84820   0.01267  Uiso   1.00
O107   O     0.85630   0.31880   0.27780   0.01267  Uiso   1.00
O108   O     0.80720   0.88510   0.89030   0.01267  Uiso   1.00
O109   O     0.40940   0.93960   0.01970   0.01267  Uiso   1.00
O110   O     0.33730   0.95020   0.94740   0.01267  Uiso   1.00
O111   O     0.38620   0.01990   0.05440   0.01267  Uiso   1.00
O112   O     0.25540   0.74090   0.85250   0.01267  Uiso   1.00
O113   O     0.27020   0.82480   0.93770   0.01267  Uiso   1.00
O114   O     0.18740   0.72230   0.89320   0.01267  Uiso   1.00
O115   O     0.38130   0.79570   0.96190   0.01267  Uiso   1.00
O116   O     0.46430   0.86640   0.96060   0.01267  Uiso   1.00
O117   O     0.48470   0.81980   0.02250   0.01267  Uiso   1.00
O118   O     0.74250   0.85270   0.75520   0.01267  Uiso   1.00
O119   O     0.74110   0.76770   0.68500   0.01267  Uiso   1.00
O120   O     0.69440   0.82150   0.64850   0.01267  Uiso   1.00
