data_LOQSEQ_clean
_audit_creation_date              2014-07-02
_audit_creation_method            'Materials Studio'
_symmetry_space_group_name_H-M    'P1'
_symmetry_Int_Tables_number       1
_symmetry_cell_setting            triclinic
loop_
_symmetry_equiv_pos_as_xyz
  x,y,z
_cell_length_a                    24.2501
_cell_length_b                    24.2501
_cell_length_c                    24.2501
_cell_angle_alpha                 109.4580
_cell_angle_beta                  109.4580
_cell_angle_gamma                 109.4580
loop_
_atom_site_label
_atom_site_type_symbol
_atom_site_fract_x
_atom_site_fract_y
_atom_site_fract_z
_atom_site_U_iso_or_equiv
_atom_site_adp_type
_atom_site_occupancy
Pr1    Pr    0.40159   0.35083   0.85048   0.01267  Uiso   1.00
Pr2    Pr    0.85048   0.40159   0.35083   0.01267  Uiso   1.00
Pr3    Pr    0.35083   0.85048   0.40159   0.01267  Uiso   1.00
Pr4    Pr    0.85083   0.90159   0.35048   0.01267  Uiso   1.00
Pr5    Pr    0.90159   0.35048   0.85083   0.01267  Uiso   1.00
Pr6    Pr    0.35048   0.85083   0.90159   0.01267  Uiso   1.00
Pr7    Pr    0.29937   0.29937   0.29937   0.01267  Uiso   1.00
Pr8    Pr    0.79937   0.79937   0.79937   0.01267  Uiso   1.00
H1     H     0.33210   0.47140   0.01270   0.01267  Uiso   1.00
H2     H     0.38260   0.70100   0.20600   0.01267  Uiso   1.00
H3     H     0.67550   0.67390   0.31250   0.01267  Uiso   1.00
H4     H     0.50730   0.52640   0.37800   0.01267  Uiso   1.00
H5     H     0.53350   0.66640   0.20790   0.01267  Uiso   1.00
H6     H     0.46310   0.66120   0.19230   0.01267  Uiso   1.00
H7     H     0.39050   0.53260   0.21980   0.01267  Uiso   1.00
H8     H     0.37410   0.53800   0.15400   0.01267  Uiso   1.00
H9     H     0.52130   0.62730   0.33150   0.01267  Uiso   1.00
H10    H     0.49930   0.67840   0.31890   0.01267  Uiso   1.00
H11    H     0.54930   0.57180   0.24170   0.01267  Uiso   1.00
H12    H     0.48280   0.52010   0.17210   0.01267  Uiso   1.00
H13    H     0.52060   0.69570   0.13390   0.01267  Uiso   1.00
H14    H     0.55780   0.72800   0.06710   0.01267  Uiso   1.00
H15    H     0.51570   0.64910   0.95740   0.01267  Uiso   1.00
H16    H     0.43990   0.53600   0.91530   0.01267  Uiso   1.00
H17    H     0.32650   0.35560   0.94990   0.01267  Uiso   1.00
H18    H     0.39550   0.40000   0.01920   0.01267  Uiso   1.00
H19    H     0.36310   0.37100   0.10850   0.01267  Uiso   1.00
H20    H     0.28500   0.35530   0.14500   0.01267  Uiso   1.00
H21    H     0.18640   0.35280   0.08650   0.01267  Uiso   1.00
H22    H     0.16860   0.37150   0.99680   0.01267  Uiso   1.00
H23    H     0.24630   0.38550   0.95940   0.01267  Uiso   1.00
H24    H     0.28290   0.49000   0.16570   0.01267  Uiso   1.00
H25    H     0.17440   0.46140   0.15190   0.01267  Uiso   1.00
H26    H     0.15060   0.54310   0.19450   0.01267  Uiso   1.00
H27    H     0.23170   0.65780   0.24710   0.01267  Uiso   1.00
H28    H     0.41840   0.82660   0.28430   0.01267  Uiso   1.00
H29    H     0.46270   0.80970   0.33220   0.01267  Uiso   1.00
H30    H     0.56470   0.82880   0.34220   0.01267  Uiso   1.00
H31    H     0.64390   0.86070   0.31090   0.01267  Uiso   1.00
H32    H     0.61590   0.86600   0.21270   0.01267  Uiso   1.00
H33    H     0.50850   0.84520   0.14860   0.01267  Uiso   1.00
H34    H     0.42990   0.81430   0.18160   0.01267  Uiso   1.00
H35    H     0.55900   0.74210   0.41330   0.01267  Uiso   1.00
H36    H     0.63560   0.83480   0.52120   0.01267  Uiso   1.00
H37    H     0.74710   0.89490   0.55210   0.01267  Uiso   1.00
H38    H     0.77790   0.87040   0.46930   0.01267  Uiso   1.00
H39    H     0.76070   0.72600   0.27090   0.01267  Uiso   1.00
H40    H     0.69370   0.72590   0.23240   0.01267  Uiso   1.00
H41    H     0.59120   0.59360   0.12610   0.01267  Uiso   1.00
H42    H     0.56410   0.48370   0.07800   0.01267  Uiso   1.00
H43    H     0.64100   0.45310   0.12950   0.01267  Uiso   1.00
H44    H     0.73800   0.53440   0.23080   0.01267  Uiso   1.00
H45    H     0.76220   0.64520   0.27880   0.01267  Uiso   1.00
H46    H     0.51180   0.45580   0.15880   0.01267  Uiso   1.00
H47    H     0.53500   0.36940   0.14940   0.01267  Uiso   1.00
H48    H     0.51420   0.31560   0.20990   0.01267  Uiso   1.00
H49    H     0.46910   0.34970   0.27730   0.01267  Uiso   1.00
H50    H     0.37620   0.48840   0.33110   0.01267  Uiso   1.00
H51    H     0.40890   0.49010   0.39960   0.01267  Uiso   1.00
H52    H     0.36550   0.57740   0.33560   0.01267  Uiso   1.00
H53    H     0.39850   0.69180   0.39460   0.01267  Uiso   1.00
H54    H     0.48840   0.75990   0.50210   0.01267  Uiso   1.00
H55    H     0.54910   0.71760   0.55240   0.01267  Uiso   1.00
H56    H     0.51670   0.60470   0.49340   0.01267  Uiso   1.00
H57    H     0.01270   0.33210   0.47140   0.01267  Uiso   1.00
H58    H     0.20600   0.38260   0.70100   0.01267  Uiso   1.00
H59    H     0.31250   0.67550   0.67390   0.01267  Uiso   1.00
H60    H     0.37800   0.50730   0.52640   0.01267  Uiso   1.00
H61    H     0.20790   0.53350   0.66640   0.01267  Uiso   1.00
H62    H     0.19230   0.46310   0.66120   0.01267  Uiso   1.00
H63    H     0.21980   0.39050   0.53260   0.01267  Uiso   1.00
H64    H     0.15400   0.37410   0.53800   0.01267  Uiso   1.00
H65    H     0.33150   0.52130   0.62730   0.01267  Uiso   1.00
H66    H     0.31890   0.49930   0.67840   0.01267  Uiso   1.00
H67    H     0.24170   0.54930   0.57180   0.01267  Uiso   1.00
H68    H     0.17210   0.48280   0.52010   0.01267  Uiso   1.00
H69    H     0.13390   0.52060   0.69570   0.01267  Uiso   1.00
H70    H     0.06710   0.55780   0.72800   0.01267  Uiso   1.00
H71    H     0.95740   0.51570   0.64910   0.01267  Uiso   1.00
H72    H     0.91530   0.43990   0.53600   0.01267  Uiso   1.00
H73    H     0.94990   0.32650   0.35560   0.01267  Uiso   1.00
H74    H     0.01920   0.39550   0.40000   0.01267  Uiso   1.00
H75    H     0.10850   0.36310   0.37100   0.01267  Uiso   1.00
H76    H     0.14500   0.28500   0.35530   0.01267  Uiso   1.00
H77    H     0.08650   0.18640   0.35280   0.01267  Uiso   1.00
H78    H     0.99680   0.16860   0.37150   0.01267  Uiso   1.00
H79    H     0.95940   0.24630   0.38550   0.01267  Uiso   1.00
H80    H     0.16570   0.28290   0.49000   0.01267  Uiso   1.00
H81    H     0.15190   0.17440   0.46140   0.01267  Uiso   1.00
H82    H     0.19450   0.15060   0.54310   0.01267  Uiso   1.00
H83    H     0.24710   0.23170   0.65780   0.01267  Uiso   1.00
H84    H     0.28430   0.41840   0.82660   0.01267  Uiso   1.00
H85    H     0.33220   0.46270   0.80970   0.01267  Uiso   1.00
H86    H     0.34220   0.56470   0.82880   0.01267  Uiso   1.00
H87    H     0.31090   0.64390   0.86070   0.01267  Uiso   1.00
H88    H     0.21270   0.61590   0.86600   0.01267  Uiso   1.00
H89    H     0.14860   0.50850   0.84520   0.01267  Uiso   1.00
H90    H     0.18160   0.42990   0.81430   0.01267  Uiso   1.00
H91    H     0.41330   0.55900   0.74210   0.01267  Uiso   1.00
H92    H     0.52120   0.63560   0.83480   0.01267  Uiso   1.00
H93    H     0.55210   0.74710   0.89490   0.01267  Uiso   1.00
H94    H     0.46930   0.77790   0.87040   0.01267  Uiso   1.00
H95    H     0.27090   0.76070   0.72600   0.01267  Uiso   1.00
H96    H     0.23240   0.69370   0.72590   0.01267  Uiso   1.00
H97    H     0.12610   0.59120   0.59360   0.01267  Uiso   1.00
H98    H     0.07800   0.56410   0.48370   0.01267  Uiso   1.00
H99    H     0.12950   0.64100   0.45310   0.01267  Uiso   1.00
H100   H     0.23080   0.73800   0.53440   0.01267  Uiso   1.00
H101   H     0.27880   0.76220   0.64520   0.01267  Uiso   1.00
H102   H     0.15880   0.51180   0.45580   0.01267  Uiso   1.00
H103   H     0.14940   0.53500   0.36940   0.01267  Uiso   1.00
H104   H     0.20990   0.51420   0.31560   0.01267  Uiso   1.00
H105   H     0.27730   0.46910   0.34970   0.01267  Uiso   1.00
H106   H     0.33110   0.37620   0.48840   0.01267  Uiso   1.00
H107   H     0.39960   0.40890   0.49010   0.01267  Uiso   1.00
H108   H     0.33560   0.36550   0.57740   0.01267  Uiso   1.00
H109   H     0.39460   0.39850   0.69180   0.01267  Uiso   1.00
H110   H     0.50210   0.48840   0.75990   0.01267  Uiso   1.00
H111   H     0.55240   0.54910   0.71760   0.01267  Uiso   1.00
H112   H     0.49340   0.51670   0.60470   0.01267  Uiso   1.00
H113   H     0.47140   0.01270   0.33210   0.01267  Uiso   1.00
H114   H     0.70100   0.20600   0.38260   0.01267  Uiso   1.00
H115   H     0.67390   0.31250   0.67550   0.01267  Uiso   1.00
H116   H     0.52640   0.37800   0.50730   0.01267  Uiso   1.00
H117   H     0.66640   0.20790   0.53350   0.01267  Uiso   1.00
H118   H     0.66120   0.19230   0.46310   0.01267  Uiso   1.00
H119   H     0.53260   0.21980   0.39050   0.01267  Uiso   1.00
H120   H     0.53800   0.15400   0.37410   0.01267  Uiso   1.00
H121   H     0.62730   0.33150   0.52130   0.01267  Uiso   1.00
H122   H     0.67840   0.31890   0.49930   0.01267  Uiso   1.00
H123   H     0.57180   0.24170   0.54930   0.01267  Uiso   1.00
H124   H     0.52010   0.17210   0.48280   0.01267  Uiso   1.00
H125   H     0.69570   0.13390   0.52060   0.01267  Uiso   1.00
H126   H     0.72800   0.06710   0.55780   0.01267  Uiso   1.00
H127   H     0.64910   0.95740   0.51570   0.01267  Uiso   1.00
H128   H     0.53600   0.91530   0.43990   0.01267  Uiso   1.00
H129   H     0.35560   0.94990   0.32650   0.01267  Uiso   1.00
H130   H     0.40000   0.01920   0.39550   0.01267  Uiso   1.00
H131   H     0.37100   0.10850   0.36310   0.01267  Uiso   1.00
H132   H     0.35530   0.14500   0.28500   0.01267  Uiso   1.00
H133   H     0.35280   0.08650   0.18640   0.01267  Uiso   1.00
H134   H     0.37150   0.99680   0.16860   0.01267  Uiso   1.00
H135   H     0.38550   0.95940   0.24630   0.01267  Uiso   1.00
H136   H     0.49000   0.16570   0.28290   0.01267  Uiso   1.00
H137   H     0.46140   0.15190   0.17440   0.01267  Uiso   1.00
H138   H     0.54310   0.19450   0.15060   0.01267  Uiso   1.00
H139   H     0.65780   0.24710   0.23170   0.01267  Uiso   1.00
H140   H     0.82660   0.28430   0.41840   0.01267  Uiso   1.00
H141   H     0.80970   0.33220   0.46270   0.01267  Uiso   1.00
H142   H     0.82880   0.34220   0.56470   0.01267  Uiso   1.00
H143   H     0.86070   0.31090   0.64390   0.01267  Uiso   1.00
H144   H     0.86600   0.21270   0.61590   0.01267  Uiso   1.00
H145   H     0.84520   0.14860   0.50850   0.01267  Uiso   1.00
H146   H     0.81430   0.18160   0.42990   0.01267  Uiso   1.00
H147   H     0.74210   0.41330   0.55900   0.01267  Uiso   1.00
H148   H     0.83480   0.52120   0.63560   0.01267  Uiso   1.00
H149   H     0.89490   0.55210   0.74710   0.01267  Uiso   1.00
H150   H     0.87040   0.46930   0.77790   0.01267  Uiso   1.00
H151   H     0.72600   0.27090   0.76070   0.01267  Uiso   1.00
H152   H     0.72590   0.23240   0.69370   0.01267  Uiso   1.00
H153   H     0.59360   0.12610   0.59120   0.01267  Uiso   1.00
H154   H     0.48370   0.07800   0.56410   0.01267  Uiso   1.00
H155   H     0.45310   0.12950   0.64100   0.01267  Uiso   1.00
H156   H     0.53440   0.23080   0.73800   0.01267  Uiso   1.00
H157   H     0.64520   0.27880   0.76220   0.01267  Uiso   1.00
H158   H     0.45580   0.15880   0.51180   0.01267  Uiso   1.00
H159   H     0.36940   0.14940   0.53500   0.01267  Uiso   1.00
H160   H     0.31560   0.20990   0.51420   0.01267  Uiso   1.00
H161   H     0.34970   0.27730   0.46910   0.01267  Uiso   1.00
H162   H     0.48840   0.33110   0.37620   0.01267  Uiso   1.00
H163   H     0.49010   0.39960   0.40890   0.01267  Uiso   1.00
H164   H     0.57740   0.33560   0.36550   0.01267  Uiso   1.00
H165   H     0.69180   0.39460   0.39850   0.01267  Uiso   1.00
H166   H     0.75990   0.50210   0.48840   0.01267  Uiso   1.00
H167   H     0.71760   0.55240   0.54910   0.01267  Uiso   1.00
H168   H     0.60470   0.49340   0.51670   0.01267  Uiso   1.00
H169   H     0.97140   0.83210   0.51270   0.01267  Uiso   1.00
H170   H     0.20100   0.88260   0.70600   0.01267  Uiso   1.00
H171   H     0.17390   0.17550   0.81250   0.01267  Uiso   1.00
H172   H     0.02640   0.00730   0.87800   0.01267  Uiso   1.00
H173   H     0.16640   0.03350   0.70790   0.01267  Uiso   1.00
H174   H     0.16120   0.96310   0.69230   0.01267  Uiso   1.00
H175   H     0.03260   0.89050   0.71980   0.01267  Uiso   1.00
H176   H     0.03800   0.87410   0.65400   0.01267  Uiso   1.00
H177   H     0.12730   0.02130   0.83150   0.01267  Uiso   1.00
H178   H     0.17840   0.99930   0.81890   0.01267  Uiso   1.00
H179   H     0.07180   0.04930   0.74170   0.01267  Uiso   1.00
H180   H     0.02010   0.98280   0.67210   0.01267  Uiso   1.00
H181   H     0.19570   0.02060   0.63390   0.01267  Uiso   1.00
H182   H     0.22800   0.05780   0.56710   0.01267  Uiso   1.00
H183   H     0.14910   0.01570   0.45740   0.01267  Uiso   1.00
H184   H     0.03600   0.93990   0.41530   0.01267  Uiso   1.00
H185   H     0.85560   0.82650   0.44990   0.01267  Uiso   1.00
H186   H     0.90000   0.89550   0.51920   0.01267  Uiso   1.00
H187   H     0.87100   0.86310   0.60850   0.01267  Uiso   1.00
H188   H     0.85530   0.78500   0.64500   0.01267  Uiso   1.00
H189   H     0.85280   0.68640   0.58650   0.01267  Uiso   1.00
H190   H     0.87150   0.66860   0.49680   0.01267  Uiso   1.00
H191   H     0.88550   0.74630   0.45940   0.01267  Uiso   1.00
H192   H     0.99000   0.78290   0.66570   0.01267  Uiso   1.00
H193   H     0.96140   0.67440   0.65190   0.01267  Uiso   1.00
H194   H     0.04310   0.65060   0.69450   0.01267  Uiso   1.00
H195   H     0.15780   0.73170   0.74710   0.01267  Uiso   1.00
H196   H     0.32660   0.91840   0.78430   0.01267  Uiso   1.00
H197   H     0.30970   0.96270   0.83220   0.01267  Uiso   1.00
H198   H     0.32880   0.06470   0.84220   0.01267  Uiso   1.00
H199   H     0.36070   0.14390   0.81090   0.01267  Uiso   1.00
H200   H     0.36600   0.11590   0.71270   0.01267  Uiso   1.00
H201   H     0.34520   0.00850   0.64860   0.01267  Uiso   1.00
H202   H     0.31430   0.92990   0.68160   0.01267  Uiso   1.00
H203   H     0.24210   0.05900   0.91330   0.01267  Uiso   1.00
H204   H     0.33480   0.13560   0.02120   0.01267  Uiso   1.00
H205   H     0.39490   0.24710   0.05210   0.01267  Uiso   1.00
H206   H     0.37040   0.27790   0.96930   0.01267  Uiso   1.00
H207   H     0.22600   0.26070   0.77090   0.01267  Uiso   1.00
H208   H     0.22590   0.19370   0.73240   0.01267  Uiso   1.00
H209   H     0.09360   0.09120   0.62610   0.01267  Uiso   1.00
H210   H     0.98370   0.06410   0.57800   0.01267  Uiso   1.00
H211   H     0.95310   0.14100   0.62950   0.01267  Uiso   1.00
H212   H     0.03440   0.23800   0.73080   0.01267  Uiso   1.00
H213   H     0.14520   0.26220   0.77880   0.01267  Uiso   1.00
H214   H     0.95580   0.01180   0.65880   0.01267  Uiso   1.00
H215   H     0.86940   0.03500   0.64940   0.01267  Uiso   1.00
H216   H     0.81560   0.01420   0.70990   0.01267  Uiso   1.00
H217   H     0.84970   0.96910   0.77730   0.01267  Uiso   1.00
H218   H     0.98840   0.87620   0.83110   0.01267  Uiso   1.00
H219   H     0.99010   0.90890   0.89960   0.01267  Uiso   1.00
H220   H     0.07740   0.86550   0.83560   0.01267  Uiso   1.00
H221   H     0.19180   0.89850   0.89460   0.01267  Uiso   1.00
H222   H     0.25990   0.98840   0.00210   0.01267  Uiso   1.00
H223   H     0.21760   0.04910   0.05240   0.01267  Uiso   1.00
H224   H     0.10470   0.01670   0.99340   0.01267  Uiso   1.00
H225   H     0.83210   0.51270   0.97140   0.01267  Uiso   1.00
H226   H     0.88260   0.70600   0.20100   0.01267  Uiso   1.00
H227   H     0.17550   0.81250   0.17390   0.01267  Uiso   1.00
H228   H     0.00730   0.87800   0.02640   0.01267  Uiso   1.00
H229   H     0.03350   0.70790   0.16640   0.01267  Uiso   1.00
H230   H     0.96310   0.69230   0.16120   0.01267  Uiso   1.00
H231   H     0.89050   0.71980   0.03260   0.01267  Uiso   1.00
H232   H     0.87410   0.65400   0.03800   0.01267  Uiso   1.00
H233   H     0.02130   0.83150   0.12730   0.01267  Uiso   1.00
H234   H     0.99930   0.81890   0.17840   0.01267  Uiso   1.00
H235   H     0.04930   0.74170   0.07180   0.01267  Uiso   1.00
H236   H     0.98280   0.67210   0.02010   0.01267  Uiso   1.00
H237   H     0.02060   0.63390   0.19570   0.01267  Uiso   1.00
H238   H     0.05780   0.56710   0.22800   0.01267  Uiso   1.00
H239   H     0.01570   0.45740   0.14910   0.01267  Uiso   1.00
H240   H     0.93990   0.41530   0.03600   0.01267  Uiso   1.00
H241   H     0.82650   0.44990   0.85560   0.01267  Uiso   1.00
H242   H     0.89550   0.51920   0.90000   0.01267  Uiso   1.00
H243   H     0.86310   0.60850   0.87100   0.01267  Uiso   1.00
H244   H     0.78500   0.64500   0.85530   0.01267  Uiso   1.00
H245   H     0.68640   0.58650   0.85280   0.01267  Uiso   1.00
H246   H     0.66860   0.49680   0.87150   0.01267  Uiso   1.00
H247   H     0.74630   0.45940   0.88550   0.01267  Uiso   1.00
H248   H     0.78290   0.66570   0.99000   0.01267  Uiso   1.00
H249   H     0.67440   0.65190   0.96140   0.01267  Uiso   1.00
H250   H     0.65060   0.69450   0.04310   0.01267  Uiso   1.00
H251   H     0.73170   0.74710   0.15780   0.01267  Uiso   1.00
H252   H     0.91840   0.78430   0.32660   0.01267  Uiso   1.00
H253   H     0.96270   0.83220   0.30970   0.01267  Uiso   1.00
H254   H     0.06470   0.84220   0.32880   0.01267  Uiso   1.00
H255   H     0.14390   0.81090   0.36070   0.01267  Uiso   1.00
H256   H     0.11590   0.71270   0.36600   0.01267  Uiso   1.00
H257   H     0.00850   0.64860   0.34520   0.01267  Uiso   1.00
H258   H     0.92990   0.68160   0.31430   0.01267  Uiso   1.00
H259   H     0.05900   0.91330   0.24210   0.01267  Uiso   1.00
H260   H     0.13560   0.02120   0.33480   0.01267  Uiso   1.00
H261   H     0.24710   0.05210   0.39490   0.01267  Uiso   1.00
H262   H     0.27790   0.96930   0.37040   0.01267  Uiso   1.00
H263   H     0.26070   0.77090   0.22600   0.01267  Uiso   1.00
H264   H     0.19370   0.73240   0.22590   0.01267  Uiso   1.00
H265   H     0.09120   0.62610   0.09360   0.01267  Uiso   1.00
H266   H     0.06410   0.57800   0.98370   0.01267  Uiso   1.00
H267   H     0.14100   0.62950   0.95310   0.01267  Uiso   1.00
H268   H     0.23800   0.73080   0.03440   0.01267  Uiso   1.00
H269   H     0.26220   0.77880   0.14520   0.01267  Uiso   1.00
H270   H     0.01180   0.65880   0.95580   0.01267  Uiso   1.00
H271   H     0.03500   0.64940   0.86940   0.01267  Uiso   1.00
H272   H     0.01420   0.70990   0.81560   0.01267  Uiso   1.00
H273   H     0.96910   0.77730   0.84970   0.01267  Uiso   1.00
H274   H     0.87620   0.83110   0.98840   0.01267  Uiso   1.00
H275   H     0.90890   0.89960   0.99010   0.01267  Uiso   1.00
H276   H     0.86550   0.83560   0.07740   0.01267  Uiso   1.00
H277   H     0.89850   0.89460   0.19180   0.01267  Uiso   1.00
H278   H     0.98840   0.00210   0.25990   0.01267  Uiso   1.00
H279   H     0.04910   0.05240   0.21760   0.01267  Uiso   1.00
H280   H     0.01670   0.99340   0.10470   0.01267  Uiso   1.00
H281   H     0.51270   0.97140   0.83210   0.01267  Uiso   1.00
H282   H     0.70600   0.20100   0.88260   0.01267  Uiso   1.00
H283   H     0.81250   0.17390   0.17550   0.01267  Uiso   1.00
H284   H     0.87800   0.02640   0.00730   0.01267  Uiso   1.00
H285   H     0.70790   0.16640   0.03350   0.01267  Uiso   1.00
H286   H     0.69230   0.16120   0.96310   0.01267  Uiso   1.00
H287   H     0.71980   0.03260   0.89050   0.01267  Uiso   1.00
H288   H     0.65400   0.03800   0.87410   0.01267  Uiso   1.00
H289   H     0.83150   0.12730   0.02130   0.01267  Uiso   1.00
H290   H     0.81890   0.17840   0.99930   0.01267  Uiso   1.00
H291   H     0.74170   0.07180   0.04930   0.01267  Uiso   1.00
H292   H     0.67210   0.02010   0.98280   0.01267  Uiso   1.00
H293   H     0.63390   0.19570   0.02060   0.01267  Uiso   1.00
H294   H     0.56710   0.22800   0.05780   0.01267  Uiso   1.00
H295   H     0.45740   0.14910   0.01570   0.01267  Uiso   1.00
H296   H     0.41530   0.03600   0.93990   0.01267  Uiso   1.00
H297   H     0.44990   0.85560   0.82650   0.01267  Uiso   1.00
H298   H     0.51920   0.90000   0.89550   0.01267  Uiso   1.00
H299   H     0.60850   0.87100   0.86310   0.01267  Uiso   1.00
H300   H     0.64500   0.85530   0.78500   0.01267  Uiso   1.00
H301   H     0.58650   0.85280   0.68640   0.01267  Uiso   1.00
H302   H     0.49680   0.87150   0.66860   0.01267  Uiso   1.00
H303   H     0.45940   0.88550   0.74630   0.01267  Uiso   1.00
H304   H     0.66570   0.99000   0.78290   0.01267  Uiso   1.00
H305   H     0.65190   0.96140   0.67440   0.01267  Uiso   1.00
H306   H     0.69450   0.04310   0.65060   0.01267  Uiso   1.00
H307   H     0.74710   0.15780   0.73170   0.01267  Uiso   1.00
H308   H     0.78430   0.32660   0.91840   0.01267  Uiso   1.00
H309   H     0.83220   0.30970   0.96270   0.01267  Uiso   1.00
H310   H     0.84220   0.32880   0.06470   0.01267  Uiso   1.00
H311   H     0.81090   0.36070   0.14390   0.01267  Uiso   1.00
H312   H     0.71270   0.36600   0.11590   0.01267  Uiso   1.00
H313   H     0.64860   0.34520   0.00850   0.01267  Uiso   1.00
H314   H     0.68160   0.31430   0.92990   0.01267  Uiso   1.00
H315   H     0.91330   0.24210   0.05900   0.01267  Uiso   1.00
H316   H     0.02120   0.33480   0.13560   0.01267  Uiso   1.00
H317   H     0.05210   0.39490   0.24710   0.01267  Uiso   1.00
H318   H     0.96930   0.37040   0.27790   0.01267  Uiso   1.00
H319   H     0.77090   0.22600   0.26070   0.01267  Uiso   1.00
H320   H     0.73240   0.22590   0.19370   0.01267  Uiso   1.00
H321   H     0.62610   0.09360   0.09120   0.01267  Uiso   1.00
H322   H     0.57800   0.98370   0.06410   0.01267  Uiso   1.00
H323   H     0.62950   0.95310   0.14100   0.01267  Uiso   1.00
H324   H     0.73080   0.03440   0.23800   0.01267  Uiso   1.00
H325   H     0.77880   0.14520   0.26220   0.01267  Uiso   1.00
H326   H     0.65880   0.95580   0.01180   0.01267  Uiso   1.00
H327   H     0.64940   0.86940   0.03500   0.01267  Uiso   1.00
H328   H     0.70990   0.81560   0.01420   0.01267  Uiso   1.00
H329   H     0.77730   0.84970   0.96910   0.01267  Uiso   1.00
H330   H     0.83110   0.98840   0.87620   0.01267  Uiso   1.00
H331   H     0.89960   0.99010   0.90890   0.01267  Uiso   1.00
H332   H     0.83560   0.07740   0.86550   0.01267  Uiso   1.00
H333   H     0.89460   0.19180   0.89850   0.01267  Uiso   1.00
H334   H     0.00210   0.25990   0.98840   0.01267  Uiso   1.00
H335   H     0.05240   0.21760   0.04910   0.01267  Uiso   1.00
H336   H     0.99340   0.10470   0.01670   0.01267  Uiso   1.00
C1     C     0.47920   0.60070   0.22710   0.01267  Uiso   1.00
C2     C     0.48620   0.63520   0.18890   0.01267  Uiso   1.00
C3     C     0.40040   0.56360   0.20290   0.01267  Uiso   1.00
C4     C     0.52010   0.65180   0.30700   0.01267  Uiso   1.00
C5     C     0.50040   0.54920   0.21960   0.01267  Uiso   1.00
C6     C     0.38950   0.47930   0.97170   0.01267  Uiso   1.00
C7     C     0.43680   0.55030   0.00040   0.01267  Uiso   1.00
C8     C     0.46040   0.59660   0.06490   0.01267  Uiso   1.00
C9     C     0.50500   0.66360   0.09010   0.01267  Uiso   1.00
C10    C     0.52670   0.68310   0.04980   0.01267  Uiso   1.00
C11    C     0.50210   0.63620   0.98480   0.01267  Uiso   1.00
C12    C     0.45650   0.56830   0.95940   0.01267  Uiso   1.00
C13    C     0.35050   0.39280   0.99580   0.01267  Uiso   1.00
C14    C     0.31280   0.38060   0.03250   0.01267  Uiso   1.00
C15    C     0.32370   0.37110   0.08600   0.01267  Uiso   1.00
C16    C     0.27690   0.36120   0.10760   0.01267  Uiso   1.00
C17    C     0.21870   0.36050   0.07320   0.01267  Uiso   1.00
C18    C     0.20760   0.37070   0.01890   0.01267  Uiso   1.00
C19    C     0.25420   0.38000   0.99690   0.01267  Uiso   1.00
C20    C     0.35370   0.71570   0.27600   0.01267  Uiso   1.00
C21    C     0.30520   0.64100   0.23960   0.01267  Uiso   1.00
C22    C     0.31890   0.59150   0.21510   0.01267  Uiso   1.00
C23    C     0.27210   0.52300   0.18190   0.01267  Uiso   1.00
C24    C     0.20740   0.50650   0.17430   0.01267  Uiso   1.00
C25    C     0.19310   0.55500   0.19890   0.01267  Uiso   1.00
C26    C     0.24220   0.62440   0.23160   0.01267  Uiso   1.00
C27    C     0.44010   0.79970   0.28590   0.01267  Uiso   1.00
C28    C     0.49010   0.81880   0.26540   0.01267  Uiso   1.00
C29    C     0.55330   0.83220   0.30340   0.01267  Uiso   1.00
C30    C     0.60020   0.85060   0.28430   0.01267  Uiso   1.00
C31    C     0.58380   0.85460   0.22590   0.01267  Uiso   1.00
C32    C     0.51990   0.84170   0.18750   0.01267  Uiso   1.00
C33    C     0.47330   0.82360   0.20750   0.01267  Uiso   1.00
C34    C     0.72610   0.77360   0.35870   0.01267  Uiso   1.00
C35    C     0.68970   0.78660   0.39680   0.01267  Uiso   1.00
C36    C     0.62660   0.74300   0.38260   0.01267  Uiso   1.00
C37    C     0.60450   0.76510   0.42640   0.01267  Uiso   1.00
C38    C     0.65010   0.82220   0.49050   0.01267  Uiso   1.00
C39    C     0.71560   0.85930   0.50820   0.01267  Uiso   1.00
C40    C     0.73460   0.84290   0.45940   0.01267  Uiso   1.00
C41    C     0.71250   0.70450   0.25450   0.01267  Uiso   1.00
C42    C     0.67820   0.62950   0.20690   0.01267  Uiso   1.00
C43    C     0.62060   0.58110   0.14730   0.01267  Uiso   1.00
C44    C     0.60450   0.51600   0.11810   0.01267  Uiso   1.00
C45    C     0.65020   0.49760   0.14930   0.01267  Uiso   1.00
C46    C     0.70800   0.54610   0.20920   0.01267  Uiso   1.00
C47    C     0.72250   0.61240   0.23820   0.01267  Uiso   1.00
C48    C     0.43850   0.43170   0.30750   0.01267  Uiso   1.00
C49    C     0.46570   0.42330   0.25930   0.01267  Uiso   1.00
C50    C     0.47840   0.45520   0.22340   0.01267  Uiso   1.00
C51    C     0.50370   0.43430   0.18300   0.01267  Uiso   1.00
C52    C     0.51760   0.38260   0.17700   0.01267  Uiso   1.00
C53    C     0.50500   0.35040   0.21280   0.01267  Uiso   1.00
C54    C     0.47830   0.37140   0.25360   0.01267  Uiso   1.00
C55    C     0.41810   0.51040   0.37310   0.01267  Uiso   1.00
C56    C     0.43830   0.58210   0.40990   0.01267  Uiso   1.00
C57    C     0.40240   0.60580   0.37920   0.01267  Uiso   1.00
C58    C     0.42210   0.67420   0.41470   0.01267  Uiso   1.00
C59    C     0.47590   0.71470   0.47850   0.01267  Uiso   1.00
C60    C     0.51220   0.68950   0.50880   0.01267  Uiso   1.00
C61    C     0.49290   0.62230   0.47380   0.01267  Uiso   1.00
C62    C     0.22710   0.47920   0.60070   0.01267  Uiso   1.00
C63    C     0.18890   0.48620   0.63520   0.01267  Uiso   1.00
C64    C     0.20290   0.40040   0.56360   0.01267  Uiso   1.00
C65    C     0.30700   0.52010   0.65180   0.01267  Uiso   1.00
C66    C     0.21960   0.50040   0.54920   0.01267  Uiso   1.00
C67    C     0.97170   0.38950   0.47930   0.01267  Uiso   1.00
C68    C     0.00040   0.43680   0.55030   0.01267  Uiso   1.00
C69    C     0.06490   0.46040   0.59660   0.01267  Uiso   1.00
C70    C     0.09010   0.50500   0.66360   0.01267  Uiso   1.00
C71    C     0.04980   0.52670   0.68310   0.01267  Uiso   1.00
C72    C     0.98480   0.50210   0.63620   0.01267  Uiso   1.00
C73    C     0.95940   0.45650   0.56830   0.01267  Uiso   1.00
C74    C     0.99580   0.35050   0.39280   0.01267  Uiso   1.00
C75    C     0.03250   0.31280   0.38060   0.01267  Uiso   1.00
C76    C     0.08600   0.32370   0.37110   0.01267  Uiso   1.00
C77    C     0.10760   0.27690   0.36120   0.01267  Uiso   1.00
C78    C     0.07320   0.21870   0.36050   0.01267  Uiso   1.00
C79    C     0.01890   0.20760   0.37070   0.01267  Uiso   1.00
C80    C     0.99690   0.25420   0.38000   0.01267  Uiso   1.00
C81    C     0.27600   0.35370   0.71570   0.01267  Uiso   1.00
C82    C     0.23960   0.30520   0.64100   0.01267  Uiso   1.00
C83    C     0.21510   0.31890   0.59150   0.01267  Uiso   1.00
C84    C     0.18190   0.27210   0.52300   0.01267  Uiso   1.00
C85    C     0.17430   0.20740   0.50650   0.01267  Uiso   1.00
C86    C     0.19890   0.19310   0.55500   0.01267  Uiso   1.00
C87    C     0.23160   0.24220   0.62440   0.01267  Uiso   1.00
C88    C     0.28590   0.44010   0.79970   0.01267  Uiso   1.00
C89    C     0.26540   0.49010   0.81880   0.01267  Uiso   1.00
C90    C     0.30340   0.55330   0.83220   0.01267  Uiso   1.00
C91    C     0.28430   0.60020   0.85060   0.01267  Uiso   1.00
C92    C     0.22590   0.58380   0.85460   0.01267  Uiso   1.00
C93    C     0.18750   0.51990   0.84170   0.01267  Uiso   1.00
C94    C     0.20750   0.47330   0.82360   0.01267  Uiso   1.00
C95    C     0.35870   0.72610   0.77360   0.01267  Uiso   1.00
C96    C     0.39680   0.68970   0.78660   0.01267  Uiso   1.00
C97    C     0.38260   0.62660   0.74300   0.01267  Uiso   1.00
C98    C     0.42640   0.60450   0.76510   0.01267  Uiso   1.00
C99    C     0.49050   0.65010   0.82220   0.01267  Uiso   1.00
C100   C     0.50820   0.71560   0.85930   0.01267  Uiso   1.00
C101   C     0.45940   0.73460   0.84290   0.01267  Uiso   1.00
C102   C     0.25450   0.71250   0.70450   0.01267  Uiso   1.00
C103   C     0.20690   0.67820   0.62950   0.01267  Uiso   1.00
C104   C     0.14730   0.62060   0.58110   0.01267  Uiso   1.00
C105   C     0.11810   0.60450   0.51600   0.01267  Uiso   1.00
C106   C     0.14930   0.65020   0.49760   0.01267  Uiso   1.00
C107   C     0.20920   0.70800   0.54610   0.01267  Uiso   1.00
C108   C     0.23820   0.72250   0.61240   0.01267  Uiso   1.00
C109   C     0.30750   0.43850   0.43170   0.01267  Uiso   1.00
C110   C     0.25930   0.46570   0.42330   0.01267  Uiso   1.00
C111   C     0.22340   0.47840   0.45520   0.01267  Uiso   1.00
C112   C     0.18300   0.50370   0.43430   0.01267  Uiso   1.00
C113   C     0.17700   0.51760   0.38260   0.01267  Uiso   1.00
C114   C     0.21280   0.50500   0.35040   0.01267  Uiso   1.00
C115   C     0.25360   0.47830   0.37140   0.01267  Uiso   1.00
C116   C     0.37310   0.41810   0.51040   0.01267  Uiso   1.00
C117   C     0.40990   0.43830   0.58210   0.01267  Uiso   1.00
C118   C     0.37920   0.40240   0.60580   0.01267  Uiso   1.00
C119   C     0.41470   0.42210   0.67420   0.01267  Uiso   1.00
C120   C     0.47850   0.47590   0.71470   0.01267  Uiso   1.00
C121   C     0.50880   0.51220   0.68950   0.01267  Uiso   1.00
C122   C     0.47380   0.49290   0.62230   0.01267  Uiso   1.00
C123   C     0.60070   0.22710   0.47920   0.01267  Uiso   1.00
C124   C     0.63520   0.18890   0.48620   0.01267  Uiso   1.00
C125   C     0.56360   0.20290   0.40040   0.01267  Uiso   1.00
C126   C     0.65180   0.30700   0.52010   0.01267  Uiso   1.00
C127   C     0.54920   0.21960   0.50040   0.01267  Uiso   1.00
C128   C     0.47930   0.97170   0.38950   0.01267  Uiso   1.00
C129   C     0.55030   0.00040   0.43680   0.01267  Uiso   1.00
C130   C     0.59660   0.06490   0.46040   0.01267  Uiso   1.00
C131   C     0.66360   0.09010   0.50500   0.01267  Uiso   1.00
C132   C     0.68310   0.04980   0.52670   0.01267  Uiso   1.00
C133   C     0.63620   0.98480   0.50210   0.01267  Uiso   1.00
C134   C     0.56830   0.95940   0.45650   0.01267  Uiso   1.00
C135   C     0.39280   0.99580   0.35050   0.01267  Uiso   1.00
C136   C     0.38060   0.03250   0.31280   0.01267  Uiso   1.00
C137   C     0.37110   0.08600   0.32370   0.01267  Uiso   1.00
C138   C     0.36120   0.10760   0.27690   0.01267  Uiso   1.00
C139   C     0.36050   0.07320   0.21870   0.01267  Uiso   1.00
C140   C     0.37070   0.01890   0.20760   0.01267  Uiso   1.00
C141   C     0.38000   0.99690   0.25420   0.01267  Uiso   1.00
C142   C     0.71570   0.27600   0.35370   0.01267  Uiso   1.00
C143   C     0.64100   0.23960   0.30520   0.01267  Uiso   1.00
C144   C     0.59150   0.21510   0.31890   0.01267  Uiso   1.00
C145   C     0.52300   0.18190   0.27210   0.01267  Uiso   1.00
C146   C     0.50650   0.17430   0.20740   0.01267  Uiso   1.00
C147   C     0.55500   0.19890   0.19310   0.01267  Uiso   1.00
C148   C     0.62440   0.23160   0.24220   0.01267  Uiso   1.00
C149   C     0.79970   0.28590   0.44010   0.01267  Uiso   1.00
C150   C     0.81880   0.26540   0.49010   0.01267  Uiso   1.00
C151   C     0.83220   0.30340   0.55330   0.01267  Uiso   1.00
C152   C     0.85060   0.28430   0.60020   0.01267  Uiso   1.00
C153   C     0.85460   0.22590   0.58380   0.01267  Uiso   1.00
C154   C     0.84170   0.18750   0.51990   0.01267  Uiso   1.00
C155   C     0.82360   0.20750   0.47330   0.01267  Uiso   1.00
C156   C     0.77360   0.35870   0.72610   0.01267  Uiso   1.00
C157   C     0.78660   0.39680   0.68970   0.01267  Uiso   1.00
C158   C     0.74300   0.38260   0.62660   0.01267  Uiso   1.00
C159   C     0.76510   0.42640   0.60450   0.01267  Uiso   1.00
C160   C     0.82220   0.49050   0.65010   0.01267  Uiso   1.00
C161   C     0.85930   0.50820   0.71560   0.01267  Uiso   1.00
C162   C     0.84290   0.45940   0.73460   0.01267  Uiso   1.00
C163   C     0.70450   0.25450   0.71250   0.01267  Uiso   1.00
C164   C     0.62950   0.20690   0.67820   0.01267  Uiso   1.00
C165   C     0.58110   0.14730   0.62060   0.01267  Uiso   1.00
C166   C     0.51600   0.11810   0.60450   0.01267  Uiso   1.00
C167   C     0.49760   0.14930   0.65020   0.01267  Uiso   1.00
C168   C     0.54610   0.20920   0.70800   0.01267  Uiso   1.00
C169   C     0.61240   0.23820   0.72250   0.01267  Uiso   1.00
C170   C     0.43170   0.30750   0.43850   0.01267  Uiso   1.00
C171   C     0.42330   0.25930   0.46570   0.01267  Uiso   1.00
C172   C     0.45520   0.22340   0.47840   0.01267  Uiso   1.00
C173   C     0.43430   0.18300   0.50370   0.01267  Uiso   1.00
C174   C     0.38260   0.17700   0.51760   0.01267  Uiso   1.00
C175   C     0.35040   0.21280   0.50500   0.01267  Uiso   1.00
C176   C     0.37140   0.25360   0.47830   0.01267  Uiso   1.00
C177   C     0.51040   0.37310   0.41810   0.01267  Uiso   1.00
C178   C     0.58210   0.40990   0.43830   0.01267  Uiso   1.00
C179   C     0.60580   0.37920   0.40240   0.01267  Uiso   1.00
C180   C     0.67420   0.41470   0.42210   0.01267  Uiso   1.00
C181   C     0.71470   0.47850   0.47590   0.01267  Uiso   1.00
C182   C     0.68950   0.50880   0.51220   0.01267  Uiso   1.00
C183   C     0.62230   0.47380   0.49290   0.01267  Uiso   1.00
C184   C     0.10070   0.97920   0.72710   0.01267  Uiso   1.00
C185   C     0.13520   0.98620   0.68890   0.01267  Uiso   1.00
C186   C     0.06360   0.90040   0.70290   0.01267  Uiso   1.00
C187   C     0.15180   0.02010   0.80700   0.01267  Uiso   1.00
C188   C     0.04920   0.00040   0.71960   0.01267  Uiso   1.00
C189   C     0.97930   0.88950   0.47170   0.01267  Uiso   1.00
C190   C     0.05030   0.93680   0.50040   0.01267  Uiso   1.00
C191   C     0.09660   0.96040   0.56490   0.01267  Uiso   1.00
C192   C     0.16360   0.00500   0.59010   0.01267  Uiso   1.00
C193   C     0.18310   0.02670   0.54980   0.01267  Uiso   1.00
C194   C     0.13620   0.00210   0.48480   0.01267  Uiso   1.00
C195   C     0.06830   0.95650   0.45940   0.01267  Uiso   1.00
C196   C     0.89280   0.85050   0.49580   0.01267  Uiso   1.00
C197   C     0.88060   0.81280   0.53250   0.01267  Uiso   1.00
C198   C     0.87110   0.82370   0.58600   0.01267  Uiso   1.00
C199   C     0.86120   0.77690   0.60760   0.01267  Uiso   1.00
C200   C     0.86050   0.71870   0.57320   0.01267  Uiso   1.00
C201   C     0.87070   0.70760   0.51890   0.01267  Uiso   1.00
C202   C     0.88000   0.75420   0.49690   0.01267  Uiso   1.00
C203   C     0.21570   0.85370   0.77600   0.01267  Uiso   1.00
C204   C     0.14100   0.80520   0.73960   0.01267  Uiso   1.00
C205   C     0.09150   0.81890   0.71510   0.01267  Uiso   1.00
C206   C     0.02300   0.77210   0.68190   0.01267  Uiso   1.00
C207   C     0.00650   0.70740   0.67430   0.01267  Uiso   1.00
C208   C     0.05500   0.69310   0.69890   0.01267  Uiso   1.00
C209   C     0.12440   0.74220   0.73160   0.01267  Uiso   1.00
C210   C     0.29970   0.94010   0.78590   0.01267  Uiso   1.00
C211   C     0.31880   0.99010   0.76540   0.01267  Uiso   1.00
C212   C     0.33220   0.05330   0.80340   0.01267  Uiso   1.00
C213   C     0.35060   0.10020   0.78430   0.01267  Uiso   1.00
C214   C     0.35460   0.08380   0.72590   0.01267  Uiso   1.00
C215   C     0.34170   0.01990   0.68750   0.01267  Uiso   1.00
C216   C     0.32360   0.97330   0.70750   0.01267  Uiso   1.00
C217   C     0.27360   0.22610   0.85870   0.01267  Uiso   1.00
C218   C     0.28660   0.18970   0.89680   0.01267  Uiso   1.00
C219   C     0.24300   0.12660   0.88260   0.01267  Uiso   1.00
C220   C     0.26510   0.10450   0.92640   0.01267  Uiso   1.00
C221   C     0.32220   0.15010   0.99050   0.01267  Uiso   1.00
C222   C     0.35930   0.21560   0.00820   0.01267  Uiso   1.00
C223   C     0.34290   0.23460   0.95940   0.01267  Uiso   1.00
C224   C     0.20450   0.21250   0.75450   0.01267  Uiso   1.00
C225   C     0.12950   0.17820   0.70690   0.01267  Uiso   1.00
C226   C     0.08110   0.12060   0.64730   0.01267  Uiso   1.00
C227   C     0.01600   0.10450   0.61810   0.01267  Uiso   1.00
C228   C     0.99760   0.15020   0.64930   0.01267  Uiso   1.00
C229   C     0.04610   0.20800   0.70920   0.01267  Uiso   1.00
C230   C     0.11240   0.22250   0.73820   0.01267  Uiso   1.00
C231   C     0.93170   0.93850   0.80750   0.01267  Uiso   1.00
C232   C     0.92330   0.96570   0.75930   0.01267  Uiso   1.00
C233   C     0.95520   0.97840   0.72340   0.01267  Uiso   1.00
C234   C     0.93430   0.00370   0.68300   0.01267  Uiso   1.00
C235   C     0.88260   0.01760   0.67700   0.01267  Uiso   1.00
C236   C     0.85040   0.00500   0.71280   0.01267  Uiso   1.00
C237   C     0.87140   0.97830   0.75360   0.01267  Uiso   1.00
C238   C     0.01040   0.91810   0.87310   0.01267  Uiso   1.00
C239   C     0.08210   0.93830   0.90990   0.01267  Uiso   1.00
C240   C     0.10580   0.90240   0.87920   0.01267  Uiso   1.00
C241   C     0.17420   0.92210   0.91470   0.01267  Uiso   1.00
C242   C     0.21470   0.97590   0.97850   0.01267  Uiso   1.00
C243   C     0.18950   0.01220   0.00880   0.01267  Uiso   1.00
C244   C     0.12230   0.99290   0.97380   0.01267  Uiso   1.00
C245   C     0.97920   0.72710   0.10070   0.01267  Uiso   1.00
C246   C     0.98620   0.68890   0.13520   0.01267  Uiso   1.00
C247   C     0.90040   0.70290   0.06360   0.01267  Uiso   1.00
C248   C     0.02010   0.80700   0.15180   0.01267  Uiso   1.00
C249   C     0.00040   0.71960   0.04920   0.01267  Uiso   1.00
C250   C     0.88950   0.47170   0.97930   0.01267  Uiso   1.00
C251   C     0.93680   0.50040   0.05030   0.01267  Uiso   1.00
C252   C     0.96040   0.56490   0.09660   0.01267  Uiso   1.00
C253   C     0.00500   0.59010   0.16360   0.01267  Uiso   1.00
C254   C     0.02670   0.54980   0.18310   0.01267  Uiso   1.00
C255   C     0.00210   0.48480   0.13620   0.01267  Uiso   1.00
C256   C     0.95650   0.45940   0.06830   0.01267  Uiso   1.00
C257   C     0.85050   0.49580   0.89280   0.01267  Uiso   1.00
C258   C     0.81280   0.53250   0.88060   0.01267  Uiso   1.00
C259   C     0.82370   0.58600   0.87110   0.01267  Uiso   1.00
C260   C     0.77690   0.60760   0.86120   0.01267  Uiso   1.00
C261   C     0.71870   0.57320   0.86050   0.01267  Uiso   1.00
C262   C     0.70760   0.51890   0.87070   0.01267  Uiso   1.00
C263   C     0.75420   0.49690   0.88000   0.01267  Uiso   1.00
C264   C     0.85370   0.77600   0.21570   0.01267  Uiso   1.00
C265   C     0.80520   0.73960   0.14100   0.01267  Uiso   1.00
C266   C     0.81890   0.71510   0.09150   0.01267  Uiso   1.00
C267   C     0.77210   0.68190   0.02300   0.01267  Uiso   1.00
C268   C     0.70740   0.67430   0.00650   0.01267  Uiso   1.00
C269   C     0.69310   0.69890   0.05500   0.01267  Uiso   1.00
C270   C     0.74220   0.73160   0.12440   0.01267  Uiso   1.00
C271   C     0.94010   0.78590   0.29970   0.01267  Uiso   1.00
C272   C     0.99010   0.76540   0.31880   0.01267  Uiso   1.00
C273   C     0.05330   0.80340   0.33220   0.01267  Uiso   1.00
C274   C     0.10020   0.78430   0.35060   0.01267  Uiso   1.00
C275   C     0.08380   0.72590   0.35460   0.01267  Uiso   1.00
C276   C     0.01990   0.68750   0.34170   0.01267  Uiso   1.00
C277   C     0.97330   0.70750   0.32360   0.01267  Uiso   1.00
C278   C     0.22610   0.85870   0.27360   0.01267  Uiso   1.00
C279   C     0.18970   0.89680   0.28660   0.01267  Uiso   1.00
C280   C     0.12660   0.88260   0.24300   0.01267  Uiso   1.00
C281   C     0.10450   0.92640   0.26510   0.01267  Uiso   1.00
C282   C     0.15010   0.99050   0.32220   0.01267  Uiso   1.00
C283   C     0.21560   0.00820   0.35930   0.01267  Uiso   1.00
C284   C     0.23460   0.95940   0.34290   0.01267  Uiso   1.00
C285   C     0.21250   0.75450   0.20450   0.01267  Uiso   1.00
C286   C     0.17820   0.70690   0.12950   0.01267  Uiso   1.00
C287   C     0.12060   0.64730   0.08110   0.01267  Uiso   1.00
C288   C     0.10450   0.61810   0.01600   0.01267  Uiso   1.00
C289   C     0.15020   0.64930   0.99760   0.01267  Uiso   1.00
C290   C     0.20800   0.70920   0.04610   0.01267  Uiso   1.00
C291   C     0.22250   0.73820   0.11240   0.01267  Uiso   1.00
C292   C     0.93850   0.80750   0.93170   0.01267  Uiso   1.00
C293   C     0.96570   0.75930   0.92330   0.01267  Uiso   1.00
C294   C     0.97840   0.72340   0.95520   0.01267  Uiso   1.00
C295   C     0.00370   0.68300   0.93430   0.01267  Uiso   1.00
C296   C     0.01760   0.67700   0.88260   0.01267  Uiso   1.00
C297   C     0.00500   0.71280   0.85040   0.01267  Uiso   1.00
C298   C     0.97830   0.75360   0.87140   0.01267  Uiso   1.00
C299   C     0.91810   0.87310   0.01040   0.01267  Uiso   1.00
C300   C     0.93830   0.90990   0.08210   0.01267  Uiso   1.00
C301   C     0.90240   0.87920   0.10580   0.01267  Uiso   1.00
C302   C     0.92210   0.91470   0.17420   0.01267  Uiso   1.00
C303   C     0.97590   0.97850   0.21470   0.01267  Uiso   1.00
C304   C     0.01220   0.00880   0.18950   0.01267  Uiso   1.00
C305   C     0.99290   0.97380   0.12230   0.01267  Uiso   1.00
C306   C     0.72710   0.10070   0.97920   0.01267  Uiso   1.00
C307   C     0.68890   0.13520   0.98620   0.01267  Uiso   1.00
C308   C     0.70290   0.06360   0.90040   0.01267  Uiso   1.00
C309   C     0.80700   0.15180   0.02010   0.01267  Uiso   1.00
C310   C     0.71960   0.04920   0.00040   0.01267  Uiso   1.00
C311   C     0.47170   0.97930   0.88950   0.01267  Uiso   1.00
C312   C     0.50040   0.05030   0.93680   0.01267  Uiso   1.00
C313   C     0.56490   0.09660   0.96040   0.01267  Uiso   1.00
C314   C     0.59010   0.16360   0.00500   0.01267  Uiso   1.00
C315   C     0.54980   0.18310   0.02670   0.01267  Uiso   1.00
C316   C     0.48480   0.13620   0.00210   0.01267  Uiso   1.00
C317   C     0.45940   0.06830   0.95650   0.01267  Uiso   1.00
C318   C     0.49580   0.89280   0.85050   0.01267  Uiso   1.00
C319   C     0.53250   0.88060   0.81280   0.01267  Uiso   1.00
C320   C     0.58600   0.87110   0.82370   0.01267  Uiso   1.00
C321   C     0.60760   0.86120   0.77690   0.01267  Uiso   1.00
C322   C     0.57320   0.86050   0.71870   0.01267  Uiso   1.00
C323   C     0.51890   0.87070   0.70760   0.01267  Uiso   1.00
C324   C     0.49690   0.88000   0.75420   0.01267  Uiso   1.00
C325   C     0.77600   0.21570   0.85370   0.01267  Uiso   1.00
C326   C     0.73960   0.14100   0.80520   0.01267  Uiso   1.00
C327   C     0.71510   0.09150   0.81890   0.01267  Uiso   1.00
C328   C     0.68190   0.02300   0.77210   0.01267  Uiso   1.00
C329   C     0.67430   0.00650   0.70740   0.01267  Uiso   1.00
C330   C     0.69890   0.05500   0.69310   0.01267  Uiso   1.00
C331   C     0.73160   0.12440   0.74220   0.01267  Uiso   1.00
C332   C     0.78590   0.29970   0.94010   0.01267  Uiso   1.00
C333   C     0.76540   0.31880   0.99010   0.01267  Uiso   1.00
C334   C     0.80340   0.33220   0.05330   0.01267  Uiso   1.00
C335   C     0.78430   0.35060   0.10020   0.01267  Uiso   1.00
C336   C     0.72590   0.35460   0.08380   0.01267  Uiso   1.00
C337   C     0.68750   0.34170   0.01990   0.01267  Uiso   1.00
C338   C     0.70750   0.32360   0.97330   0.01267  Uiso   1.00
C339   C     0.85870   0.27360   0.22610   0.01267  Uiso   1.00
C340   C     0.89680   0.28660   0.18970   0.01267  Uiso   1.00
C341   C     0.88260   0.24300   0.12660   0.01267  Uiso   1.00
C342   C     0.92640   0.26510   0.10450   0.01267  Uiso   1.00
C343   C     0.99050   0.32220   0.15010   0.01267  Uiso   1.00
C344   C     0.00820   0.35930   0.21560   0.01267  Uiso   1.00
C345   C     0.95940   0.34290   0.23460   0.01267  Uiso   1.00
C346   C     0.75450   0.20450   0.21250   0.01267  Uiso   1.00
C347   C     0.70690   0.12950   0.17820   0.01267  Uiso   1.00
C348   C     0.64730   0.08110   0.12060   0.01267  Uiso   1.00
C349   C     0.61810   0.01600   0.10450   0.01267  Uiso   1.00
C350   C     0.64930   0.99760   0.15020   0.01267  Uiso   1.00
C351   C     0.70920   0.04610   0.20800   0.01267  Uiso   1.00
C352   C     0.73820   0.11240   0.22250   0.01267  Uiso   1.00
C353   C     0.80750   0.93170   0.93850   0.01267  Uiso   1.00
C354   C     0.75930   0.92330   0.96570   0.01267  Uiso   1.00
C355   C     0.72340   0.95520   0.97840   0.01267  Uiso   1.00
C356   C     0.68300   0.93430   0.00370   0.01267  Uiso   1.00
C357   C     0.67700   0.88260   0.01760   0.01267  Uiso   1.00
C358   C     0.71280   0.85040   0.00500   0.01267  Uiso   1.00
C359   C     0.75360   0.87140   0.97830   0.01267  Uiso   1.00
C360   C     0.87310   0.01040   0.91810   0.01267  Uiso   1.00
C361   C     0.90990   0.08210   0.93830   0.01267  Uiso   1.00
C362   C     0.87920   0.10580   0.90240   0.01267  Uiso   1.00
C363   C     0.91470   0.17420   0.92210   0.01267  Uiso   1.00
C364   C     0.97850   0.21470   0.97590   0.01267  Uiso   1.00
C365   C     0.00880   0.18950   0.01220   0.01267  Uiso   1.00
C366   C     0.97380   0.12230   0.99290   0.01267  Uiso   1.00
N1     N     0.35260   0.45330   0.99710   0.01267  Uiso   1.00
N2     N     0.38940   0.72910   0.24370   0.01267  Uiso   1.00
N3     N     0.69830   0.70840   0.31070   0.01267  Uiso   1.00
N4     N     0.46530   0.49640   0.35760   0.01267  Uiso   1.00
N5     N     0.51120   0.46450   0.87620   0.01267  Uiso   1.00
N6     N     0.39130   0.25470   0.73610   0.01267  Uiso   1.00
N7     N     0.48720   0.33910   0.94910   0.01267  Uiso   1.00
N8     N     0.20480   0.30560   0.21220   0.01267  Uiso   1.00
N9     N     0.99710   0.35260   0.45330   0.01267  Uiso   1.00
N10    N     0.24370   0.38940   0.72910   0.01267  Uiso   1.00
N11    N     0.31070   0.69830   0.70840   0.01267  Uiso   1.00
N12    N     0.35760   0.46530   0.49640   0.01267  Uiso   1.00
N13    N     0.87620   0.51120   0.46450   0.01267  Uiso   1.00
N14    N     0.73610   0.39130   0.25470   0.01267  Uiso   1.00
N15    N     0.94910   0.48720   0.33910   0.01267  Uiso   1.00
N16    N     0.21220   0.20480   0.30560   0.01267  Uiso   1.00
N17    N     0.45330   0.99710   0.35260   0.01267  Uiso   1.00
N18    N     0.72910   0.24370   0.38940   0.01267  Uiso   1.00
N19    N     0.70840   0.31070   0.69830   0.01267  Uiso   1.00
N20    N     0.49640   0.35760   0.46530   0.01267  Uiso   1.00
N21    N     0.46450   0.87620   0.51120   0.01267  Uiso   1.00
N22    N     0.25470   0.73610   0.39130   0.01267  Uiso   1.00
N23    N     0.33910   0.94910   0.48720   0.01267  Uiso   1.00
N24    N     0.30560   0.21220   0.20480   0.01267  Uiso   1.00
N25    N     0.95330   0.85260   0.49710   0.01267  Uiso   1.00
N26    N     0.22910   0.88940   0.74370   0.01267  Uiso   1.00
N27    N     0.20840   0.19830   0.81070   0.01267  Uiso   1.00
N28    N     0.99640   0.96530   0.85760   0.01267  Uiso   1.00
N29    N     0.96450   0.01120   0.37620   0.01267  Uiso   1.00
N30    N     0.75470   0.89130   0.23610   0.01267  Uiso   1.00
N31    N     0.83910   0.98720   0.44910   0.01267  Uiso   1.00
N32    N     0.80560   0.70480   0.71220   0.01267  Uiso   1.00
N33    N     0.85260   0.49710   0.95330   0.01267  Uiso   1.00
N34    N     0.88940   0.74370   0.22910   0.01267  Uiso   1.00
N35    N     0.19830   0.81070   0.20840   0.01267  Uiso   1.00
N36    N     0.96530   0.85760   0.99640   0.01267  Uiso   1.00
N37    N     0.01120   0.37620   0.96450   0.01267  Uiso   1.00
N38    N     0.89130   0.23610   0.75470   0.01267  Uiso   1.00
N39    N     0.98720   0.44910   0.83910   0.01267  Uiso   1.00
N40    N     0.70480   0.71220   0.80560   0.01267  Uiso   1.00
N41    N     0.49710   0.95330   0.85260   0.01267  Uiso   1.00
N42    N     0.74370   0.22910   0.88940   0.01267  Uiso   1.00
N43    N     0.81070   0.20840   0.19830   0.01267  Uiso   1.00
N44    N     0.85760   0.99640   0.96530   0.01267  Uiso   1.00
N45    N     0.37620   0.96450   0.01120   0.01267  Uiso   1.00
N46    N     0.23610   0.75470   0.89130   0.01267  Uiso   1.00
N47    N     0.44910   0.83910   0.98720   0.01267  Uiso   1.00
N48    N     0.71220   0.80560   0.70480   0.01267  Uiso   1.00
O1     O     0.45850   0.58850   0.11960   0.01267  Uiso   1.00
O2     O     0.38360   0.61330   0.22820   0.01267  Uiso   1.00
O3     O     0.58680   0.69420   0.32210   0.01267  Uiso   1.00
O4     O     0.47910   0.50910   0.24650   0.01267  Uiso   1.00
O5     O     0.38880   0.42650   0.92470   0.01267  Uiso   1.00
O6     O     0.34350   0.76830   0.30710   0.01267  Uiso   1.00
O7     O     0.78040   0.81680   0.35840   0.01267  Uiso   1.00
O8     O     0.39100   0.38850   0.31390   0.01267  Uiso   1.00
O9     O     0.52070   0.43200   0.90430   0.01267  Uiso   1.00
O10    O     0.45170   0.45270   0.84130   0.01267  Uiso   1.00
O11    O     0.55760   0.52400   0.89990   0.01267  Uiso   1.00
O12    O     0.34120   0.23070   0.74240   0.01267  Uiso   1.00
O13    O     0.42650   0.31810   0.76050   0.01267  Uiso   1.00
O14    O     0.39660   0.21290   0.69370   0.01267  Uiso   1.00
O15    O     0.46920   0.30890   0.88900   0.01267  Uiso   1.00
O16    O     0.46210   0.37140   0.97280   0.01267  Uiso   1.00
O17    O     0.52010   0.32240   0.98780   0.01267  Uiso   1.00
O18    O     0.26150   0.35540   0.24670   0.01267  Uiso   1.00
O19    O     0.19000   0.26270   0.23210   0.01267  Uiso   1.00
O20    O     0.15890   0.31560   0.18180   0.01267  Uiso   1.00
O21    O     0.11960   0.45850   0.58850   0.01267  Uiso   1.00
O22    O     0.22820   0.38360   0.61330   0.01267  Uiso   1.00
O23    O     0.32210   0.58680   0.69420   0.01267  Uiso   1.00
O24    O     0.24650   0.47910   0.50910   0.01267  Uiso   1.00
O25    O     0.92470   0.38880   0.42650   0.01267  Uiso   1.00
O26    O     0.30710   0.34350   0.76830   0.01267  Uiso   1.00
O27    O     0.35840   0.78040   0.81680   0.01267  Uiso   1.00
O28    O     0.31390   0.39100   0.38850   0.01267  Uiso   1.00
O29    O     0.90430   0.52070   0.43200   0.01267  Uiso   1.00
O30    O     0.84130   0.45170   0.45270   0.01267  Uiso   1.00
O31    O     0.89990   0.55760   0.52400   0.01267  Uiso   1.00
O32    O     0.74240   0.34120   0.23070   0.01267  Uiso   1.00
O33    O     0.76050   0.42650   0.31810   0.01267  Uiso   1.00
O34    O     0.69370   0.39660   0.21290   0.01267  Uiso   1.00
O35    O     0.88900   0.46920   0.30890   0.01267  Uiso   1.00
O36    O     0.97280   0.46210   0.37140   0.01267  Uiso   1.00
O37    O     0.98780   0.52010   0.32240   0.01267  Uiso   1.00
O38    O     0.24670   0.26150   0.35540   0.01267  Uiso   1.00
O39    O     0.23210   0.19000   0.26270   0.01267  Uiso   1.00
O40    O     0.18180   0.15890   0.31560   0.01267  Uiso   1.00
O41    O     0.58850   0.11960   0.45850   0.01267  Uiso   1.00
O42    O     0.61330   0.22820   0.38360   0.01267  Uiso   1.00
O43    O     0.69420   0.32210   0.58680   0.01267  Uiso   1.00
O44    O     0.50910   0.24650   0.47910   0.01267  Uiso   1.00
O45    O     0.42650   0.92470   0.38880   0.01267  Uiso   1.00
O46    O     0.76830   0.30710   0.34350   0.01267  Uiso   1.00
O47    O     0.81680   0.35840   0.78040   0.01267  Uiso   1.00
O48    O     0.38850   0.31390   0.39100   0.01267  Uiso   1.00
O49    O     0.43200   0.90430   0.52070   0.01267  Uiso   1.00
O50    O     0.45270   0.84130   0.45170   0.01267  Uiso   1.00
O51    O     0.52400   0.89990   0.55760   0.01267  Uiso   1.00
O52    O     0.23070   0.74240   0.34120   0.01267  Uiso   1.00
O53    O     0.31810   0.76050   0.42650   0.01267  Uiso   1.00
O54    O     0.21290   0.69370   0.39660   0.01267  Uiso   1.00
O55    O     0.30890   0.88900   0.46920   0.01267  Uiso   1.00
O56    O     0.37140   0.97280   0.46210   0.01267  Uiso   1.00
O57    O     0.32240   0.98780   0.52010   0.01267  Uiso   1.00
O58    O     0.35540   0.24670   0.26150   0.01267  Uiso   1.00
O59    O     0.26270   0.23210   0.19000   0.01267  Uiso   1.00
O60    O     0.31560   0.18180   0.15890   0.01267  Uiso   1.00
O61    O     0.08850   0.95850   0.61960   0.01267  Uiso   1.00
O62    O     0.11330   0.88360   0.72820   0.01267  Uiso   1.00
O63    O     0.19420   0.08680   0.82210   0.01267  Uiso   1.00
O64    O     0.00910   0.97910   0.74650   0.01267  Uiso   1.00
O65    O     0.92650   0.88880   0.42470   0.01267  Uiso   1.00
O66    O     0.26830   0.84350   0.80710   0.01267  Uiso   1.00
O67    O     0.31680   0.28040   0.85840   0.01267  Uiso   1.00
O68    O     0.88850   0.89100   0.81390   0.01267  Uiso   1.00
O69    O     0.93200   0.02070   0.40430   0.01267  Uiso   1.00
O70    O     0.95270   0.95170   0.34130   0.01267  Uiso   1.00
O71    O     0.02400   0.05760   0.39990   0.01267  Uiso   1.00
O72    O     0.73070   0.84120   0.24240   0.01267  Uiso   1.00
O73    O     0.81810   0.92650   0.26050   0.01267  Uiso   1.00
O74    O     0.71290   0.89660   0.19370   0.01267  Uiso   1.00
O75    O     0.80890   0.96920   0.38900   0.01267  Uiso   1.00
O76    O     0.87140   0.96210   0.47280   0.01267  Uiso   1.00
O77    O     0.82240   0.02010   0.48780   0.01267  Uiso   1.00
O78    O     0.85540   0.76150   0.74670   0.01267  Uiso   1.00
O79    O     0.76270   0.69000   0.73210   0.01267  Uiso   1.00
O80    O     0.81560   0.65890   0.68180   0.01267  Uiso   1.00
O81    O     0.95850   0.61960   0.08850   0.01267  Uiso   1.00
O82    O     0.88360   0.72820   0.11330   0.01267  Uiso   1.00
O83    O     0.08680   0.82210   0.19420   0.01267  Uiso   1.00
O84    O     0.97910   0.74650   0.00910   0.01267  Uiso   1.00
O85    O     0.88880   0.42470   0.92650   0.01267  Uiso   1.00
O86    O     0.84350   0.80710   0.26830   0.01267  Uiso   1.00
O87    O     0.28040   0.85840   0.31680   0.01267  Uiso   1.00
O88    O     0.89100   0.81390   0.88850   0.01267  Uiso   1.00
O89    O     0.02070   0.40430   0.93200   0.01267  Uiso   1.00
O90    O     0.95170   0.34130   0.95270   0.01267  Uiso   1.00
O91    O     0.05760   0.39990   0.02400   0.01267  Uiso   1.00
O92    O     0.84120   0.24240   0.73070   0.01267  Uiso   1.00
O93    O     0.92650   0.26050   0.81810   0.01267  Uiso   1.00
O94    O     0.89660   0.19370   0.71290   0.01267  Uiso   1.00
O95    O     0.96920   0.38900   0.80890   0.01267  Uiso   1.00
O96    O     0.96210   0.47280   0.87140   0.01267  Uiso   1.00
O97    O     0.02010   0.48780   0.82240   0.01267  Uiso   1.00
O98    O     0.76150   0.74670   0.85540   0.01267  Uiso   1.00
O99    O     0.69000   0.73210   0.76270   0.01267  Uiso   1.00
O100   O     0.65890   0.68180   0.81560   0.01267  Uiso   1.00
O101   O     0.61960   0.08850   0.95850   0.01267  Uiso   1.00
O102   O     0.72820   0.11330   0.88360   0.01267  Uiso   1.00
O103   O     0.82210   0.19420   0.08680   0.01267  Uiso   1.00
O104   O     0.74650   0.00910   0.97910   0.01267  Uiso   1.00
O105   O     0.42470   0.92650   0.88880   0.01267  Uiso   1.00
O106   O     0.80710   0.26830   0.84350   0.01267  Uiso   1.00
O107   O     0.85840   0.31680   0.28040   0.01267  Uiso   1.00
O108   O     0.81390   0.88850   0.89100   0.01267  Uiso   1.00
O109   O     0.40430   0.93200   0.02070   0.01267  Uiso   1.00
O110   O     0.34130   0.95270   0.95170   0.01267  Uiso   1.00
O111   O     0.39990   0.02400   0.05760   0.01267  Uiso   1.00
O112   O     0.24240   0.73070   0.84120   0.01267  Uiso   1.00
O113   O     0.26050   0.81810   0.92650   0.01267  Uiso   1.00
O114   O     0.19370   0.71290   0.89660   0.01267  Uiso   1.00
O115   O     0.38900   0.80890   0.96920   0.01267  Uiso   1.00
O116   O     0.47280   0.87140   0.96210   0.01267  Uiso   1.00
O117   O     0.48780   0.82240   0.02010   0.01267  Uiso   1.00
O118   O     0.74670   0.85540   0.76150   0.01267  Uiso   1.00
O119   O     0.73210   0.76270   0.69000   0.01267  Uiso   1.00
O120   O     0.68180   0.81560   0.65890   0.01267  Uiso   1.00
