data_LOQSOA_clean
_audit_creation_date              2014-07-02
_audit_creation_method            'Materials Studio'
_symmetry_space_group_name_H-M    'P1'
_symmetry_Int_Tables_number       1
_symmetry_cell_setting            triclinic
loop_
_symmetry_equiv_pos_as_xyz
  x,y,z
_cell_length_a                    24.2198
_cell_length_b                    24.2248
_cell_length_c                    24.2248
_cell_angle_alpha                 70.5246
_cell_angle_beta                  70.5330
_cell_angle_gamma                 109.4670
loop_
_atom_site_label
_atom_site_type_symbol
_atom_site_fract_x
_atom_site_fract_y
_atom_site_fract_z
_atom_site_U_iso_or_equiv
_atom_site_adp_type
_atom_site_occupancy
Tb1    Tb    0.64827   0.50008   0.95171   0.01267  Uiso   1.00
Tb2    Tb    0.59998   0.95171   0.54821   0.01267  Uiso   1.00
Tb3    Tb    0.14819   0.54821   0.50008   0.01267  Uiso   1.00
Tb4    Tb    0.09998   0.45179   0.04829   0.01267  Uiso   1.00
Tb5    Tb    0.64819   0.49992   0.45179   0.01267  Uiso   1.00
Tb6    Tb    0.14827   0.04829   0.49992   0.01267  Uiso   1.00
Tb7    Tb    0.69659  -0.00000   0.00000   0.01267  Uiso   1.00
Tb8    Tb    0.19659   0.00000  -0.00000   0.01267  Uiso   1.00
H1     H     0.50820   0.54460   0.13000   0.01267  Uiso   1.00
H2     H     0.27910   0.49950   0.31590   0.01267  Uiso   1.00
H3     H     0.32660   0.64770   0.99070   0.01267  Uiso   1.00
H4     H     0.47460   0.83520   0.03030   0.01267  Uiso   1.00
H5     H     0.32820   0.53780   0.13730   0.01267  Uiso   1.00
H6     H     0.33390   0.52640   0.20270   0.01267  Uiso   1.00
H7     H     0.46490   0.68690   0.14300   0.01267  Uiso   1.00
H8     H     0.46560   0.61870   0.15670   0.01267  Uiso   1.00
H9     H     0.37870   0.70190   0.10970   0.01267  Uiso   1.00
H10    H     0.32570   0.63670   0.18100   0.01267  Uiso   1.00
H11    H     0.41900   0.65640   0.02760   0.01267  Uiso   1.00
H12    H     0.47310   0.64160   0.04160   0.01267  Uiso   1.00
H13    H     0.29420   0.43580   0.16910   0.01267  Uiso   1.00
H14    H     0.26420   0.32170   0.19660   0.01267  Uiso   1.00
H15    H     0.35090   0.30880   0.13570   0.01267  Uiso   1.00
H16    H     0.46170   0.38700   0.08730   0.01267  Uiso   1.00
H17    H     0.62700   0.60660   0.02430   0.01267  Uiso   1.00
H18    H     0.62550   0.56040   0.08850   0.01267  Uiso   1.00
H19    H     0.62360   0.71170   0.01120   0.01267  Uiso   1.00
H20    H     0.64590   0.79450   0.04030   0.01267  Uiso   1.00
H21    H     0.65450   0.77730   0.13410   0.01267  Uiso   1.00
H22    H     0.64540   0.67680   0.20130   0.01267  Uiso   1.00
H23    H     0.61930   0.59180   0.17540   0.01267  Uiso   1.00
H24    H     0.50430   0.67830   0.21030   0.01267  Uiso   1.00
H25    H     0.53070   0.69330   0.29160   0.01267  Uiso   1.00
H26    H     0.44590   0.66230   0.39320   0.01267  Uiso   1.00
H27    H     0.33700   0.59220   0.42840   0.01267  Uiso   1.00
H28    H     0.15530   0.48410   0.38600   0.01267  Uiso   1.00
H29    H     0.16020   0.41970   0.42300   0.01267  Uiso   1.00
H30    H     0.16730   0.51010   0.26230   0.01267  Uiso   1.00
H31    H     0.14890   0.45520   0.20320   0.01267  Uiso   1.00
H32    H     0.14580   0.35360   0.23180   0.01267  Uiso   1.00
H33    H     0.15820   0.30310   0.32230   0.01267  Uiso   1.00
H34    H     0.17790   0.35730   0.38070   0.01267  Uiso   1.00
H35    H     0.25440   0.67020   0.18270   0.01267  Uiso   1.00
H36    H     0.16810   0.69610   0.18610   0.01267  Uiso   1.00
H37    H     0.09030   0.63030   0.16680   0.01267  Uiso   1.00
H38    H     0.12980   0.60220   0.08620   0.01267  Uiso   1.00
H39    H     0.28370   0.51900   0.01350   0.01267  Uiso   1.00
H40    H     0.28870   0.56480   0.94620   0.01267  Uiso   1.00
H41    H     0.37350   0.51280   0.01330   0.01267  Uiso   1.00
H42    H     0.48400   0.54140   0.95940   0.01267  Uiso   1.00
H43    H     0.56030   0.63550   0.85580   0.01267  Uiso   1.00
H44    H     0.52470   0.70320   0.80140   0.01267  Uiso   1.00
H45    H     0.41370   0.67570   0.85520   0.01267  Uiso   1.00
H46    H     0.53480   0.71170   0.93200   0.01267  Uiso   1.00
H47    H     0.63490   0.78730   0.82670   0.01267  Uiso   1.00
H48    H     0.70160   0.89370   0.80650   0.01267  Uiso   1.00
H49    H     0.66940   0.92680   0.88280   0.01267  Uiso   1.00
H50    H     0.50210   0.90860   0.08090   0.01267  Uiso   1.00
H51    H     0.50530   0.84530   0.12050   0.01267  Uiso   1.00
H52    H     0.41440   0.75940   0.22060   0.01267  Uiso   1.00
H53    H     0.30060   0.70460   0.29360   0.01267  Uiso   1.00
H54    H     0.23100   0.73820   0.26420   0.01267  Uiso   1.00
H55    H     0.27770   0.83000   0.15830   0.01267  Uiso   1.00
H56    H     0.39020   0.88400   0.08540   0.01267  Uiso   1.00
H57    H     0.63820   0.13000   0.32540   0.01267  Uiso   1.00
H58    H     0.59500   0.31590   0.18460   0.01267  Uiso   1.00
H59    H     0.31730   0.99070   0.36160   0.01267  Uiso   1.00
H60    H     0.50490   0.03030   0.13450   0.01267  Uiso   1.00
H61    H     0.46550   0.13730   0.32490   0.01267  Uiso   1.00
H62    H     0.53660   0.20270   0.27090   0.01267  Uiso   1.00
H63    H     0.60790   0.14300   0.17010   0.01267  Uiso   1.00
H64    H     0.62230   0.15670   0.22460   0.01267  Uiso   1.00
H65    H     0.48840   0.10970   0.18840   0.01267  Uiso   1.00
H66    H     0.50670   0.18100   0.18230   0.01267  Uiso   1.00
H67    H     0.44660   0.02760   0.31600   0.01267  Uiso   1.00
H68    H     0.51470   0.04160   0.31680   0.01267  Uiso   1.00
H69    H     0.46330   0.16910   0.39510   0.01267  Uiso   1.00
H70    H     0.46080   0.19660   0.48170   0.01267  Uiso   1.00
H71    H     0.48660   0.13570   0.55550   0.01267  Uiso   1.00
H72    H     0.54900   0.08730   0.52570   0.01267  Uiso   1.00
H73    H     0.65130   0.02430   0.36910   0.01267  Uiso   1.00
H74    H     0.71400   0.08850   0.35110   0.01267  Uiso   1.00
H75    H     0.63480   0.01120   0.27710   0.01267  Uiso   1.00
H76    H     0.68620   0.04030   0.16520   0.01267  Uiso   1.00
H77    H     0.78860   0.13410   0.08860   0.01267  Uiso   1.00
H78    H     0.84670   0.20130   0.12190   0.01267  Uiso   1.00
H79    H     0.79470   0.17540   0.23280   0.01267  Uiso   1.00
H80    H     0.71460   0.21030   0.11140   0.01267  Uiso   1.00
H81    H     0.82230   0.29160   0.01510   0.01267  Uiso   1.00
H82    H     0.83910   0.39320   0.94450   0.01267  Uiso   1.00
H83    H     0.76540   0.42840   0.97940   0.01267  Uiso   1.00
H84    H     0.54130   0.38600   0.12990   0.01267  Uiso   1.00
H85    H     0.58320   0.42300   0.15730   0.01267  Uiso   1.00
H86    H     0.42960   0.26230   0.22760   0.01267  Uiso   1.00
H87    H     0.35210   0.20320   0.34160   0.01267  Uiso   1.00
H88    H     0.37760   0.23180   0.41460   0.01267  Uiso   1.00
H89    H     0.48050   0.32230   0.37460   0.01267  Uiso   1.00
H90    H     0.55860   0.38070   0.26200   0.01267  Uiso   1.00
H91    H     0.43710   0.18270   0.14710   0.01267  Uiso   1.00
H92    H     0.35420   0.18610   0.11780   0.01267  Uiso   1.00
H93    H     0.25710   0.16680   0.20290   0.01267  Uiso   1.00
H94    H     0.21600   0.08620   0.31160   0.01267  Uiso   1.00
H95    H     0.29720   0.01350   0.46750   0.01267  Uiso   1.00
H96    H     0.23490   0.94620   0.48900   0.01267  Uiso   1.00
H97    H     0.38680   0.01330   0.47390   0.01267  Uiso   1.00
H98    H     0.44340   0.95940   0.49920   0.01267  Uiso   1.00
H99    H     0.41610   0.85580   0.50870   0.01267  Uiso   1.00
H100   H     0.32610   0.80140   0.49540   0.01267  Uiso   1.00
H101   H     0.26890   0.85520   0.46910   0.01267  Uiso   1.00
H102   H     0.46680   0.93200   0.35630   0.01267  Uiso   1.00
H103   H     0.46160   0.82670   0.38600   0.01267  Uiso   1.00
H104   H     0.50810   0.80650   0.29980   0.01267  Uiso   1.00
H105   H     0.55220   0.88280   0.19040   0.01267  Uiso   1.00
H106   H     0.58300   0.08090   0.01050   0.01267  Uiso   1.00
H107   H     0.62580   0.12050   0.03420   0.01267  Uiso   1.00
H108   H     0.63500   0.22060   0.02000   0.01267  Uiso   1.00
H109   H     0.59420   0.29360   0.00180   0.01267  Uiso   1.00
H110   H     0.49520   0.26420   0.99760   0.01267  Uiso   1.00
H111   H     0.43600   0.15830   0.01170   0.01267  Uiso   1.00
H112   H     0.47560   0.08540   0.03060   0.01267  Uiso   1.00
H113   H     0.96360   0.32540   0.54460   0.01267  Uiso   1.00
H114   H     0.77960   0.18460   0.49950   0.01267  Uiso   1.00
H115   H     0.67890   0.36160   0.64770   0.01267  Uiso   1.00
H116   H     0.63940   0.13450   0.83520   0.01267  Uiso   1.00
H117   H     0.79040   0.32490   0.53780   0.01267  Uiso   1.00
H118   H     0.80750   0.27090   0.52640   0.01267  Uiso   1.00
H119   H     0.77800   0.17010   0.68690   0.01267  Uiso   1.00
H120   H     0.84690   0.22460   0.61870   0.01267  Uiso   1.00
H121   H     0.67680   0.18840   0.70190   0.01267  Uiso   1.00
H122   H     0.68900   0.18230   0.63670   0.01267  Uiso   1.00
H123   H     0.76260   0.31600   0.65640   0.01267  Uiso   1.00
H124   H     0.83150   0.31680   0.64160   0.01267  Uiso   1.00
H125   H     0.85840   0.39510   0.43580   0.01267  Uiso   1.00
H126   H     0.94250   0.48170   0.32170   0.01267  Uiso   1.00
H127   H     0.04210   0.55550   0.30880   0.01267  Uiso   1.00
H128   H     0.07470   0.52570   0.38700   0.01267  Uiso   1.00
H129   H     0.02040   0.36910   0.60660   0.01267  Uiso   1.00
H130   H     0.06510   0.35110   0.56040   0.01267  Uiso   1.00
H131   H     0.91190   0.27710   0.71170   0.01267  Uiso   1.00
H132   H     0.85140   0.16520   0.79450   0.01267  Uiso   1.00
H133   H     0.87720   0.08860   0.77730   0.01267  Uiso   1.00
H134   H     0.96860   0.12190   0.67680   0.01267  Uiso   1.00
H135   H     0.02750   0.23280   0.59180   0.01267  Uiso   1.00
H136   H     0.82600   0.11140   0.67830   0.01267  Uiso   1.00
H137   H     0.83740   0.01510   0.69330   0.01267  Uiso   1.00
H138   H     0.78360   0.94450   0.66230   0.01267  Uiso   1.00
H139   H     0.74480   0.97940   0.59220   0.01267  Uiso   1.00
H140   H     0.67120   0.12990   0.48410   0.01267  Uiso   1.00
H141   H     0.74050   0.15730   0.41970   0.01267  Uiso   1.00
H142   H     0.65720   0.22760   0.51010   0.01267  Uiso   1.00
H143   H     0.69370   0.34160   0.45520   0.01267  Uiso   1.00
H144   H     0.79220   0.41460   0.35360   0.01267  Uiso   1.00
H145   H     0.85510   0.37460   0.30310   0.01267  Uiso   1.00
H146   H     0.82060   0.26200   0.35730   0.01267  Uiso   1.00
H147   H     0.58420   0.14710   0.67020   0.01267  Uiso   1.00
H148   H     0.47200   0.11780   0.69610   0.01267  Uiso   1.00
H149   H     0.46000   0.20290   0.63030   0.01267  Uiso   1.00
H150   H     0.52760   0.31160   0.60220   0.01267  Uiso   1.00
H151   H     0.76470   0.46750   0.51900   0.01267  Uiso   1.00
H152   H     0.72390   0.48900   0.56480   0.01267  Uiso   1.00
H153   H     0.86070   0.47390   0.51280   0.01267  Uiso   1.00
H154   H     0.94260   0.49920   0.54140   0.01267  Uiso   1.00
H155   H     0.92480   0.50870   0.63550   0.01267  Uiso   1.00
H156   H     0.82150   0.49540   0.70320   0.01267  Uiso   1.00
H157   H     0.73800   0.46910   0.67570   0.01267  Uiso   1.00
H158   H     0.82310   0.35630   0.71170   0.01267  Uiso   1.00
H159   H     0.84760   0.38600   0.78730   0.01267  Uiso   1.00
H160   H     0.80790   0.29980   0.89370   0.01267  Uiso   1.00
H161   H     0.74260   0.19040   0.92680   0.01267  Uiso   1.00
H162   H     0.59350   0.01050   0.90860   0.01267  Uiso   1.00
H163   H     0.66000   0.03420   0.84530   0.01267  Uiso   1.00
H164   H     0.65500   0.02000   0.75940   0.01267  Uiso   1.00
H165   H     0.59600   0.00180   0.70460   0.01267  Uiso   1.00
H166   H     0.49280   0.99760   0.73820   0.01267  Uiso   1.00
H167   H     0.44770   0.01170   0.83000   0.01267  Uiso   1.00
H168   H     0.50620   0.03060   0.88400   0.01267  Uiso   1.00
H169   H     0.13820   0.67460   0.87000   0.01267  Uiso   1.00
H170   H     0.09500   0.81540   0.68410   0.01267  Uiso   1.00
H171   H     0.81730   0.63840   0.00930   0.01267  Uiso   1.00
H172   H     0.00490   0.86550   0.96970   0.01267  Uiso   1.00
H173   H     0.96550   0.67510   0.86270   0.01267  Uiso   1.00
H174   H     0.03660   0.72910   0.79730   0.01267  Uiso   1.00
H175   H     0.10790   0.82990   0.85700   0.01267  Uiso   1.00
H176   H     0.12230   0.77540   0.84330   0.01267  Uiso   1.00
H177   H     0.98840   0.81160   0.89030   0.01267  Uiso   1.00
H178   H     0.00670   0.81770   0.81900   0.01267  Uiso   1.00
H179   H     0.94660   0.68400   0.97240   0.01267  Uiso   1.00
H180   H     0.01470   0.68320   0.95840   0.01267  Uiso   1.00
H181   H     0.96330   0.60490   0.83090   0.01267  Uiso   1.00
H182   H     0.96080   0.51830   0.80340   0.01267  Uiso   1.00
H183   H     0.98660   0.44450   0.86430   0.01267  Uiso   1.00
H184   H     0.04900   0.47430   0.91270   0.01267  Uiso   1.00
H185   H     0.15130   0.63090   0.97570   0.01267  Uiso   1.00
H186   H     0.21400   0.64890   0.91150   0.01267  Uiso   1.00
H187   H     0.13480   0.72290   0.98880   0.01267  Uiso   1.00
H188   H     0.18620   0.83480   0.95970   0.01267  Uiso   1.00
H189   H     0.28860   0.91140   0.86590   0.01267  Uiso   1.00
H190   H     0.34670   0.87810   0.79870   0.01267  Uiso   1.00
H191   H     0.29470   0.76720   0.82460   0.01267  Uiso   1.00
H192   H     0.21460   0.88860   0.78970   0.01267  Uiso   1.00
H193   H     0.32230   0.98490   0.70840   0.01267  Uiso   1.00
H194   H     0.33910   0.05550   0.60680   0.01267  Uiso   1.00
H195   H     0.26540   0.02060   0.57160   0.01267  Uiso   1.00
H196   H     0.04130   0.87010   0.61400   0.01267  Uiso   1.00
H197   H     0.08320   0.84270   0.57700   0.01267  Uiso   1.00
H198   H     0.92960   0.77240   0.73770   0.01267  Uiso   1.00
H199   H     0.85210   0.65840   0.79680   0.01267  Uiso   1.00
H200   H     0.87760   0.58540   0.76820   0.01267  Uiso   1.00
H201   H     0.98050   0.62540   0.67770   0.01267  Uiso   1.00
H202   H     0.05860   0.73800   0.61930   0.01267  Uiso   1.00
H203   H     0.93710   0.85290   0.81730   0.01267  Uiso   1.00
H204   H     0.85420   0.88220   0.81390   0.01267  Uiso   1.00
H205   H     0.75710   0.79710   0.83320   0.01267  Uiso   1.00
H206   H     0.71600   0.68840   0.91380   0.01267  Uiso   1.00
H207   H     0.79720   0.53250   0.98650   0.01267  Uiso   1.00
H208   H     0.73490   0.51100   0.05380   0.01267  Uiso   1.00
H209   H     0.88680   0.52610   0.98670   0.01267  Uiso   1.00
H210   H     0.94340   0.50080   0.04060   0.01267  Uiso   1.00
H211   H     0.91610   0.49130   0.14420   0.01267  Uiso   1.00
H212   H     0.82610   0.50460   0.19860   0.01267  Uiso   1.00
H213   H     0.76890   0.53090   0.14480   0.01267  Uiso   1.00
H214   H     0.96680   0.64370   0.06800   0.01267  Uiso   1.00
H215   H     0.96160   0.61400   0.17330   0.01267  Uiso   1.00
H216   H     0.00810   0.70020   0.19350   0.01267  Uiso   1.00
H217   H     0.05220   0.80960   0.11720   0.01267  Uiso   1.00
H218   H     0.08300   0.98950   0.91910   0.01267  Uiso   1.00
H219   H     0.12580   0.96580   0.87950   0.01267  Uiso   1.00
H220   H     0.13500   0.98000   0.77940   0.01267  Uiso   1.00
H221   H     0.09420   0.99820   0.70640   0.01267  Uiso   1.00
H222   H     0.99520   0.00240   0.73580   0.01267  Uiso   1.00
H223   H     0.93600   0.98830   0.84170   0.01267  Uiso   1.00
H224   H     0.97560   0.96940   0.91460   0.01267  Uiso   1.00
H225   H     0.46360   0.45540   0.67460   0.01267  Uiso   1.00
H226   H     0.27960   0.50050   0.81540   0.01267  Uiso   1.00
H227   H     0.17890   0.35230   0.63840   0.01267  Uiso   1.00
H228   H     0.13940   0.16480   0.86550   0.01267  Uiso   1.00
H229   H     0.29040   0.46220   0.67510   0.01267  Uiso   1.00
H230   H     0.30750   0.47360   0.72910   0.01267  Uiso   1.00
H231   H     0.27800   0.31310   0.82990   0.01267  Uiso   1.00
H232   H     0.34690   0.38130   0.77540   0.01267  Uiso   1.00
H233   H     0.17680   0.29810   0.81160   0.01267  Uiso   1.00
H234   H     0.18900   0.36330   0.81770   0.01267  Uiso   1.00
H235   H     0.26260   0.34360   0.68400   0.01267  Uiso   1.00
H236   H     0.33150   0.35840   0.68320   0.01267  Uiso   1.00
H237   H     0.35840   0.56420   0.60490   0.01267  Uiso   1.00
H238   H     0.44250   0.67830   0.51830   0.01267  Uiso   1.00
H239   H     0.54210   0.69120   0.44450   0.01267  Uiso   1.00
H240   H     0.57470   0.61300   0.47430   0.01267  Uiso   1.00
H241   H     0.52040   0.39340   0.63090   0.01267  Uiso   1.00
H242   H     0.56510   0.43960   0.64890   0.01267  Uiso   1.00
H243   H     0.41190   0.28830   0.72290   0.01267  Uiso   1.00
H244   H     0.35140   0.20550   0.83480   0.01267  Uiso   1.00
H245   H     0.37720   0.22270   0.91140   0.01267  Uiso   1.00
H246   H     0.46860   0.32320   0.87810   0.01267  Uiso   1.00
H247   H     0.52750   0.40820   0.76720   0.01267  Uiso   1.00
H248   H     0.32600   0.32170   0.88860   0.01267  Uiso   1.00
H249   H     0.33740   0.30670   0.98490   0.01267  Uiso   1.00
H250   H     0.28360   0.33770   0.05550   0.01267  Uiso   1.00
H251   H     0.24480   0.40780   0.02060   0.01267  Uiso   1.00
H252   H     0.17120   0.51590   0.87010   0.01267  Uiso   1.00
H253   H     0.24050   0.58030   0.84270   0.01267  Uiso   1.00
H254   H     0.15720   0.48990   0.77240   0.01267  Uiso   1.00
H255   H     0.19370   0.54480   0.65840   0.01267  Uiso   1.00
H256   H     0.29220   0.64640   0.58540   0.01267  Uiso   1.00
H257   H     0.35510   0.69690   0.62540   0.01267  Uiso   1.00
H258   H     0.32060   0.64270   0.73800   0.01267  Uiso   1.00
H259   H     0.08420   0.32980   0.85290   0.01267  Uiso   1.00
H260   H     0.97200   0.30390   0.88220   0.01267  Uiso   1.00
H261   H     0.96000   0.36970   0.79710   0.01267  Uiso   1.00
H262   H     0.02760   0.39780   0.68840   0.01267  Uiso   1.00
H263   H     0.26470   0.48100   0.53250   0.01267  Uiso   1.00
H264   H     0.22390   0.43520   0.51100   0.01267  Uiso   1.00
H265   H     0.36070   0.48720   0.52610   0.01267  Uiso   1.00
H266   H     0.44260   0.45860   0.50080   0.01267  Uiso   1.00
H267   H     0.42480   0.36450   0.49130   0.01267  Uiso   1.00
H268   H     0.32150   0.29680   0.50460   0.01267  Uiso   1.00
H269   H     0.23800   0.32430   0.53090   0.01267  Uiso   1.00
H270   H     0.32310   0.28830   0.64370   0.01267  Uiso   1.00
H271   H     0.34760   0.21270   0.61400   0.01267  Uiso   1.00
H272   H     0.30790   0.10630   0.70020   0.01267  Uiso   1.00
H273   H     0.24260   0.07320   0.80960   0.01267  Uiso   1.00
H274   H     0.09350   0.09140   0.98950   0.01267  Uiso   1.00
H275   H     0.16000   0.15470   0.96580   0.01267  Uiso   1.00
H276   H     0.15500   0.24060   0.98000   0.01267  Uiso   1.00
H277   H     0.09600   0.29540   0.99820   0.01267  Uiso   1.00
H278   H     0.99280   0.26180   0.00240   0.01267  Uiso   1.00
H279   H     0.94770   0.17000   0.98830   0.01267  Uiso   1.00
H280   H     0.00620   0.11600   0.96940   0.01267  Uiso   1.00
H281   H     0.00820   0.87000   0.45540   0.01267  Uiso   1.00
H282   H     0.77910   0.68410   0.50050   0.01267  Uiso   1.00
H283   H     0.82660   0.00930   0.35230   0.01267  Uiso   1.00
H284   H     0.97460   0.96970   0.16480   0.01267  Uiso   1.00
H285   H     0.82820   0.86270   0.46220   0.01267  Uiso   1.00
H286   H     0.83390   0.79730   0.47360   0.01267  Uiso   1.00
H287   H     0.96490   0.85700   0.31310   0.01267  Uiso   1.00
H288   H     0.96560   0.84330   0.38130   0.01267  Uiso   1.00
H289   H     0.87870   0.89030   0.29810   0.01267  Uiso   1.00
H290   H     0.82570   0.81900   0.36330   0.01267  Uiso   1.00
H291   H     0.91900   0.97240   0.34360   0.01267  Uiso   1.00
H292   H     0.97310   0.95840   0.35840   0.01267  Uiso   1.00
H293   H     0.79420   0.83090   0.56420   0.01267  Uiso   1.00
H294   H     0.76420   0.80340   0.67830   0.01267  Uiso   1.00
H295   H     0.85090   0.86430   0.69120   0.01267  Uiso   1.00
H296   H     0.96170   0.91270   0.61300   0.01267  Uiso   1.00
H297   H     0.12700   0.97570   0.39340   0.01267  Uiso   1.00
H298   H     0.12550   0.91150   0.43960   0.01267  Uiso   1.00
H299   H     0.12360   0.98880   0.28830   0.01267  Uiso   1.00
H300   H     0.14590   0.95970   0.20550   0.01267  Uiso   1.00
H301   H     0.15450   0.86590   0.22270   0.01267  Uiso   1.00
H302   H     0.14540   0.79870   0.32320   0.01267  Uiso   1.00
H303   H     0.11930   0.82460   0.40820   0.01267  Uiso   1.00
H304   H     0.00430   0.78970   0.32170   0.01267  Uiso   1.00
H305   H     0.03070   0.70840   0.30670   0.01267  Uiso   1.00
H306   H     0.94590   0.60680   0.33770   0.01267  Uiso   1.00
H307   H     0.83700   0.57160   0.40780   0.01267  Uiso   1.00
H308   H     0.65530   0.61400   0.51590   0.01267  Uiso   1.00
H309   H     0.66020   0.57700   0.58030   0.01267  Uiso   1.00
H310   H     0.66730   0.73770   0.48990   0.01267  Uiso   1.00
H311   H     0.64890   0.79680   0.54480   0.01267  Uiso   1.00
H312   H     0.64580   0.76820   0.64640   0.01267  Uiso   1.00
H313   H     0.65820   0.67770   0.69690   0.01267  Uiso   1.00
H314   H     0.67790   0.61930   0.64270   0.01267  Uiso   1.00
H315   H     0.75440   0.81730   0.32980   0.01267  Uiso   1.00
H316   H     0.66810   0.81390   0.30390   0.01267  Uiso   1.00
H317   H     0.59030   0.83320   0.36970   0.01267  Uiso   1.00
H318   H     0.62980   0.91380   0.39780   0.01267  Uiso   1.00
H319   H     0.78370   0.98650   0.48100   0.01267  Uiso   1.00
H320   H     0.78870   0.05380   0.43520   0.01267  Uiso   1.00
H321   H     0.87350   0.98670   0.48720   0.01267  Uiso   1.00
H322   H     0.98400   0.04060   0.45860   0.01267  Uiso   1.00
H323   H     0.06030   0.14420   0.36450   0.01267  Uiso   1.00
H324   H     0.02470   0.19860   0.29680   0.01267  Uiso   1.00
H325   H     0.91370   0.14480   0.32430   0.01267  Uiso   1.00
H326   H     0.03480   0.06800   0.28830   0.01267  Uiso   1.00
H327   H     0.13490   0.17330   0.21270   0.01267  Uiso   1.00
H328   H     0.20160   0.19350   0.10630   0.01267  Uiso   1.00
H329   H     0.16940   0.11720   0.07320   0.01267  Uiso   1.00
H330   H     0.00210   0.91910   0.09140   0.01267  Uiso   1.00
H331   H     0.00530   0.87950   0.15470   0.01267  Uiso   1.00
H332   H     0.91440   0.77940   0.24060   0.01267  Uiso   1.00
H333   H     0.80060   0.70640   0.29540   0.01267  Uiso   1.00
H334   H     0.73100   0.73580   0.26180   0.01267  Uiso   1.00
H335   H     0.77770   0.84170   0.17000   0.01267  Uiso   1.00
H336   H     0.89020   0.91460   0.11600   0.01267  Uiso   1.00
C1     C     0.39807   0.62687   0.12446   0.01267  Uiso   1.00
C2     C     0.35920   0.54980   0.15380   0.01267  Uiso   1.00
C3     C     0.43700   0.63890   0.16100   0.01267  Uiso   1.00
C4     C     0.35320   0.65290   0.13330   0.01267  Uiso   1.00
C5     C     0.44430   0.66080   0.05120   0.01267  Uiso   1.00
C6     C     0.52500   0.50350   0.07870   0.01267  Uiso   1.00
C7     C     0.44740   0.45810   0.10650   0.01267  Uiso   1.00
C8     C     0.39260   0.46720   0.13630   0.01267  Uiso   1.00
C9     C     0.32680   0.42290   0.15980   0.01267  Uiso   1.00
C10    C     0.30890   0.35720   0.16970   0.01267  Uiso   1.00
C11    C     0.36120   0.34860   0.13740   0.01267  Uiso   1.00
C12    C     0.42840   0.39620   0.10730   0.01267  Uiso   1.00
C13    C     0.60540   0.58630   0.07300   0.01267  Uiso   1.00
C14    C     0.62005   0.64259   0.09059   0.01267  Uiso   1.00
C15    C     0.62751   0.70422   0.04968   0.01267  Uiso   1.00
C16    C     0.64066   0.75328   0.06730   0.01267  Uiso   1.00
C17    C     0.64638   0.74338   0.12304   0.01267  Uiso   1.00
C18    C     0.64000   0.68320   0.16390   0.01267  Uiso   1.00
C19    C     0.62555   0.63325   0.14740   0.01267  Uiso   1.00
C20    C     0.27320   0.54340   0.37090   0.01267  Uiso   1.00
C21    C     0.34860   0.59090   0.34190   0.01267  Uiso   1.00
C22    C     0.40340   0.62030   0.27680   0.01267  Uiso   1.00
C23    C     0.47070   0.65990   0.25460   0.01267  Uiso   1.00
C24    C     0.48590   0.67100   0.30230   0.01267  Uiso   1.00
C25    C     0.43550   0.64940   0.36410   0.01267  Uiso   1.00
C26    C     0.36980   0.60900   0.38430   0.01267  Uiso   1.00
C27    C     0.17840   0.45880   0.37990   0.01267  Uiso   1.00
C28    C     0.17413   0.43908   0.32841   0.01267  Uiso   1.00
C29    C     0.16562   0.46862   0.27467   0.01267  Uiso   1.00
C30    C     0.15482   0.43564   0.23938   0.01267  Uiso   1.00
C31    C     0.15261   0.37461   0.25668   0.01267  Uiso   1.00
C32    C     0.16037   0.34477   0.31006   0.01267  Uiso   1.00
C33    C     0.17165   0.37708   0.34483   0.01267  Uiso   1.00
C34    C     0.22920   0.58210   0.04900   0.01267  Uiso   1.00
C35    C     0.21136   0.60612   0.09474   0.01267  Uiso   1.00
C36    C     0.25037   0.63234   0.12123   0.01267  Uiso   1.00
C37    C     0.23096   0.65882   0.16094   0.01267  Uiso   1.00
C38    C     0.17596   0.66872   0.16874   0.01267  Uiso   1.00
C39    C     0.13384   0.63658   0.14986   0.01267  Uiso   1.00
C40    C     0.15420   0.61330   0.10720   0.01267  Uiso   1.00
C41    C     0.30640   0.56500   0.97670   0.01267  Uiso   1.00
C42    C     0.38070   0.59147   0.93987   0.01267  Uiso   1.00
C43    C     0.40349   0.55125   0.97078   0.01267  Uiso   1.00
C44    C     0.46954   0.56862   0.93850   0.01267  Uiso   1.00
C45    C     0.51530   0.62460   0.87640   0.01267  Uiso   1.00
C46    C     0.49430   0.66520   0.84410   0.01267  Uiso   1.00
C47    C     0.42770   0.64818   0.87658   0.01267  Uiso   1.00
C48    C     0.56380   0.87550   0.00850   0.01267  Uiso   1.00
C49    C     0.58210   0.84180   0.95992   0.01267  Uiso   1.00
C50    C     0.54560   0.77725   0.96758   0.01267  Uiso   1.00
C51    C     0.56262   0.75540   0.92140   0.01267  Uiso   1.00
C52    C     0.62220   0.80000   0.85890   0.01267  Uiso   1.00
C53    C     0.66110   0.86330   0.84720   0.01267  Uiso   1.00
C54    C     0.64140   0.88280   0.89460   0.01267  Uiso   1.00
C55    C     0.48360   0.86070   0.09660   0.01267  Uiso   1.00
C56    C     0.41520   0.82879   0.14389   0.01267  Uiso   1.00
C57    C     0.38720   0.77364   0.20784   0.01267  Uiso   1.00
C58    C     0.31925   0.74122   0.25117   0.01267  Uiso   1.00
C59    C     0.27720   0.76120   0.23380   0.01267  Uiso   1.00
C60    C     0.30490   0.81560   0.17090   0.01267  Uiso   1.00
C61    C     0.37210   0.84770   0.12770   0.01267  Uiso   1.00
C62    C     0.52253   0.12446   0.24867   0.01267  Uiso   1.00
C63    C     0.51300   0.15380   0.29640   0.01267  Uiso   1.00
C64    C     0.59800   0.16100   0.20010   0.01267  Uiso   1.00
C65    C     0.48650   0.13330   0.21380   0.01267  Uiso   1.00
C66    C     0.49550   0.05120   0.28800   0.01267  Uiso   1.00
C67    C     0.60370   0.07870   0.41780   0.01267  Uiso   1.00
C68    C     0.55390   0.10650   0.43540   0.01267  Uiso   1.00
C69    C     0.52890   0.13630   0.39650   0.01267  Uiso   1.00
C70    C     0.48660   0.15980   0.41730   0.01267  Uiso   1.00
C71    C     0.47860   0.16970   0.47310   0.01267  Uiso   1.00
C72    C     0.49860   0.13740   0.51400   0.01267  Uiso   1.00
C73    C     0.53570   0.10730   0.49650   0.01267  Uiso   1.00
C74    C     0.67840   0.07300   0.34070   0.01267  Uiso   1.00
C75    C     0.71064   0.09059   0.26682   0.01267  Uiso   1.00
C76    C     0.67719   0.04968   0.24610   0.01267  Uiso   1.00
C77    C     0.70796   0.06730   0.17942   0.01267  Uiso   1.00
C78    C     0.76942   0.12304   0.13358   0.01267  Uiso   1.00
C79    C     0.80390   0.16390   0.15290   0.01267  Uiso   1.00
C80    C     0.77295   0.14740   0.21935   0.01267  Uiso   1.00
C81    C     0.64410   0.37090   0.08570   0.01267  Uiso   1.00
C82    C     0.69050   0.34190   0.06720   0.01267  Uiso   1.00
C83    C     0.68020   0.27680   0.10290   0.01267  Uiso   1.00
C84    C     0.72530   0.25460   0.08550   0.01267  Uiso   1.00
C85    C     0.78820   0.30230   0.02670   0.01267  Uiso   1.00
C86    C     0.79960   0.36410   0.98650   0.01267  Uiso   1.00
C87    C     0.75410   0.38430   0.00670   0.01267  Uiso   1.00
C88    C     0.55830   0.37990   0.16130   0.01267  Uiso   1.00
C89    C     0.50254   0.32841   0.23251   0.01267  Uiso   1.00
C90    C     0.44029   0.27467   0.25671   0.01267  Uiso   1.00
C91    C     0.39420   0.23938   0.32498   0.01267  Uiso   1.00
C92    C     0.40929   0.25668   0.36871   0.01267  Uiso   1.00
C93    C     0.47043   0.31006   0.34517   0.01267  Uiso   1.00
C94    C     0.51648   0.34483   0.27809   0.01267  Uiso   1.00
C95    C     0.27820   0.04900   0.36890   0.01267  Uiso   1.00
C96    C     0.30610   0.09474   0.29914   0.01267  Uiso   1.00
C97    C     0.37160   0.12123   0.24643   0.01267  Uiso   1.00
C98    C     0.39190   0.16094   0.18024   0.01267  Uiso   1.00
C99    C     0.34470   0.16874   0.16254   0.01267  Uiso   1.00
C100   C     0.28370   0.14986   0.21356   0.01267  Uiso   1.00
C101   C     0.26140   0.10720   0.27950   0.01267  Uiso   1.00
C102   C     0.28310   0.97670   0.45830   0.01267  Uiso   1.00
C103   C     0.32057   0.93987   0.46866   0.01267  Uiso   1.00
C104   C     0.37427   0.97078   0.47797   0.01267  Uiso   1.00
C105   C     0.40804   0.93850   0.49288   0.01267  Uiso   1.00
C106   C     0.39170   0.87640   0.49900   0.01267  Uiso   1.00
C107   C     0.33840   0.84410   0.49070   0.01267  Uiso   1.00
C108   C     0.30428   0.87658   0.47524   0.01267  Uiso   1.00
C109   C     0.57230   0.00850   0.11600   0.01267  Uiso   1.00
C110   C     0.54202   0.95992   0.19828   0.01267  Uiso   1.00
C111   C     0.51318   0.96758   0.25517   0.01267  Uiso   1.00
C112   C     0.48402   0.92140   0.32320   0.01267  Uiso   1.00
C113   C     0.48110   0.85890   0.34110   0.01267  Uiso   1.00
C114   C     0.50830   0.84720   0.28950   0.01267  Uiso   1.00
C115   C     0.53600   0.89460   0.22260   0.01267  Uiso   1.00
C116   C     0.58020   0.09660   0.04270   0.01267  Uiso   1.00
C117   C     0.55909   0.14389   0.02732   0.01267  Uiso   1.00
C118   C     0.59504   0.20784   0.01852   0.01267  Uiso   1.00
C119   C     0.57042   0.25117   0.00761   0.01267  Uiso   1.00
C120   C     0.51100   0.23380   0.00500   0.01267  Uiso   1.00
C121   C     0.47580   0.17090   0.01350   0.01267  Uiso   1.00
C122   C     0.49980   0.12770   0.02460   0.01267  Uiso   1.00
C123   C     0.77120   0.24867   0.62687   0.01267  Uiso   1.00
C124   C     0.80940   0.29640   0.54980   0.01267  Uiso   1.00
C125   C     0.79810   0.20010   0.63890   0.01267  Uiso   1.00
C126   C     0.70030   0.21380   0.65290   0.01267  Uiso   1.00
C127   C     0.78350   0.28800   0.66080   0.01267  Uiso   1.00
C128   C     0.02150   0.41780   0.50350   0.01267  Uiso   1.00
C129   C     0.98930   0.43540   0.45810   0.01267  Uiso   1.00
C130   C     0.92540   0.39650   0.46720   0.01267  Uiso   1.00
C131   C     0.90390   0.41730   0.42290   0.01267  Uiso   1.00
C132   C     0.95170   0.47310   0.35720   0.01267  Uiso   1.00
C133   C     0.01260   0.51400   0.34860   0.01267  Uiso   1.00
C134   C     0.03220   0.49650   0.39620   0.01267  Uiso   1.00
C135   C     0.01910   0.34070   0.58630   0.01267  Uiso   1.00
C136   C     0.97746   0.26682   0.64259   0.01267  Uiso   1.00
C137   C     0.92329   0.24610   0.70422   0.01267  Uiso   1.00
C138   C     0.88738   0.17942   0.75328   0.01267  Uiso   1.00
C139   C     0.90300   0.13358   0.74338   0.01267  Uiso   1.00
C140   C     0.95680   0.15290   0.68320   0.01267  Uiso   1.00
C141   C     0.99230   0.21935   0.63325   0.01267  Uiso   1.00
C142   C     0.72980   0.08570   0.54340   0.01267  Uiso   1.00
C143   C     0.75770   0.06720   0.59090   0.01267  Uiso   1.00
C144   C     0.78310   0.10290   0.62030   0.01267  Uiso   1.00
C145   C     0.81080   0.08550   0.65990   0.01267  Uiso   1.00
C146   C     0.81490   0.02670   0.67100   0.01267  Uiso   1.00
C147   C     0.78610   0.98650   0.64940   0.01267  Uiso   1.00
C148   C     0.76080   0.00670   0.60900   0.01267  Uiso   1.00
C149   C     0.71960   0.16130   0.45880   0.01267  Uiso   1.00
C150   C     0.73505   0.23251   0.43908   0.01267  Uiso   1.00
C151   C     0.69700   0.25671   0.46862   0.01267  Uiso   1.00
C152   C     0.71918   0.32498   0.43564   0.01267  Uiso   1.00
C153   C     0.77800   0.36871   0.37461   0.01267  Uiso   1.00
C154   C     0.81560   0.34517   0.34477   0.01267  Uiso   1.00
C155   C     0.79457   0.27809   0.37708   0.01267  Uiso   1.00
C156   C     0.64710   0.36890   0.58210   0.01267  Uiso   1.00
C157   C     0.60524   0.29914   0.60612   0.01267  Uiso   1.00
C158   C     0.61803   0.24643   0.63234   0.01267  Uiso   1.00
C159   C     0.57214   0.18024   0.65882   0.01267  Uiso   1.00
C160   C     0.50724   0.16254   0.66872   0.01267  Uiso   1.00
C161   C     0.49726   0.21356   0.63658   0.01267  Uiso   1.00
C162   C     0.54090   0.27950   0.61330   0.01267  Uiso   1.00
C163   C     0.74140   0.45830   0.56500   0.01267  Uiso   1.00
C164   C     0.78923   0.46866   0.59147   0.01267  Uiso   1.00
C165   C     0.85224   0.47797   0.55125   0.01267  Uiso   1.00
C166   C     0.90092   0.49288   0.56862   0.01267  Uiso   1.00
C167   C     0.89070   0.49900   0.62460   0.01267  Uiso   1.00
C168   C     0.82910   0.49070   0.66520   0.01267  Uiso   1.00
C169   C     0.77952   0.47524   0.64818   0.01267  Uiso   1.00
C170   C     0.68830   0.11600   0.87550   0.01267  Uiso   1.00
C171   C     0.74030   0.19828   0.84180   0.01267  Uiso   1.00
C172   C     0.76835   0.25517   0.77725   0.01267  Uiso   1.00
C173   C     0.80722   0.32320   0.75540   0.01267  Uiso   1.00
C174   C     0.82220   0.34110   0.80000   0.01267  Uiso   1.00
C175   C     0.79780   0.28950   0.86330   0.01267  Uiso   1.00
C176   C     0.75860   0.22260   0.88280   0.01267  Uiso   1.00
C177   C     0.62290   0.04270   0.86070   0.01267  Uiso   1.00
C178   C     0.58641   0.02732   0.82879   0.01267  Uiso   1.00
C179   C     0.61356   0.01852   0.77364   0.01267  Uiso   1.00
C180   C     0.57803   0.00761   0.74122   0.01267  Uiso   1.00
C181   C     0.51600   0.00500   0.76120   0.01267  Uiso   1.00
C182   C     0.48930   0.01350   0.81560   0.01267  Uiso   1.00
C183   C     0.52440   0.02460   0.84770   0.01267  Uiso   1.00
C184   C     0.02253   0.75133   0.87554   0.01267  Uiso   1.00
C185   C     0.01300   0.70360   0.84620   0.01267  Uiso   1.00
C186   C     0.09800   0.79990   0.83900   0.01267  Uiso   1.00
C187   C     0.98650   0.78620   0.86670   0.01267  Uiso   1.00
C188   C     0.99550   0.71200   0.94880   0.01267  Uiso   1.00
C189   C     0.10370   0.58220   0.92130   0.01267  Uiso   1.00
C190   C     0.05390   0.56460   0.89350   0.01267  Uiso   1.00
C191   C     0.02890   0.60350   0.86370   0.01267  Uiso   1.00
C192   C     0.98660   0.58270   0.84020   0.01267  Uiso   1.00
C193   C     0.97860   0.52690   0.83030   0.01267  Uiso   1.00
C194   C     0.99860   0.48600   0.86260   0.01267  Uiso   1.00
C195   C     0.03570   0.50350   0.89270   0.01267  Uiso   1.00
C196   C     0.17840   0.65930   0.92700   0.01267  Uiso   1.00
C197   C     0.21064   0.73318   0.90941   0.01267  Uiso   1.00
C198   C     0.17719   0.75390   0.95032   0.01267  Uiso   1.00
C199   C     0.20796   0.82058   0.93270   0.01267  Uiso   1.00
C200   C     0.26942   0.86642   0.87696   0.01267  Uiso   1.00
C201   C     0.30390   0.84710   0.83610   0.01267  Uiso   1.00
C202   C     0.27295   0.78065   0.85260   0.01267  Uiso   1.00
C203   C     0.14410   0.91430   0.62910   0.01267  Uiso   1.00
C204   C     0.19050   0.93280   0.65810   0.01267  Uiso   1.00
C205   C     0.18020   0.89710   0.72320   0.01267  Uiso   1.00
C206   C     0.22530   0.91450   0.74540   0.01267  Uiso   1.00
C207   C     0.28820   0.97330   0.69770   0.01267  Uiso   1.00
C208   C     0.29960   0.01350   0.63590   0.01267  Uiso   1.00
C209   C     0.25410   0.99330   0.61570   0.01267  Uiso   1.00
C210   C     0.05830   0.83870   0.62010   0.01267  Uiso   1.00
C211   C     0.00254   0.76749   0.67159   0.01267  Uiso   1.00
C212   C     0.94029   0.74329   0.72533   0.01267  Uiso   1.00
C213   C     0.89420   0.67502   0.76062   0.01267  Uiso   1.00
C214   C     0.90929   0.63129   0.74332   0.01267  Uiso   1.00
C215   C     0.97043   0.65483   0.68994   0.01267  Uiso   1.00
C216   C     0.01648   0.72191   0.65517   0.01267  Uiso   1.00
C217   C     0.77820   0.63110   0.95100   0.01267  Uiso   1.00
C218   C     0.80610   0.70086   0.90526   0.01267  Uiso   1.00
C219   C     0.87160   0.75357   0.87877   0.01267  Uiso   1.00
C220   C     0.89190   0.81976   0.83906   0.01267  Uiso   1.00
C221   C     0.84470   0.83746   0.83126   0.01267  Uiso   1.00
C222   C     0.78370   0.78644   0.85014   0.01267  Uiso   1.00
C223   C     0.76140   0.72050   0.89280   0.01267  Uiso   1.00
C224   C     0.78310   0.54170   0.02330   0.01267  Uiso   1.00
C225   C     0.82057   0.53134   0.06013   0.01267  Uiso   1.00
C226   C     0.87427   0.52203   0.02922   0.01267  Uiso   1.00
C227   C     0.90804   0.50712   0.06150   0.01267  Uiso   1.00
C228   C     0.89170   0.50100   0.12360   0.01267  Uiso   1.00
C229   C     0.83840   0.50930   0.15590   0.01267  Uiso   1.00
C230   C     0.80428   0.52476   0.12342   0.01267  Uiso   1.00
C231   C     0.07230   0.88400   0.99150   0.01267  Uiso   1.00
C232   C     0.04202   0.80172   0.04008   0.01267  Uiso   1.00
C233   C     0.01318   0.74483   0.03242   0.01267  Uiso   1.00
C234   C     0.98402   0.67680   0.07860   0.01267  Uiso   1.00
C235   C     0.98110   0.65890   0.14110   0.01267  Uiso   1.00
C236   C     0.00830   0.71050   0.15280   0.01267  Uiso   1.00
C237   C     0.03600   0.77740   0.10540   0.01267  Uiso   1.00
C238   C     0.08020   0.95730   0.90340   0.01267  Uiso   1.00
C239   C     0.05909   0.97268   0.85611   0.01267  Uiso   1.00
C240   C     0.09504   0.98148   0.79216   0.01267  Uiso   1.00
C241   C     0.07042   0.99239   0.74883   0.01267  Uiso   1.00
C242   C     0.01100   0.99500   0.76620   0.01267  Uiso   1.00
C243   C     0.97580   0.98650   0.82910   0.01267  Uiso   1.00
C244   C     0.99980   0.97540   0.87230   0.01267  Uiso   1.00
C245   C     0.27120   0.37313   0.75133   0.01267  Uiso   1.00
C246   C     0.30940   0.45020   0.70360   0.01267  Uiso   1.00
C247   C     0.29810   0.36110   0.79990   0.01267  Uiso   1.00
C248   C     0.20030   0.34710   0.78620   0.01267  Uiso   1.00
C249   C     0.28350   0.33920   0.71200   0.01267  Uiso   1.00
C250   C     0.52150   0.49650   0.58220   0.01267  Uiso   1.00
C251   C     0.48930   0.54190   0.56460   0.01267  Uiso   1.00
C252   C     0.42540   0.53280   0.60350   0.01267  Uiso   1.00
C253   C     0.40390   0.57710   0.58270   0.01267  Uiso   1.00
C254   C     0.45170   0.64280   0.52690   0.01267  Uiso   1.00
C255   C     0.51260   0.65140   0.48600   0.01267  Uiso   1.00
C256   C     0.53220   0.60380   0.50350   0.01267  Uiso   1.00
C257   C     0.51910   0.41370   0.65930   0.01267  Uiso   1.00
C258   C     0.47746   0.35741   0.73318   0.01267  Uiso   1.00
C259   C     0.42329   0.29578   0.75390   0.01267  Uiso   1.00
C260   C     0.38738   0.24672   0.82058   0.01267  Uiso   1.00
C261   C     0.40300   0.25662   0.86642   0.01267  Uiso   1.00
C262   C     0.45680   0.31680   0.84710   0.01267  Uiso   1.00
C263   C     0.49230   0.36675   0.78065   0.01267  Uiso   1.00
C264   C     0.22980   0.45660   0.91430   0.01267  Uiso   1.00
C265   C     0.25770   0.40910   0.93280   0.01267  Uiso   1.00
C266   C     0.28310   0.37970   0.89710   0.01267  Uiso   1.00
C267   C     0.31080   0.34010   0.91450   0.01267  Uiso   1.00
C268   C     0.31490   0.32900   0.97330   0.01267  Uiso   1.00
C269   C     0.28610   0.35060   0.01350   0.01267  Uiso   1.00
C270   C     0.26080   0.39100   0.99330   0.01267  Uiso   1.00
C271   C     0.21960   0.54120   0.83870   0.01267  Uiso   1.00
C272   C     0.23505   0.56092   0.76749   0.01267  Uiso   1.00
C273   C     0.19700   0.53138   0.74329   0.01267  Uiso   1.00
C274   C     0.21918   0.56436   0.67502   0.01267  Uiso   1.00
C275   C     0.27800   0.62539   0.63129   0.01267  Uiso   1.00
C276   C     0.31560   0.65523   0.65483   0.01267  Uiso   1.00
C277   C     0.29457   0.62292   0.72191   0.01267  Uiso   1.00
C278   C     0.14710   0.41790   0.63110   0.01267  Uiso   1.00
C279   C     0.10524   0.39388   0.70086   0.01267  Uiso   1.00
C280   C     0.11803   0.36766   0.75357   0.01267  Uiso   1.00
C281   C     0.07214   0.34118   0.81976   0.01267  Uiso   1.00
C282   C     0.00724   0.33128   0.83746   0.01267  Uiso   1.00
C283   C     0.99726   0.36342   0.78644   0.01267  Uiso   1.00
C284   C     0.04090   0.38670   0.72050   0.01267  Uiso   1.00
C285   C     0.24140   0.43500   0.54170   0.01267  Uiso   1.00
C286   C     0.28923   0.40853   0.53134   0.01267  Uiso   1.00
C287   C     0.35224   0.44875   0.52203   0.01267  Uiso   1.00
C288   C     0.40092   0.43138   0.50712   0.01267  Uiso   1.00
C289   C     0.39070   0.37540   0.50100   0.01267  Uiso   1.00
C290   C     0.32910   0.33480   0.50930   0.01267  Uiso   1.00
C291   C     0.27952   0.35182   0.52476   0.01267  Uiso   1.00
C292   C     0.18830   0.12450   0.88400   0.01267  Uiso   1.00
C293   C     0.24030   0.15820   0.80172   0.01267  Uiso   1.00
C294   C     0.26835   0.22275   0.74483   0.01267  Uiso   1.00
C295   C     0.30722   0.24460   0.67680   0.01267  Uiso   1.00
C296   C     0.32220   0.20000   0.65890   0.01267  Uiso   1.00
C297   C     0.29780   0.13670   0.71050   0.01267  Uiso   1.00
C298   C     0.25860   0.11720   0.77740   0.01267  Uiso   1.00
C299   C     0.12290   0.13930   0.95730   0.01267  Uiso   1.00
C300   C     0.08641   0.17121   0.97268   0.01267  Uiso   1.00
C301   C     0.11356   0.22636   0.98148   0.01267  Uiso   1.00
C302   C     0.07803   0.25878   0.99239   0.01267  Uiso   1.00
C303   C     0.01600   0.23880   0.99500   0.01267  Uiso   1.00
C304   C     0.98930   0.18440   0.98650   0.01267  Uiso   1.00
C305   C     0.02440   0.15230   0.97540   0.01267  Uiso   1.00
C306   C     0.89807   0.87554   0.37313   0.01267  Uiso   1.00
C307   C     0.85920   0.84620   0.45020   0.01267  Uiso   1.00
C308   C     0.93700   0.83900   0.36110   0.01267  Uiso   1.00
C309   C     0.85320   0.86670   0.34710   0.01267  Uiso   1.00
C310   C     0.94430   0.94880   0.33920   0.01267  Uiso   1.00
C311   C     0.02500   0.92130   0.49650   0.01267  Uiso   1.00
C312   C     0.94740   0.89350   0.54190   0.01267  Uiso   1.00
C313   C     0.89260   0.86370   0.53280   0.01267  Uiso   1.00
C314   C     0.82680   0.84020   0.57710   0.01267  Uiso   1.00
C315   C     0.80890   0.83030   0.64280   0.01267  Uiso   1.00
C316   C     0.86120   0.86260   0.65140   0.01267  Uiso   1.00
C317   C     0.92840   0.89270   0.60380   0.01267  Uiso   1.00
C318   C     0.10540   0.92700   0.41370   0.01267  Uiso   1.00
C319   C     0.12005   0.90941   0.35741   0.01267  Uiso   1.00
C320   C     0.12751   0.95032   0.29578   0.01267  Uiso   1.00
C321   C     0.14066   0.93270   0.24672   0.01267  Uiso   1.00
C322   C     0.14638   0.87696   0.25662   0.01267  Uiso   1.00
C323   C     0.14000   0.83610   0.31680   0.01267  Uiso   1.00
C324   C     0.12555   0.85260   0.36675   0.01267  Uiso   1.00
C325   C     0.77320   0.62910   0.45660   0.01267  Uiso   1.00
C326   C     0.84860   0.65810   0.40910   0.01267  Uiso   1.00
C327   C     0.90340   0.72320   0.37970   0.01267  Uiso   1.00
C328   C     0.97070   0.74540   0.34010   0.01267  Uiso   1.00
C329   C     0.98590   0.69770   0.32900   0.01267  Uiso   1.00
C330   C     0.93550   0.63590   0.35060   0.01267  Uiso   1.00
C331   C     0.86980   0.61570   0.39100   0.01267  Uiso   1.00
C332   C     0.67840   0.62010   0.54120   0.01267  Uiso   1.00
C333   C     0.67413   0.67159   0.56092   0.01267  Uiso   1.00
C334   C     0.66562   0.72533   0.53138   0.01267  Uiso   1.00
C335   C     0.65482   0.76062   0.56436   0.01267  Uiso   1.00
C336   C     0.65261   0.74332   0.62539   0.01267  Uiso   1.00
C337   C     0.66037   0.68994   0.65523   0.01267  Uiso   1.00
C338   C     0.67165   0.65517   0.62292   0.01267  Uiso   1.00
C339   C     0.72920   0.95100   0.41790   0.01267  Uiso   1.00
C340   C     0.71136   0.90526   0.39388   0.01267  Uiso   1.00
C341   C     0.75037   0.87877   0.36766   0.01267  Uiso   1.00
C342   C     0.73096   0.83906   0.34118   0.01267  Uiso   1.00
C343   C     0.67596   0.83126   0.33128   0.01267  Uiso   1.00
C344   C     0.63384   0.85014   0.36342   0.01267  Uiso   1.00
C345   C     0.65420   0.89280   0.38670   0.01267  Uiso   1.00
C346   C     0.80640   0.02330   0.43500   0.01267  Uiso   1.00
C347   C     0.88070   0.06013   0.40853   0.01267  Uiso   1.00
C348   C     0.90349   0.02922   0.44875   0.01267  Uiso   1.00
C349   C     0.96954   0.06150   0.43138   0.01267  Uiso   1.00
C350   C     0.01530   0.12360   0.37540   0.01267  Uiso   1.00
C351   C     0.99430   0.15590   0.33480   0.01267  Uiso   1.00
C352   C     0.92770   0.12342   0.35182   0.01267  Uiso   1.00
C353   C     0.06380   0.99150   0.12450   0.01267  Uiso   1.00
C354   C     0.08210   0.04008   0.15820   0.01267  Uiso   1.00
C355   C     0.04560   0.03242   0.22275   0.01267  Uiso   1.00
C356   C     0.06262   0.07860   0.24460   0.01267  Uiso   1.00
C357   C     0.12220   0.14110   0.20000   0.01267  Uiso   1.00
C358   C     0.16110   0.15280   0.13670   0.01267  Uiso   1.00
C359   C     0.14140   0.10540   0.11720   0.01267  Uiso   1.00
C360   C     0.98360   0.90340   0.13930   0.01267  Uiso   1.00
C361   C     0.91520   0.85611   0.17121   0.01267  Uiso   1.00
C362   C     0.88720   0.79216   0.22636   0.01267  Uiso   1.00
C363   C     0.81925   0.74883   0.25878   0.01267  Uiso   1.00
C364   C     0.77720   0.76620   0.23880   0.01267  Uiso   1.00
C365   C     0.80490   0.82910   0.18440   0.01267  Uiso   1.00
C366   C     0.87210   0.87230   0.15230   0.01267  Uiso   1.00
N1     N     0.53910   0.54400   0.10000   0.01267  Uiso   1.00
N2     N     0.25130   0.50110   0.34780   0.01267  Uiso   1.00
N3     N     0.29490   0.60890   0.00320   0.01267  Uiso   1.00
N4     N     0.50280   0.85360   0.04150   0.01267  Uiso   1.00
N5     N     0.53010   0.40600   0.96350   0.01267  Uiso   1.00
N6     N     0.73600   0.47380   0.87080   0.01267  Uiso   1.00
N7     N     0.67201   0.61501   0.84278   0.01267  Uiso   1.00
N8     N     0.69028   0.91006   0.11362   0.01267  Uiso   1.00
N9     N     0.63910   0.10000   0.35600   0.01267  Uiso   1.00
N10    N     0.59910   0.34780   0.15110   0.01267  Uiso   1.00
N11    N     0.29810   0.00320   0.38790   0.01267  Uiso   1.00
N12    N     0.54430   0.04150   0.10490   0.01267  Uiso   1.00
N13    N     0.49360   0.96350   0.63050   0.01267  Uiso   1.00
N14    N     0.60680   0.87080   0.65540   0.01267  Uiso   1.00
N15    N     0.51479   0.84278   0.54221   0.01267  Uiso   1.00
N16    N     0.80390   0.11362   0.97632   0.01267  Uiso   1.00
N17    N     0.99510   0.35600   0.54400   0.01267  Uiso   1.00
N18    N     0.75020   0.15110   0.50110   0.01267  Uiso   1.00
N19    N     0.68600   0.38790   0.60890   0.01267  Uiso   1.00
N20    N     0.64920   0.10490   0.85360   0.01267  Uiso   1.00
N21    N     0.12410   0.63050   0.40600   0.01267  Uiso   1.00
N22    N     0.26220   0.65540   0.47380   0.01267  Uiso   1.00
N23    N     0.05700   0.54221   0.61501   0.01267  Uiso   1.00
N24    N     0.78022   0.97632   0.91006   0.01267  Uiso   1.00
N25    N     0.13910   0.64400   0.90000   0.01267  Uiso   1.00
N26    N     0.09910   0.84890   0.65220   0.01267  Uiso   1.00
N27    N     0.79810   0.61210   0.99680   0.01267  Uiso   1.00
N28    N     0.04430   0.89510   0.95850   0.01267  Uiso   1.00
N29    N     0.99360   0.36950   0.03650   0.01267  Uiso   1.00
N30    N     0.10680   0.34460   0.12920   0.01267  Uiso   1.00
N31    N     0.01479   0.45779   0.15722   0.01267  Uiso   1.00
N32    N     0.30390   0.02368   0.88638   0.01267  Uiso   1.00
N33    N     0.49510   0.45600   0.64400   0.01267  Uiso   1.00
N34    N     0.25020   0.49890   0.84890   0.01267  Uiso   1.00
N35    N     0.18600   0.39110   0.61210   0.01267  Uiso   1.00
N36    N     0.14920   0.14640   0.89510   0.01267  Uiso   1.00
N37    N     0.62410   0.59400   0.36950   0.01267  Uiso   1.00
N38    N     0.76220   0.52620   0.34460   0.01267  Uiso   1.00
N39    N     0.55700   0.38499   0.45779   0.01267  Uiso   1.00
N40    N     0.28022   0.08994   0.02368   0.01267  Uiso   1.00
N41    N     0.03910   0.90000   0.45600   0.01267  Uiso   1.00
N42    N     0.75130   0.65220   0.49890   0.01267  Uiso   1.00
N43    N     0.79490   0.99680   0.39110   0.01267  Uiso   1.00
N44    N     0.00280   0.95850   0.14640   0.01267  Uiso   1.00
N45    N     0.03010   0.03650   0.59400   0.01267  Uiso   1.00
N46    N     0.23600   0.12920   0.52620   0.01267  Uiso   1.00
N47    N     0.17201   0.15722   0.38499   0.01267  Uiso   1.00
N48    N     0.19028   0.88638   0.08994   0.01267  Uiso   1.00
O1     O     0.41530   0.53210   0.12860   0.01267  Uiso   1.00
O2     O     0.38280   0.60497   0.23417   0.01267  Uiso   1.00
O3     O     0.30810   0.62980   0.10510   0.01267  Uiso   1.00
O4     O     0.48697   0.73634   0.02933   0.01267  Uiso   1.00
O5     O     0.56803   0.49665   0.04086   0.01267  Uiso   1.00
O6     O     0.22798   0.53984   0.42440   0.01267  Uiso   1.00
O7     O     0.18596   0.53979   0.04011   0.01267  Uiso   1.00
O8     O     0.61153   0.92072   0.99723   0.01267  Uiso   1.00
O9     O     0.55895   0.46710   0.92035   0.01267  Uiso   1.00
O10    O     0.54978   0.38658   0.00354   0.01267  Uiso   1.00
O11    O     0.47270   0.36490   0.97700   0.01267  Uiso   1.00
O12    O     0.75756   0.51192   0.89194   0.01267  Uiso   1.00
O13    O     0.67490   0.44360   0.88920   0.01267  Uiso   1.00
O14    O     0.77943   0.47543   0.82224   0.01267  Uiso   1.00
O15    O     0.70615   0.58645   0.83150   0.01267  Uiso   1.00
O16    O     0.63502   0.59853   0.90337   0.01267  Uiso   1.00
O17    O     0.68876   0.67116   0.79678   0.01267  Uiso   1.00
O18    O     0.64727   0.88958   0.09707   0.01267  Uiso   1.00
O19    O     0.73144   0.97138   0.08416   0.01267  Uiso   1.00
O20    O     0.69640   0.86900   0.15500   0.01267  Uiso   1.00
O21    O     0.54390   0.12860   0.33930   0.01267  Uiso   1.00
O22    O     0.61697   0.23417   0.16086   0.01267  Uiso   1.00
O23    O     0.41320   0.10510   0.26510   0.01267  Uiso   1.00
O24    O     0.51630   0.02933   0.23433   0.01267  Uiso   1.00
O25    O     0.60889   0.04086   0.46249   0.01267  Uiso   1.00
O26    O     0.65238   0.42440   0.03576   0.01267  Uiso   1.00
O27    O     0.22607   0.04011   0.42010   0.01267  Uiso   1.00
O28    O     0.60876   0.99723   0.08205   0.01267  Uiso   1.00
O29    O     0.47930   0.92035   0.61255   0.01267  Uiso   1.00
O30    O     0.55332   0.00354   0.60988   0.01267  Uiso   1.00
O31    O     0.44970   0.97700   0.65810   0.01267  Uiso   1.00
O32    O     0.64950   0.89194   0.59614   0.01267  Uiso   1.00
O33    O     0.56410   0.88920   0.66720   0.01267  Uiso   1.00
O34    O     0.60167   0.82224   0.70233   0.01267  Uiso   1.00
O35    O     0.53765   0.83150   0.58205   0.01267  Uiso   1.00
O36    O     0.53839   0.90337   0.49810   0.01267  Uiso   1.00
O37    O     0.48554   0.79678   0.53206   0.01267  Uiso   1.00
O38    O     0.74434   0.09707   0.01335   0.01267  Uiso   1.00
O39    O     0.81560   0.08416   0.94446   0.01267  Uiso   1.00
O40    O     0.85140   0.15500   0.97600   0.01267  Uiso   1.00
O41    O     0.88320   0.33930   0.53210   0.01267  Uiso   1.00
O42    O     0.77783   0.16086   0.60497   0.01267  Uiso   1.00
O43    O     0.67830   0.26510   0.62980   0.01267  Uiso   1.00
O44    O     0.75063   0.23433   0.73634   0.01267  Uiso   1.00
O45    O     0.07138   0.46249   0.49665   0.01267  Uiso   1.00
O46    O     0.68814   0.03576   0.53984   0.01267  Uiso   1.00
O47    O     0.64617   0.42010   0.53979   0.01267  Uiso   1.00
O48    O     0.69081   0.08205   0.92072   0.01267  Uiso   1.00
O49    O     0.09185   0.61255   0.46710   0.01267  Uiso   1.00
O50    O     0.16320   0.60988   0.38658   0.01267  Uiso   1.00
O51    O     0.10780   0.65810   0.36490   0.01267  Uiso   1.00
O52    O     0.24564   0.59614   0.51192   0.01267  Uiso   1.00
O53    O     0.23130   0.66720   0.44360   0.01267  Uiso   1.00
O54    O     0.30400   0.70233   0.47543   0.01267  Uiso   1.00
O55    O     0.11970   0.58205   0.58645   0.01267  Uiso   1.00
O56    O     0.03649   0.49810   0.59853   0.01267  Uiso   1.00
O57    O     0.01760   0.53206   0.67116   0.01267  Uiso   1.00
O58    O     0.75769   0.01335   0.88958   0.01267  Uiso   1.00
O59    O     0.76006   0.94446   0.97138   0.01267  Uiso   1.00
O60    O     0.82740   0.97600   0.86900   0.01267  Uiso   1.00
O61    O     0.04390   0.66070   0.87140   0.01267  Uiso   1.00
O62    O     0.11697   0.83914   0.76583   0.01267  Uiso   1.00
O63    O     0.91320   0.73490   0.89490   0.01267  Uiso   1.00
O64    O     0.01630   0.76567   0.97067   0.01267  Uiso   1.00
O65    O     0.10889   0.53751   0.95914   0.01267  Uiso   1.00
O66    O     0.15238   0.96424   0.57560   0.01267  Uiso   1.00
O67    O     0.72607   0.57990   0.95989   0.01267  Uiso   1.00
O68    O     0.10876   0.91795   0.00277   0.01267  Uiso   1.00
O69    O     0.97930   0.38745   0.07965   0.01267  Uiso   1.00
O70    O     0.05332   0.39012   0.99646   0.01267  Uiso   1.00
O71    O     0.94970   0.34190   0.02300   0.01267  Uiso   1.00
O72    O     0.14950   0.40386   0.10806   0.01267  Uiso   1.00
O73    O     0.06410   0.33280   0.11080   0.01267  Uiso   1.00
O74    O     0.10167   0.29767   0.17776   0.01267  Uiso   1.00
O75    O     0.03765   0.41795   0.16850   0.01267  Uiso   1.00
O76    O     0.03839   0.50190   0.09663   0.01267  Uiso   1.00
O77    O     0.98554   0.46794   0.20322   0.01267  Uiso   1.00
O78    O     0.24434   0.98665   0.90293   0.01267  Uiso   1.00
O79    O     0.31560   0.05554   0.91584   0.01267  Uiso   1.00
O80    O     0.35140   0.02400   0.84500   0.01267  Uiso   1.00
O81    O     0.38320   0.46790   0.66070   0.01267  Uiso   1.00
O82    O     0.27783   0.39503   0.83914   0.01267  Uiso   1.00
O83    O     0.17830   0.37020   0.73490   0.01267  Uiso   1.00
O84    O     0.25063   0.26366   0.76567   0.01267  Uiso   1.00
O85    O     0.57138   0.50335   0.53751   0.01267  Uiso   1.00
O86    O     0.18814   0.46016   0.96424   0.01267  Uiso   1.00
O87    O     0.14617   0.46021   0.57990   0.01267  Uiso   1.00
O88    O     0.19081   0.07928   0.91795   0.01267  Uiso   1.00
O89    O     0.59185   0.53290   0.38745   0.01267  Uiso   1.00
O90    O     0.66320   0.61342   0.39012   0.01267  Uiso   1.00
O91    O     0.60780   0.63510   0.34190   0.01267  Uiso   1.00
O92    O     0.74564   0.48808   0.40386   0.01267  Uiso   1.00
O93    O     0.73130   0.55640   0.33280   0.01267  Uiso   1.00
O94    O     0.80400   0.52457   0.29767   0.01267  Uiso   1.00
O95    O     0.61970   0.41355   0.41795   0.01267  Uiso   1.00
O96    O     0.53649   0.40147   0.50190   0.01267  Uiso   1.00
O97    O     0.51760   0.32884   0.46794   0.01267  Uiso   1.00
O98    O     0.25769   0.11042   0.98665   0.01267  Uiso   1.00
O99    O     0.26006   0.02862   0.05554   0.01267  Uiso   1.00
O100   O     0.32740   0.13100   0.02400   0.01267  Uiso   1.00
O101   O     0.91530   0.87140   0.46790   0.01267  Uiso   1.00
O102   O     0.88280   0.76583   0.39503   0.01267  Uiso   1.00
O103   O     0.80810   0.89490   0.37020   0.01267  Uiso   1.00
O104   O     0.98697   0.97067   0.26366   0.01267  Uiso   1.00
O105   O     0.06803   0.95914   0.50335   0.01267  Uiso   1.00
O106   O     0.72798   0.57560   0.46016   0.01267  Uiso   1.00
O107   O     0.68596   0.95989   0.46021   0.01267  Uiso   1.00
O108   O     0.11153   0.00277   0.07928   0.01267  Uiso   1.00
O109   O     0.05895   0.07965   0.53290   0.01267  Uiso   1.00
O110   O     0.04978   0.99646   0.61342   0.01267  Uiso   1.00
O111   O     0.97270   0.02300   0.63510   0.01267  Uiso   1.00
O112   O     0.25756   0.10806   0.48808   0.01267  Uiso   1.00
O113   O     0.17490   0.11080   0.55640   0.01267  Uiso   1.00
O114   O     0.27943   0.17776   0.52457   0.01267  Uiso   1.00
O115   O     0.20615   0.16850   0.41355   0.01267  Uiso   1.00
O116   O     0.13502   0.09663   0.40147   0.01267  Uiso   1.00
O117   O     0.18876   0.20322   0.32884   0.01267  Uiso   1.00
O118   O     0.14727   0.90293   0.11042   0.01267  Uiso   1.00
O119   O     0.23144   0.91584   0.02862   0.01267  Uiso   1.00
O120   O     0.19640   0.84500   0.13100   0.01267  Uiso   1.00
