data_image0
_cell_length_a       35.252
_cell_length_b       39.509
_cell_length_c       8.153
_cell_angle_alpha    90
_cell_angle_beta     90
_cell_angle_gamma    90

_symmetry_space_group_name_H-M    "P 1"
_symmetry_int_tables_number       1

loop_
  _symmetry_equiv_pos_as_xyz
  'x, y, z'

loop_
  _atom_site_label
  _atom_site_occupancy
  _atom_site_fract_x
  _atom_site_fract_y
  _atom_site_fract_z
  _atom_site_thermal_displace_type
  _atom_site_B_iso_or_equiv
  _atom_site_type_symbol
  Zn1      1.0000 0.99780  0.31863  0.37808  Biso   1.000  Zn
  I1       1.0000 0.99795  0.32247  0.06645  Biso   1.000  I
  I2       1.0000 0.93484  0.30927  0.51727  Biso   1.000  I
  I3       1.0000 0.29334  0.21146  0.62300  Biso   1.000  I
  N1       1.0000 0.13820  0.22370  0.77330  Biso   1.000  N
  N2       1.0000 0.13920  0.19550  0.51450  Biso   1.000  N
  N3       1.0000 0.18470  0.18160  0.71920  Biso   1.000  N
  C1       1.0000 0.16810  0.20510  0.81430  Biso   1.000  C
  C2       1.0000 0.12520  0.21760  0.62270  Biso   1.000  C
  C3       1.0000 0.16990  0.17790  0.57340  Biso   1.000  C
  N4       1.0000 0.21760  0.22670  0.28180  Biso   1.000  N
  C4       1.0000 0.18410  0.24000  0.23860  Biso   1.000  C
  H1       1.0000 0.17170  0.25500  0.31240  Biso   1.000  H
  C5       1.0000 0.16680  0.23260  0.09040  Biso   1.000  C
  H2       1.0000 0.14270  0.24210  0.06570  Biso   1.000  H
  C6       1.0000 0.18460  0.21150  0.97700  Biso   1.000  C
  C7       1.0000 0.21910  0.19700  0.02730  Biso   1.000  C
  H3       1.0000 0.23150  0.18130  0.95670  Biso   1.000  H
  C8       1.0000 0.23540  0.20470  0.17540  Biso   1.000  C
  H4       1.0000 0.25910  0.19500  0.20470  Biso   1.000  H
  N5       1.0000 0.03610  0.28260  0.45560  Biso   1.000  N
  C9       1.0000 0.04580  0.28050  0.61310  Biso   1.000  C
  H5       1.0000 0.03190  0.29360  0.69020  Biso   1.000  H
  C10      1.0000 0.07450  0.26050  0.66970  Biso   1.000  C
  H6       1.0000 0.08130  0.26090  0.78230  Biso   1.000  H
  C11      1.0000 0.09320  0.23990  0.56280  Biso   1.000  C
  C12      1.0000 0.08210  0.24000  0.39970  Biso   1.000  C
  H7       1.0000 0.09360  0.22490  0.32360  Biso   1.000  H
  C13      1.0000 0.05460  0.26210  0.34910  Biso   1.000  C
  H8       1.0000 0.04820  0.26310  0.23600  Biso   1.000  H
  N6       1.0000 0.22600  0.10859  0.25630  Biso   1.000  N
  C14      1.0000 0.19160  0.11950  0.22090  Biso   1.000  C
  H9       1.0000 0.17990  0.11110  0.12430  Biso   1.000  H
  C15      1.0000 0.17130  0.14250  0.31480  Biso   1.000  C
  H10      1.0000 0.14720  0.15060  0.28080  Biso   1.000  H
  C16      1.0000 0.18770  0.15310  0.45940  Biso   1.000  C
  C17      1.0000 0.22390  0.14180  0.50030  Biso   1.000  C
  H11      1.0000 0.23600  0.14910  0.59810  Biso   1.000  H
  C18      1.0000 0.24180  0.11930  0.39320  Biso   1.000  C
  H12      1.0000 0.26650  0.11140  0.42030  Biso   1.000  H
  Zn2      1.0000 0.99780  0.81863  0.87808  Biso   1.000  Zn
  I4       1.0000 0.99795  0.82247  0.56645  Biso   1.000  I
  I5       1.0000 0.93484  0.80927  0.01727  Biso   1.000  I
  I6       1.0000 0.29334  0.71146  0.12300  Biso   1.000  I
  N7       1.0000 0.13820  0.72370  0.27330  Biso   1.000  N
  N8       1.0000 0.13920  0.69550  0.01450  Biso   1.000  N
  N9       1.0000 0.18470  0.68160  0.21920  Biso   1.000  N
  C19      1.0000 0.16810  0.70510  0.31430  Biso   1.000  C
  C20      1.0000 0.12520  0.71760  0.12270  Biso   1.000  C
  C21      1.0000 0.16990  0.67790  0.07340  Biso   1.000  C
  N10      1.0000 0.21760  0.72670  0.78180  Biso   1.000  N
  C22      1.0000 0.18410  0.74000  0.73860  Biso   1.000  C
  H13      1.0000 0.17170  0.75500  0.81240  Biso   1.000  H
  C23      1.0000 0.16680  0.73260  0.59040  Biso   1.000  C
  H14      1.0000 0.14270  0.74210  0.56570  Biso   1.000  H
  C24      1.0000 0.18460  0.71150  0.47700  Biso   1.000  C
  C25      1.0000 0.21910  0.69700  0.52730  Biso   1.000  C
  H15      1.0000 0.23150  0.68130  0.45670  Biso   1.000  H
  C26      1.0000 0.23540  0.70470  0.67540  Biso   1.000  C
  H16      1.0000 0.25910  0.69500  0.70470  Biso   1.000  H
  N11      1.0000 0.03610  0.78260  0.95560  Biso   1.000  N
  C27      1.0000 0.04580  0.78050  0.11310  Biso   1.000  C
  H17      1.0000 0.03190  0.79360  0.19020  Biso   1.000  H
  C28      1.0000 0.07450  0.76050  0.16970  Biso   1.000  C
  H18      1.0000 0.08130  0.76090  0.28230  Biso   1.000  H
  C29      1.0000 0.09320  0.73990  0.06280  Biso   1.000  C
  C30      1.0000 0.08210  0.74000  0.89970  Biso   1.000  C
  H19      1.0000 0.09360  0.72490  0.82360  Biso   1.000  H
  C31      1.0000 0.05460  0.76210  0.84910  Biso   1.000  C
  H20      1.0000 0.04820  0.76310  0.73600  Biso   1.000  H
  N12      1.0000 0.22600  0.60859  0.75630  Biso   1.000  N
  C32      1.0000 0.19160  0.61950  0.72090  Biso   1.000  C
  H21      1.0000 0.17990  0.61110  0.62430  Biso   1.000  H
  C33      1.0000 0.17130  0.64250  0.81480  Biso   1.000  C
  H22      1.0000 0.14720  0.65060  0.78080  Biso   1.000  H
  C34      1.0000 0.18770  0.65310  0.95940  Biso   1.000  C
  C35      1.0000 0.22390  0.64180  0.00030  Biso   1.000  C
  H23      1.0000 0.23600  0.64910  0.09810  Biso   1.000  H
  C36      1.0000 0.24180  0.61930  0.89320  Biso   1.000  C
  H24      1.0000 0.26650  0.61140  0.92030  Biso   1.000  H
  Zn3      1.0000 0.49780  0.31863  0.87808  Biso   1.000  Zn
  I7       1.0000 0.49795  0.32247  0.56645  Biso   1.000  I
  I8       1.0000 0.43484  0.30927  0.01727  Biso   1.000  I
  I9       1.0000 0.79334  0.21146  0.12300  Biso   1.000  I
  N13      1.0000 0.63820  0.22370  0.27330  Biso   1.000  N
  N14      1.0000 0.63920  0.19550  0.01450  Biso   1.000  N
  N15      1.0000 0.68470  0.18160  0.21920  Biso   1.000  N
  C37      1.0000 0.66810  0.20510  0.31430  Biso   1.000  C
  C38      1.0000 0.62520  0.21760  0.12270  Biso   1.000  C
  C39      1.0000 0.66990  0.17790  0.07340  Biso   1.000  C
  N16      1.0000 0.71760  0.22670  0.78180  Biso   1.000  N
  C40      1.0000 0.68410  0.24000  0.73860  Biso   1.000  C
  H25      1.0000 0.67170  0.25500  0.81240  Biso   1.000  H
  C41      1.0000 0.66680  0.23260  0.59040  Biso   1.000  C
  H26      1.0000 0.64270  0.24210  0.56570  Biso   1.000  H
  C42      1.0000 0.68460  0.21150  0.47700  Biso   1.000  C
  C43      1.0000 0.71910  0.19700  0.52730  Biso   1.000  C
  H27      1.0000 0.73150  0.18130  0.45670  Biso   1.000  H
  C44      1.0000 0.73540  0.20470  0.67540  Biso   1.000  C
  H28      1.0000 0.75910  0.19500  0.70470  Biso   1.000  H
  N17      1.0000 0.53610  0.28260  0.95560  Biso   1.000  N
  C45      1.0000 0.54580  0.28050  0.11310  Biso   1.000  C
  H29      1.0000 0.53190  0.29360  0.19020  Biso   1.000  H
  C46      1.0000 0.57450  0.26050  0.16970  Biso   1.000  C
  H30      1.0000 0.58130  0.26090  0.28230  Biso   1.000  H
  C47      1.0000 0.59320  0.23990  0.06280  Biso   1.000  C
  C48      1.0000 0.58210  0.24000  0.89970  Biso   1.000  C
  H31      1.0000 0.59360  0.22490  0.82360  Biso   1.000  H
  C49      1.0000 0.55460  0.26210  0.84910  Biso   1.000  C
  H32      1.0000 0.54820  0.26310  0.73600  Biso   1.000  H
  N18      1.0000 0.72600  0.10859  0.75630  Biso   1.000  N
  C50      1.0000 0.69160  0.11950  0.72090  Biso   1.000  C
  H33      1.0000 0.67990  0.11110  0.62430  Biso   1.000  H
  C51      1.0000 0.67130  0.14250  0.81480  Biso   1.000  C
  H34      1.0000 0.64720  0.15060  0.78080  Biso   1.000  H
  C52      1.0000 0.68770  0.15310  0.95940  Biso   1.000  C
  C53      1.0000 0.72390  0.14180  0.00030  Biso   1.000  C
  H35      1.0000 0.73600  0.14910  0.09810  Biso   1.000  H
  C54      1.0000 0.74180  0.11930  0.89320  Biso   1.000  C
  H36      1.0000 0.76650  0.11140  0.92030  Biso   1.000  H
  Zn4      1.0000 0.49780  0.81863  0.37808  Biso   1.000  Zn
  I10      1.0000 0.49795  0.82247  0.06645  Biso   1.000  I
  I11      1.0000 0.43484  0.80927  0.51727  Biso   1.000  I
  I12      1.0000 0.79334  0.71146  0.62300  Biso   1.000  I
  N19      1.0000 0.63820  0.72370  0.77330  Biso   1.000  N
  N20      1.0000 0.63920  0.69550  0.51450  Biso   1.000  N
  N21      1.0000 0.68470  0.68160  0.71920  Biso   1.000  N
  C55      1.0000 0.66810  0.70510  0.81430  Biso   1.000  C
  C56      1.0000 0.62520  0.71760  0.62270  Biso   1.000  C
  C57      1.0000 0.66990  0.67790  0.57340  Biso   1.000  C
  N22      1.0000 0.71760  0.72670  0.28180  Biso   1.000  N
  C58      1.0000 0.68410  0.74000  0.23860  Biso   1.000  C
  H37      1.0000 0.67170  0.75500  0.31240  Biso   1.000  H
  C59      1.0000 0.66680  0.73260  0.09040  Biso   1.000  C
  H38      1.0000 0.64270  0.74210  0.06570  Biso   1.000  H
  C60      1.0000 0.68460  0.71150  0.97700  Biso   1.000  C
  C61      1.0000 0.71910  0.69700  0.02730  Biso   1.000  C
  H39      1.0000 0.73150  0.68130  0.95670  Biso   1.000  H
  C62      1.0000 0.73540  0.70470  0.17540  Biso   1.000  C
  H40      1.0000 0.75910  0.69500  0.20470  Biso   1.000  H
  N23      1.0000 0.53610  0.78260  0.45560  Biso   1.000  N
  C63      1.0000 0.54580  0.78050  0.61310  Biso   1.000  C
  H41      1.0000 0.53190  0.79360  0.69020  Biso   1.000  H
  C64      1.0000 0.57450  0.76050  0.66970  Biso   1.000  C
  H42      1.0000 0.58130  0.76090  0.78230  Biso   1.000  H
  C65      1.0000 0.59320  0.73990  0.56280  Biso   1.000  C
  C66      1.0000 0.58210  0.74000  0.39970  Biso   1.000  C
  H43      1.0000 0.59360  0.72490  0.32360  Biso   1.000  H
  C67      1.0000 0.55460  0.76210  0.34910  Biso   1.000  C
  H44      1.0000 0.54820  0.76310  0.23600  Biso   1.000  H
  N24      1.0000 0.72600  0.60859  0.25630  Biso   1.000  N
  C68      1.0000 0.69160  0.61950  0.22090  Biso   1.000  C
  H45      1.0000 0.67990  0.61110  0.12430  Biso   1.000  H
  C69      1.0000 0.67130  0.64250  0.31480  Biso   1.000  C
  H46      1.0000 0.64720  0.65060  0.28080  Biso   1.000  H
  C70      1.0000 0.68770  0.65310  0.45940  Biso   1.000  C
  C71      1.0000 0.72390  0.64180  0.50030  Biso   1.000  C
  H47      1.0000 0.73600  0.64910  0.59810  Biso   1.000  H
  C72      1.0000 0.74180  0.61930  0.39320  Biso   1.000  C
  H48      1.0000 0.76650  0.61140  0.42030  Biso   1.000  H
  Zn5      1.0000 0.00220  0.68137  0.37808  Biso   1.000  Zn
  I13      1.0000 0.00205  0.67753  0.06645  Biso   1.000  I
  I14      1.0000 0.06516  0.69073  0.51727  Biso   1.000  I
  I15      1.0000 0.70666  0.78854  0.62300  Biso   1.000  I
  N25      1.0000 0.86180  0.77630  0.77330  Biso   1.000  N
  N26      1.0000 0.86080  0.80450  0.51450  Biso   1.000  N
  N27      1.0000 0.81530  0.81840  0.71920  Biso   1.000  N
  C73      1.0000 0.83190  0.79490  0.81430  Biso   1.000  C
  C74      1.0000 0.87480  0.78240  0.62270  Biso   1.000  C
  C75      1.0000 0.83010  0.82210  0.57340  Biso   1.000  C
  N28      1.0000 0.78240  0.77330  0.28180  Biso   1.000  N
  C76      1.0000 0.81590  0.76000  0.23860  Biso   1.000  C
  H49      1.0000 0.82830  0.74500  0.31240  Biso   1.000  H
  C77      1.0000 0.83320  0.76740  0.09040  Biso   1.000  C
  H50      1.0000 0.85730  0.75790  0.06570  Biso   1.000  H
  C78      1.0000 0.81540  0.78850  0.97700  Biso   1.000  C
  C79      1.0000 0.78090  0.80300  0.02730  Biso   1.000  C
  H51      1.0000 0.76850  0.81870  0.95670  Biso   1.000  H
  C80      1.0000 0.76460  0.79530  0.17540  Biso   1.000  C
  H52      1.0000 0.74090  0.80500  0.20470  Biso   1.000  H
  N29      1.0000 0.96390  0.71740  0.45560  Biso   1.000  N
  C81      1.0000 0.95420  0.71950  0.61310  Biso   1.000  C
  H53      1.0000 0.96810  0.70640  0.69020  Biso   1.000  H
  C82      1.0000 0.92550  0.73950  0.66970  Biso   1.000  C
  H54      1.0000 0.91870  0.73910  0.78230  Biso   1.000  H
  C83      1.0000 0.90680  0.76010  0.56280  Biso   1.000  C
  C84      1.0000 0.91790  0.76000  0.39970  Biso   1.000  C
  H55      1.0000 0.90640  0.77510  0.32360  Biso   1.000  H
  C85      1.0000 0.94540  0.73790  0.34910  Biso   1.000  C
  H56      1.0000 0.95180  0.73690  0.23600  Biso   1.000  H
  N30      1.0000 0.77400  0.89141  0.25630  Biso   1.000  N
  C86      1.0000 0.80840  0.88050  0.22090  Biso   1.000  C
  H57      1.0000 0.82010  0.88890  0.12430  Biso   1.000  H
  C87      1.0000 0.82870  0.85750  0.31480  Biso   1.000  C
  H58      1.0000 0.85280  0.84940  0.28080  Biso   1.000  H
  C88      1.0000 0.81230  0.84690  0.45940  Biso   1.000  C
  C89      1.0000 0.77610  0.85820  0.50030  Biso   1.000  C
  H59      1.0000 0.76400  0.85090  0.59810  Biso   1.000  H
  C90      1.0000 0.75820  0.88070  0.39320  Biso   1.000  C
  H60      1.0000 0.73350  0.88860  0.42030  Biso   1.000  H
  Zn6      1.0000 0.00220  0.18137  0.87808  Biso   1.000  Zn
  I16      1.0000 0.00205  0.17753  0.56645  Biso   1.000  I
  I17      1.0000 0.06516  0.19073  0.01727  Biso   1.000  I
  I18      1.0000 0.70666  0.28854  0.12300  Biso   1.000  I
  N31      1.0000 0.86180  0.27630  0.27330  Biso   1.000  N
  N32      1.0000 0.86080  0.30450  0.01450  Biso   1.000  N
  N33      1.0000 0.81530  0.31840  0.21920  Biso   1.000  N
  C91      1.0000 0.83190  0.29490  0.31430  Biso   1.000  C
  C92      1.0000 0.87480  0.28240  0.12270  Biso   1.000  C
  C93      1.0000 0.83010  0.32210  0.07340  Biso   1.000  C
  N34      1.0000 0.78240  0.27330  0.78180  Biso   1.000  N
  C94      1.0000 0.81590  0.26000  0.73860  Biso   1.000  C
  H61      1.0000 0.82830  0.24500  0.81240  Biso   1.000  H
  C95      1.0000 0.83320  0.26740  0.59040  Biso   1.000  C
  H62      1.0000 0.85730  0.25790  0.56570  Biso   1.000  H
  C96      1.0000 0.81540  0.28850  0.47700  Biso   1.000  C
  C97      1.0000 0.78090  0.30300  0.52730  Biso   1.000  C
  H63      1.0000 0.76850  0.31870  0.45670  Biso   1.000  H
  C98      1.0000 0.76460  0.29530  0.67540  Biso   1.000  C
  H64      1.0000 0.74090  0.30500  0.70470  Biso   1.000  H
  N35      1.0000 0.96390  0.21740  0.95560  Biso   1.000  N
  C99      1.0000 0.95420  0.21950  0.11310  Biso   1.000  C
  H65      1.0000 0.96810  0.20640  0.19020  Biso   1.000  H
  C100     1.0000 0.92550  0.23950  0.16970  Biso   1.000  C
  H66      1.0000 0.91870  0.23910  0.28230  Biso   1.000  H
  C101     1.0000 0.90680  0.26010  0.06280  Biso   1.000  C
  C102     1.0000 0.91790  0.26000  0.89970  Biso   1.000  C
  H67      1.0000 0.90640  0.27510  0.82360  Biso   1.000  H
  C103     1.0000 0.94540  0.23790  0.84910  Biso   1.000  C
  H68      1.0000 0.95180  0.23690  0.73600  Biso   1.000  H
  N36      1.0000 0.77400  0.39141  0.75630  Biso   1.000  N
  C104     1.0000 0.80840  0.38050  0.72090  Biso   1.000  C
  H69      1.0000 0.82010  0.38890  0.62430  Biso   1.000  H
  C105     1.0000 0.82870  0.35750  0.81480  Biso   1.000  C
  H70      1.0000 0.85280  0.34940  0.78080  Biso   1.000  H
  C106     1.0000 0.81230  0.34690  0.95940  Biso   1.000  C
  C107     1.0000 0.77610  0.35820  0.00030  Biso   1.000  C
  H71      1.0000 0.76400  0.35090  0.09810  Biso   1.000  H
  C108     1.0000 0.75820  0.38070  0.89320  Biso   1.000  C
  H72      1.0000 0.73350  0.38860  0.92030  Biso   1.000  H
  Zn7      1.0000 0.50220  0.68137  0.87808  Biso   1.000  Zn
  I19      1.0000 0.50205  0.67753  0.56645  Biso   1.000  I
  I20      1.0000 0.56516  0.69073  0.01727  Biso   1.000  I
  I21      1.0000 0.20666  0.78854  0.12300  Biso   1.000  I
  N37      1.0000 0.36180  0.77630  0.27330  Biso   1.000  N
  N38      1.0000 0.36080  0.80450  0.01450  Biso   1.000  N
  N39      1.0000 0.31530  0.81840  0.21920  Biso   1.000  N
  C109     1.0000 0.33190  0.79490  0.31430  Biso   1.000  C
  C110     1.0000 0.37480  0.78240  0.12270  Biso   1.000  C
  C111     1.0000 0.33010  0.82210  0.07340  Biso   1.000  C
  N40      1.0000 0.28240  0.77330  0.78180  Biso   1.000  N
  C112     1.0000 0.31590  0.76000  0.73860  Biso   1.000  C
  H73      1.0000 0.32830  0.74500  0.81240  Biso   1.000  H
  C113     1.0000 0.33320  0.76740  0.59040  Biso   1.000  C
  H74      1.0000 0.35730  0.75790  0.56570  Biso   1.000  H
  C114     1.0000 0.31540  0.78850  0.47700  Biso   1.000  C
  C115     1.0000 0.28090  0.80300  0.52730  Biso   1.000  C
  H75      1.0000 0.26850  0.81870  0.45670  Biso   1.000  H
  C116     1.0000 0.26460  0.79530  0.67540  Biso   1.000  C
  H76      1.0000 0.24090  0.80500  0.70470  Biso   1.000  H
  N41      1.0000 0.46390  0.71740  0.95560  Biso   1.000  N
  C117     1.0000 0.45420  0.71950  0.11310  Biso   1.000  C
  H77      1.0000 0.46810  0.70640  0.19020  Biso   1.000  H
  C118     1.0000 0.42550  0.73950  0.16970  Biso   1.000  C
  H78      1.0000 0.41870  0.73910  0.28230  Biso   1.000  H
  C119     1.0000 0.40680  0.76010  0.06280  Biso   1.000  C
  C120     1.0000 0.41790  0.76000  0.89970  Biso   1.000  C
  H79      1.0000 0.40640  0.77510  0.82360  Biso   1.000  H
  C121     1.0000 0.44540  0.73790  0.84910  Biso   1.000  C
  H80      1.0000 0.45180  0.73690  0.73600  Biso   1.000  H
  N42      1.0000 0.27400  0.89141  0.75630  Biso   1.000  N
  C122     1.0000 0.30840  0.88050  0.72090  Biso   1.000  C
  H81      1.0000 0.32010  0.88890  0.62430  Biso   1.000  H
  C123     1.0000 0.32870  0.85750  0.81480  Biso   1.000  C
  H82      1.0000 0.35280  0.84940  0.78080  Biso   1.000  H
  C124     1.0000 0.31230  0.84690  0.95940  Biso   1.000  C
  C125     1.0000 0.27610  0.85820  0.00030  Biso   1.000  C
  H83      1.0000 0.26400  0.85090  0.09810  Biso   1.000  H
  C126     1.0000 0.25820  0.88070  0.89320  Biso   1.000  C
  H84      1.0000 0.23350  0.88860  0.92030  Biso   1.000  H
  Zn8      1.0000 0.50220  0.18137  0.37808  Biso   1.000  Zn
  I22      1.0000 0.50205  0.17753  0.06645  Biso   1.000  I
  I23      1.0000 0.56516  0.19073  0.51727  Biso   1.000  I
  I24      1.0000 0.20666  0.28854  0.62300  Biso   1.000  I
  N43      1.0000 0.36180  0.27630  0.77330  Biso   1.000  N
  N44      1.0000 0.36080  0.30450  0.51450  Biso   1.000  N
  N45      1.0000 0.31530  0.31840  0.71920  Biso   1.000  N
  C127     1.0000 0.33190  0.29490  0.81430  Biso   1.000  C
  C128     1.0000 0.37480  0.28240  0.62270  Biso   1.000  C
  C129     1.0000 0.33010  0.32210  0.57340  Biso   1.000  C
  N46      1.0000 0.28240  0.27330  0.28180  Biso   1.000  N
  C130     1.0000 0.31590  0.26000  0.23860  Biso   1.000  C
  H85      1.0000 0.32830  0.24500  0.31240  Biso   1.000  H
  C131     1.0000 0.33320  0.26740  0.09040  Biso   1.000  C
  H86      1.0000 0.35730  0.25790  0.06570  Biso   1.000  H
  C132     1.0000 0.31540  0.28850  0.97700  Biso   1.000  C
  C133     1.0000 0.28090  0.30300  0.02730  Biso   1.000  C
  H87      1.0000 0.26850  0.31870  0.95670  Biso   1.000  H
  C134     1.0000 0.26460  0.29530  0.17540  Biso   1.000  C
  H88      1.0000 0.24090  0.30500  0.20470  Biso   1.000  H
  N47      1.0000 0.46390  0.21740  0.45560  Biso   1.000  N
  C135     1.0000 0.45420  0.21950  0.61310  Biso   1.000  C
  H89      1.0000 0.46810  0.20640  0.69020  Biso   1.000  H
  C136     1.0000 0.42550  0.23950  0.66970  Biso   1.000  C
  H90      1.0000 0.41870  0.23910  0.78230  Biso   1.000  H
  C137     1.0000 0.40680  0.26010  0.56280  Biso   1.000  C
  C138     1.0000 0.41790  0.26000  0.39970  Biso   1.000  C
  H91      1.0000 0.40640  0.27510  0.32360  Biso   1.000  H
  C139     1.0000 0.44540  0.23790  0.34910  Biso   1.000  C
  H92      1.0000 0.45180  0.23690  0.23600  Biso   1.000  H
  N48      1.0000 0.27400  0.39141  0.25630  Biso   1.000  N
  C140     1.0000 0.30840  0.38050  0.22090  Biso   1.000  C
  H93      1.0000 0.32010  0.38890  0.12430  Biso   1.000  H
  C141     1.0000 0.32870  0.35750  0.31480  Biso   1.000  C
  H94      1.0000 0.35280  0.34940  0.28080  Biso   1.000  H
  C142     1.0000 0.31230  0.34690  0.45940  Biso   1.000  C
  C143     1.0000 0.27610  0.35820  0.50030  Biso   1.000  C
  H95      1.0000 0.26400  0.35090  0.59810  Biso   1.000  H
  C144     1.0000 0.25820  0.38070  0.39320  Biso   1.000  C
  H96      1.0000 0.23350  0.38860  0.42030  Biso   1.000  H
  Zn9      1.0000 0.24780  0.93137  0.62808  Biso   1.000  Zn
  I25      1.0000 0.24795  0.92753  0.31645  Biso   1.000  I
  I26      1.0000 0.18484  0.94073  0.76727  Biso   1.000  I
  I27      1.0000 0.54334  0.03854  0.87300  Biso   1.000  I
  N49      1.0000 0.38820  0.02630  0.02330  Biso   1.000  N
  N50      1.0000 0.38920  0.05450  0.76450  Biso   1.000  N
  N51      1.0000 0.43470  0.06840  0.96920  Biso   1.000  N
  C145     1.0000 0.41810  0.04490  0.06430  Biso   1.000  C
  C146     1.0000 0.37520  0.03240  0.87270  Biso   1.000  C
  C147     1.0000 0.41990  0.07210  0.82340  Biso   1.000  C
  N52      1.0000 0.46760  0.02330  0.53180  Biso   1.000  N
  C148     1.0000 0.43410  0.01000  0.48860  Biso   1.000  C
  H97      1.0000 0.42170  0.99500  0.56240  Biso   1.000  H
  C149     1.0000 0.41680  0.01740  0.34040  Biso   1.000  C
  H98      1.0000 0.39270  0.00790  0.31570  Biso   1.000  H
  C150     1.0000 0.43460  0.03850  0.22700  Biso   1.000  C
  C151     1.0000 0.46910  0.05300  0.27730  Biso   1.000  C
  H99      1.0000 0.48150  0.06870  0.20670  Biso   1.000  H
  C152     1.0000 0.48540  0.04530  0.42540  Biso   1.000  C
  H100     1.0000 0.50910  0.05500  0.45470  Biso   1.000  H
  N53      1.0000 0.28610  0.96740  0.70560  Biso   1.000  N
  C153     1.0000 0.29580  0.96950  0.86310  Biso   1.000  C
  H101     1.0000 0.28190  0.95640  0.94020  Biso   1.000  H
  C154     1.0000 0.32450  0.98950  0.91970  Biso   1.000  C
  H102     1.0000 0.33130  0.98910  0.03230  Biso   1.000  H
  C155     1.0000 0.34320  0.01010  0.81280  Biso   1.000  C
  C156     1.0000 0.33210  0.01000  0.64970  Biso   1.000  C
  H103     1.0000 0.34360  0.02510  0.57360  Biso   1.000  H
  C157     1.0000 0.30460  0.98790  0.59910  Biso   1.000  C
  H104     1.0000 0.29820  0.98690  0.48600  Biso   1.000  H
  N54      1.0000 0.47600  0.14141  0.50630  Biso   1.000  N
  C158     1.0000 0.44160  0.13050  0.47090  Biso   1.000  C
  H105     1.0000 0.42990  0.13890  0.37430  Biso   1.000  H
  C159     1.0000 0.42130  0.10750  0.56480  Biso   1.000  C
  H106     1.0000 0.39720  0.09940  0.53080  Biso   1.000  H
  C160     1.0000 0.43770  0.09690  0.70940  Biso   1.000  C
  C161     1.0000 0.47390  0.10820  0.75030  Biso   1.000  C
  H107     1.0000 0.48600  0.10090  0.84810  Biso   1.000  H
  C162     1.0000 0.49180  0.13070  0.64320  Biso   1.000  C
  H108     1.0000 0.51650  0.13860  0.67030  Biso   1.000  H
  Zn10     1.0000 0.24780  0.43137  0.12808  Biso   1.000  Zn
  I28      1.0000 0.24795  0.42753  0.81645  Biso   1.000  I
  I29      1.0000 0.18484  0.44073  0.26727  Biso   1.000  I
  I30      1.0000 0.54334  0.53854  0.37300  Biso   1.000  I
  N55      1.0000 0.38820  0.52630  0.52330  Biso   1.000  N
  N56      1.0000 0.38920  0.55450  0.26450  Biso   1.000  N
  N57      1.0000 0.43470  0.56840  0.46920  Biso   1.000  N
  C163     1.0000 0.41810  0.54490  0.56430  Biso   1.000  C
  C164     1.0000 0.37520  0.53240  0.37270  Biso   1.000  C
  C165     1.0000 0.41990  0.57210  0.32340  Biso   1.000  C
  N58      1.0000 0.46760  0.52330  0.03180  Biso   1.000  N
  C166     1.0000 0.43410  0.51000  0.98860  Biso   1.000  C
  H109     1.0000 0.42170  0.49500  0.06240  Biso   1.000  H
  C167     1.0000 0.41680  0.51740  0.84040  Biso   1.000  C
  H110     1.0000 0.39270  0.50790  0.81570  Biso   1.000  H
  C168     1.0000 0.43460  0.53850  0.72700  Biso   1.000  C
  C169     1.0000 0.46910  0.55300  0.77730  Biso   1.000  C
  H111     1.0000 0.48150  0.56870  0.70670  Biso   1.000  H
  C170     1.0000 0.48540  0.54530  0.92540  Biso   1.000  C
  H112     1.0000 0.50910  0.55500  0.95470  Biso   1.000  H
  N59      1.0000 0.28610  0.46740  0.20560  Biso   1.000  N
  C171     1.0000 0.29580  0.46950  0.36310  Biso   1.000  C
  H113     1.0000 0.28190  0.45640  0.44020  Biso   1.000  H
  C172     1.0000 0.32450  0.48950  0.41970  Biso   1.000  C
  H114     1.0000 0.33130  0.48910  0.53230  Biso   1.000  H
  C173     1.0000 0.34320  0.51010  0.31280  Biso   1.000  C
  C174     1.0000 0.33210  0.51000  0.14970  Biso   1.000  C
  H115     1.0000 0.34360  0.52510  0.07360  Biso   1.000  H
  C175     1.0000 0.30460  0.48790  0.09910  Biso   1.000  C
  H116     1.0000 0.29820  0.48690  0.98600  Biso   1.000  H
  N60      1.0000 0.47600  0.64141  0.00630  Biso   1.000  N
  C176     1.0000 0.44160  0.63050  0.97090  Biso   1.000  C
  H117     1.0000 0.42990  0.63890  0.87430  Biso   1.000  H
  C177     1.0000 0.42130  0.60750  0.06480  Biso   1.000  C
  H118     1.0000 0.39720  0.59940  0.03080  Biso   1.000  H
  C178     1.0000 0.43770  0.59690  0.20940  Biso   1.000  C
  C179     1.0000 0.47390  0.60820  0.25030  Biso   1.000  C
  H119     1.0000 0.48600  0.60090  0.34810  Biso   1.000  H
  C180     1.0000 0.49180  0.63070  0.14320  Biso   1.000  C
  H120     1.0000 0.51650  0.63860  0.17030  Biso   1.000  H
  Zn11     1.0000 0.74780  0.93137  0.12808  Biso   1.000  Zn
  I31      1.0000 0.74795  0.92753  0.81645  Biso   1.000  I
  I32      1.0000 0.68484  0.94073  0.26727  Biso   1.000  I
  I33      1.0000 0.04334  0.03854  0.37300  Biso   1.000  I
  N61      1.0000 0.88820  0.02630  0.52330  Biso   1.000  N
  N62      1.0000 0.88920  0.05450  0.26450  Biso   1.000  N
  N63      1.0000 0.93470  0.06840  0.46920  Biso   1.000  N
  C181     1.0000 0.91810  0.04490  0.56430  Biso   1.000  C
  C182     1.0000 0.87520  0.03240  0.37270  Biso   1.000  C
  C183     1.0000 0.91990  0.07210  0.32340  Biso   1.000  C
  N64      1.0000 0.96760  0.02330  0.03180  Biso   1.000  N
  C184     1.0000 0.93410  0.01000  0.98860  Biso   1.000  C
  H121     1.0000 0.92170  0.99500  0.06240  Biso   1.000  H
  C185     1.0000 0.91680  0.01740  0.84040  Biso   1.000  C
  H122     1.0000 0.89270  0.00790  0.81570  Biso   1.000  H
  C186     1.0000 0.93460  0.03850  0.72700  Biso   1.000  C
  C187     1.0000 0.96910  0.05300  0.77730  Biso   1.000  C
  H123     1.0000 0.98150  0.06870  0.70670  Biso   1.000  H
  C188     1.0000 0.98540  0.04530  0.92540  Biso   1.000  C
  H124     1.0000 0.00910  0.05500  0.95470  Biso   1.000  H
  N65      1.0000 0.78610  0.96740  0.20560  Biso   1.000  N
  C189     1.0000 0.79580  0.96950  0.36310  Biso   1.000  C
  H125     1.0000 0.78190  0.95640  0.44020  Biso   1.000  H
  C190     1.0000 0.82450  0.98950  0.41970  Biso   1.000  C
  H126     1.0000 0.83130  0.98910  0.53230  Biso   1.000  H
  C191     1.0000 0.84320  0.01010  0.31280  Biso   1.000  C
  C192     1.0000 0.83210  0.01000  0.14970  Biso   1.000  C
  H127     1.0000 0.84360  0.02510  0.07360  Biso   1.000  H
  C193     1.0000 0.80460  0.98790  0.09910  Biso   1.000  C
  H128     1.0000 0.79820  0.98690  0.98600  Biso   1.000  H
  N66      1.0000 0.97600  0.14141  0.00630  Biso   1.000  N
  C194     1.0000 0.94160  0.13050  0.97090  Biso   1.000  C
  H129     1.0000 0.92990  0.13890  0.87430  Biso   1.000  H
  C195     1.0000 0.92130  0.10750  0.06480  Biso   1.000  C
  H130     1.0000 0.89720  0.09940  0.03080  Biso   1.000  H
  C196     1.0000 0.93770  0.09690  0.20940  Biso   1.000  C
  C197     1.0000 0.97390  0.10820  0.25030  Biso   1.000  C
  H131     1.0000 0.98600  0.10090  0.34810  Biso   1.000  H
  C198     1.0000 0.99180  0.13070  0.14320  Biso   1.000  C
  H132     1.0000 0.01650  0.13860  0.17030  Biso   1.000  H
  Zn12     1.0000 0.74780  0.43137  0.62808  Biso   1.000  Zn
  I34      1.0000 0.74795  0.42753  0.31645  Biso   1.000  I
  I35      1.0000 0.68484  0.44073  0.76727  Biso   1.000  I
  I36      1.0000 0.04334  0.53854  0.87300  Biso   1.000  I
  N67      1.0000 0.88820  0.52630  0.02330  Biso   1.000  N
  N68      1.0000 0.88920  0.55450  0.76450  Biso   1.000  N
  N69      1.0000 0.93470  0.56840  0.96920  Biso   1.000  N
  C199     1.0000 0.91810  0.54490  0.06430  Biso   1.000  C
  C200     1.0000 0.87520  0.53240  0.87270  Biso   1.000  C
  C201     1.0000 0.91990  0.57210  0.82340  Biso   1.000  C
  N70      1.0000 0.96760  0.52330  0.53180  Biso   1.000  N
  C202     1.0000 0.93410  0.51000  0.48860  Biso   1.000  C
  H133     1.0000 0.92170  0.49500  0.56240  Biso   1.000  H
  C203     1.0000 0.91680  0.51740  0.34040  Biso   1.000  C
  H134     1.0000 0.89270  0.50790  0.31570  Biso   1.000  H
  C204     1.0000 0.93460  0.53850  0.22700  Biso   1.000  C
  C205     1.0000 0.96910  0.55300  0.27730  Biso   1.000  C
  H135     1.0000 0.98150  0.56870  0.20670  Biso   1.000  H
  C206     1.0000 0.98540  0.54530  0.42540  Biso   1.000  C
  H136     1.0000 0.00910  0.55500  0.45470  Biso   1.000  H
  N71      1.0000 0.78610  0.46740  0.70560  Biso   1.000  N
  C207     1.0000 0.79580  0.46950  0.86310  Biso   1.000  C
  H137     1.0000 0.78190  0.45640  0.94020  Biso   1.000  H
  C208     1.0000 0.82450  0.48950  0.91970  Biso   1.000  C
  H138     1.0000 0.83130  0.48910  0.03230  Biso   1.000  H
  C209     1.0000 0.84320  0.51010  0.81280  Biso   1.000  C
  C210     1.0000 0.83210  0.51000  0.64970  Biso   1.000  C
  H139     1.0000 0.84360  0.52510  0.57360  Biso   1.000  H
  C211     1.0000 0.80460  0.48790  0.59910  Biso   1.000  C
  H140     1.0000 0.79820  0.48690  0.48600  Biso   1.000  H
  N72      1.0000 0.97600  0.64141  0.50630  Biso   1.000  N
  C212     1.0000 0.94160  0.63050  0.47090  Biso   1.000  C
  H141     1.0000 0.92990  0.63890  0.37430  Biso   1.000  H
  C213     1.0000 0.92130  0.60750  0.56480  Biso   1.000  C
  H142     1.0000 0.89720  0.59940  0.53080  Biso   1.000  H
  C214     1.0000 0.93770  0.59690  0.70940  Biso   1.000  C
  C215     1.0000 0.97390  0.60820  0.75030  Biso   1.000  C
  H143     1.0000 0.98600  0.60090  0.84810  Biso   1.000  H
  C216     1.0000 0.99180  0.63070  0.64320  Biso   1.000  C
  H144     1.0000 0.01650  0.63860  0.67030  Biso   1.000  H
  Zn13     1.0000 0.25220  0.56863  0.62808  Biso   1.000  Zn
  I37      1.0000 0.25205  0.57247  0.31645  Biso   1.000  I
  I38      1.0000 0.31516  0.55927  0.76727  Biso   1.000  I
  I39      1.0000 0.95666  0.46146  0.87300  Biso   1.000  I
  N73      1.0000 0.11180  0.47370  0.02330  Biso   1.000  N
  N74      1.0000 0.11080  0.44550  0.76450  Biso   1.000  N
  N75      1.0000 0.06530  0.43160  0.96920  Biso   1.000  N
  C217     1.0000 0.08190  0.45510  0.06430  Biso   1.000  C
  C218     1.0000 0.12480  0.46760  0.87270  Biso   1.000  C
  C219     1.0000 0.08010  0.42790  0.82340  Biso   1.000  C
  N76      1.0000 0.03240  0.47670  0.53180  Biso   1.000  N
  C220     1.0000 0.06590  0.49000  0.48860  Biso   1.000  C
  H145     1.0000 0.07830  0.50500  0.56240  Biso   1.000  H
  C221     1.0000 0.08320  0.48260  0.34040  Biso   1.000  C
  H146     1.0000 0.10730  0.49210  0.31570  Biso   1.000  H
  C222     1.0000 0.06540  0.46150  0.22700  Biso   1.000  C
  C223     1.0000 0.03090  0.44700  0.27730  Biso   1.000  C
  H147     1.0000 0.01850  0.43130  0.20670  Biso   1.000  H
  C224     1.0000 0.01460  0.45470  0.42540  Biso   1.000  C
  H148     1.0000 0.99090  0.44500  0.45470  Biso   1.000  H
  N77      1.0000 0.21390  0.53260  0.70560  Biso   1.000  N
  C225     1.0000 0.20420  0.53050  0.86310  Biso   1.000  C
  H149     1.0000 0.21810  0.54360  0.94020  Biso   1.000  H
  C226     1.0000 0.17550  0.51050  0.91970  Biso   1.000  C
  H150     1.0000 0.16870  0.51090  0.03230  Biso   1.000  H
  C227     1.0000 0.15680  0.48990  0.81280  Biso   1.000  C
  C228     1.0000 0.16790  0.49000  0.64970  Biso   1.000  C
  H151     1.0000 0.15640  0.47490  0.57360  Biso   1.000  H
  C229     1.0000 0.19540  0.51210  0.59910  Biso   1.000  C
  H152     1.0000 0.20180  0.51310  0.48600  Biso   1.000  H
  N78      1.0000 0.02400  0.35859  0.50630  Biso   1.000  N
  C230     1.0000 0.05840  0.36950  0.47090  Biso   1.000  C
  H153     1.0000 0.07010  0.36110  0.37430  Biso   1.000  H
  C231     1.0000 0.07870  0.39250  0.56480  Biso   1.000  C
  H154     1.0000 0.10280  0.40060  0.53080  Biso   1.000  H
  C232     1.0000 0.06230  0.40310  0.70940  Biso   1.000  C
  C233     1.0000 0.02610  0.39180  0.75030  Biso   1.000  C
  H155     1.0000 0.01400  0.39910  0.84810  Biso   1.000  H
  C234     1.0000 0.00820  0.36930  0.64320  Biso   1.000  C
  H156     1.0000 0.98350  0.36140  0.67030  Biso   1.000  H
  Zn14     1.0000 0.25220  0.06863  0.12808  Biso   1.000  Zn
  I40      1.0000 0.25205  0.07247  0.81645  Biso   1.000  I
  I41      1.0000 0.31516  0.05927  0.26727  Biso   1.000  I
  I42      1.0000 0.95666  0.96146  0.37300  Biso   1.000  I
  N79      1.0000 0.11180  0.97370  0.52330  Biso   1.000  N
  N80      1.0000 0.11080  0.94550  0.26450  Biso   1.000  N
  N81      1.0000 0.06530  0.93160  0.46920  Biso   1.000  N
  C235     1.0000 0.08190  0.95510  0.56430  Biso   1.000  C
  C236     1.0000 0.12480  0.96760  0.37270  Biso   1.000  C
  C237     1.0000 0.08010  0.92790  0.32340  Biso   1.000  C
  N82      1.0000 0.03240  0.97670  0.03180  Biso   1.000  N
  C238     1.0000 0.06590  0.99000  0.98860  Biso   1.000  C
  H157     1.0000 0.07830  0.00500  0.06240  Biso   1.000  H
  C239     1.0000 0.08320  0.98260  0.84040  Biso   1.000  C
  H158     1.0000 0.10730  0.99210  0.81570  Biso   1.000  H
  C240     1.0000 0.06540  0.96150  0.72700  Biso   1.000  C
  C241     1.0000 0.03090  0.94700  0.77730  Biso   1.000  C
  H159     1.0000 0.01850  0.93130  0.70670  Biso   1.000  H
  C242     1.0000 0.01460  0.95470  0.92540  Biso   1.000  C
  H160     1.0000 0.99090  0.94500  0.95470  Biso   1.000  H
  N83      1.0000 0.21390  0.03260  0.20560  Biso   1.000  N
  C243     1.0000 0.20420  0.03050  0.36310  Biso   1.000  C
  H161     1.0000 0.21810  0.04360  0.44020  Biso   1.000  H
  C244     1.0000 0.17550  0.01050  0.41970  Biso   1.000  C
  H162     1.0000 0.16870  0.01090  0.53230  Biso   1.000  H
  C245     1.0000 0.15680  0.98990  0.31280  Biso   1.000  C
  C246     1.0000 0.16790  0.99000  0.14970  Biso   1.000  C
  H163     1.0000 0.15640  0.97490  0.07360  Biso   1.000  H
  C247     1.0000 0.19540  0.01210  0.09910  Biso   1.000  C
  H164     1.0000 0.20180  0.01310  0.98600  Biso   1.000  H
  N84      1.0000 0.02400  0.85859  0.00630  Biso   1.000  N
  C248     1.0000 0.05840  0.86950  0.97090  Biso   1.000  C
  H165     1.0000 0.07010  0.86110  0.87430  Biso   1.000  H
  C249     1.0000 0.07870  0.89250  0.06480  Biso   1.000  C
  H166     1.0000 0.10280  0.90060  0.03080  Biso   1.000  H
  C250     1.0000 0.06230  0.90310  0.20940  Biso   1.000  C
  C251     1.0000 0.02610  0.89180  0.25030  Biso   1.000  C
  H167     1.0000 0.01400  0.89910  0.34810  Biso   1.000  H
  C252     1.0000 0.00820  0.86930  0.14320  Biso   1.000  C
  H168     1.0000 0.98350  0.86140  0.17030  Biso   1.000  H
  Zn15     1.0000 0.75220  0.56863  0.12808  Biso   1.000  Zn
  I43      1.0000 0.75205  0.57247  0.81645  Biso   1.000  I
  I44      1.0000 0.81516  0.55927  0.26727  Biso   1.000  I
  I45      1.0000 0.45666  0.46146  0.37300  Biso   1.000  I
  N85      1.0000 0.61180  0.47370  0.52330  Biso   1.000  N
  N86      1.0000 0.61080  0.44550  0.26450  Biso   1.000  N
  N87      1.0000 0.56530  0.43160  0.46920  Biso   1.000  N
  C253     1.0000 0.58190  0.45510  0.56430  Biso   1.000  C
  C254     1.0000 0.62480  0.46760  0.37270  Biso   1.000  C
  C255     1.0000 0.58010  0.42790  0.32340  Biso   1.000  C
  N88      1.0000 0.53240  0.47670  0.03180  Biso   1.000  N
  C256     1.0000 0.56590  0.49000  0.98860  Biso   1.000  C
  H169     1.0000 0.57830  0.50500  0.06240  Biso   1.000  H
  C257     1.0000 0.58320  0.48260  0.84040  Biso   1.000  C
  H170     1.0000 0.60730  0.49210  0.81570  Biso   1.000  H
  C258     1.0000 0.56540  0.46150  0.72700  Biso   1.000  C
  C259     1.0000 0.53090  0.44700  0.77730  Biso   1.000  C
  H171     1.0000 0.51850  0.43130  0.70670  Biso   1.000  H
  C260     1.0000 0.51460  0.45470  0.92540  Biso   1.000  C
  H172     1.0000 0.49090  0.44500  0.95470  Biso   1.000  H
  N89      1.0000 0.71390  0.53260  0.20560  Biso   1.000  N
  C261     1.0000 0.70420  0.53050  0.36310  Biso   1.000  C
  H173     1.0000 0.71810  0.54360  0.44020  Biso   1.000  H
  C262     1.0000 0.67550  0.51050  0.41970  Biso   1.000  C
  H174     1.0000 0.66870  0.51090  0.53230  Biso   1.000  H
  C263     1.0000 0.65680  0.48990  0.31280  Biso   1.000  C
  C264     1.0000 0.66790  0.49000  0.14970  Biso   1.000  C
  H175     1.0000 0.65640  0.47490  0.07360  Biso   1.000  H
  C265     1.0000 0.69540  0.51210  0.09910  Biso   1.000  C
  H176     1.0000 0.70180  0.51310  0.98600  Biso   1.000  H
  N90      1.0000 0.52400  0.35859  0.00630  Biso   1.000  N
  C266     1.0000 0.55840  0.36950  0.97090  Biso   1.000  C
  H177     1.0000 0.57010  0.36110  0.87430  Biso   1.000  H
  C267     1.0000 0.57870  0.39250  0.06480  Biso   1.000  C
  H178     1.0000 0.60280  0.40060  0.03080  Biso   1.000  H
  C268     1.0000 0.56230  0.40310  0.20940  Biso   1.000  C
  C269     1.0000 0.52610  0.39180  0.25030  Biso   1.000  C
  H179     1.0000 0.51400  0.39910  0.34810  Biso   1.000  H
  C270     1.0000 0.50820  0.36930  0.14320  Biso   1.000  C
  H180     1.0000 0.48350  0.36140  0.17030  Biso   1.000  H
  Zn16     1.0000 0.75220  0.06863  0.62808  Biso   1.000  Zn
  I46      1.0000 0.75205  0.07247  0.31645  Biso   1.000  I
  I47      1.0000 0.81516  0.05927  0.76727  Biso   1.000  I
  I48      1.0000 0.45666  0.96146  0.87300  Biso   1.000  I
  N91      1.0000 0.61180  0.97370  0.02330  Biso   1.000  N
  N92      1.0000 0.61080  0.94550  0.76450  Biso   1.000  N
  N93      1.0000 0.56530  0.93160  0.96920  Biso   1.000  N
  C271     1.0000 0.58190  0.95510  0.06430  Biso   1.000  C
  C272     1.0000 0.62480  0.96760  0.87270  Biso   1.000  C
  C273     1.0000 0.58010  0.92790  0.82340  Biso   1.000  C
  N94      1.0000 0.53240  0.97670  0.53180  Biso   1.000  N
  C274     1.0000 0.56590  0.99000  0.48860  Biso   1.000  C
  H181     1.0000 0.57830  0.00500  0.56240  Biso   1.000  H
  C275     1.0000 0.58320  0.98260  0.34040  Biso   1.000  C
  H182     1.0000 0.60730  0.99210  0.31570  Biso   1.000  H
  C276     1.0000 0.56540  0.96150  0.22700  Biso   1.000  C
  C277     1.0000 0.53090  0.94700  0.27730  Biso   1.000  C
  H183     1.0000 0.51850  0.93130  0.20670  Biso   1.000  H
  C278     1.0000 0.51460  0.95470  0.42540  Biso   1.000  C
  H184     1.0000 0.49090  0.94500  0.45470  Biso   1.000  H
  N95      1.0000 0.71390  0.03260  0.70560  Biso   1.000  N
  C279     1.0000 0.70420  0.03050  0.86310  Biso   1.000  C
  H185     1.0000 0.71810  0.04360  0.94020  Biso   1.000  H
  C280     1.0000 0.67550  0.01050  0.91970  Biso   1.000  C
  H186     1.0000 0.66870  0.01090  0.03230  Biso   1.000  H
  C281     1.0000 0.65680  0.98990  0.81280  Biso   1.000  C
  C282     1.0000 0.66790  0.99000  0.64970  Biso   1.000  C
  H187     1.0000 0.65640  0.97490  0.57360  Biso   1.000  H
  C283     1.0000 0.69540  0.01210  0.59910  Biso   1.000  C
  H188     1.0000 0.70180  0.01310  0.48600  Biso   1.000  H
  N96      1.0000 0.52400  0.85859  0.50630  Biso   1.000  N
  C284     1.0000 0.55840  0.86950  0.47090  Biso   1.000  C
  H189     1.0000 0.57010  0.86110  0.37430  Biso   1.000  H
  C285     1.0000 0.57870  0.89250  0.56480  Biso   1.000  C
  H190     1.0000 0.60280  0.90060  0.53080  Biso   1.000  H
  C286     1.0000 0.56230  0.90310  0.70940  Biso   1.000  C
  C287     1.0000 0.52610  0.89180  0.75030  Biso   1.000  C
  H191     1.0000 0.51400  0.89910  0.84810  Biso   1.000  H
  C288     1.0000 0.50820  0.86930  0.64320  Biso   1.000  C
  H192     1.0000 0.48350  0.86140  0.67030  Biso   1.000  H
  Zn17     1.0000 0.25000  0.25000  0.46320  Biso   1.000  Zn
  Zn18     1.0000 0.25000  0.75000  0.96320  Biso   1.000  Zn
  Zn19     1.0000 0.75000  0.75000  0.46320  Biso   1.000  Zn
  Zn20     1.0000 0.75000  0.25000  0.96320  Biso   1.000  Zn
  Zn21     1.0000 0.50000  0.00000  0.71320  Biso   1.000  Zn
  Zn22     1.0000 0.50000  0.50000  0.21320  Biso   1.000  Zn
  Zn23     1.0000 0.00000  0.50000  0.71320  Biso   1.000  Zn
  Zn24     1.0000 0.00000  0.00000  0.21320  Biso   1.000  Zn
