data_image0
_cell_length_a       31.3014
_cell_length_b       31.3014
_cell_length_c       12.7921
_cell_angle_alpha    90
_cell_angle_beta     90
_cell_angle_gamma    120

_symmetry_space_group_name_H-M    "P 1"
_symmetry_int_tables_number       1

loop_
  _symmetry_equiv_pos_as_xyz
  'x, y, z'

loop_
  _atom_site_label
  _atom_site_occupancy
  _atom_site_fract_x
  _atom_site_fract_y
  _atom_site_fract_z
  _atom_site_thermal_displace_type
  _atom_site_B_iso_or_equiv
  _atom_site_type_symbol
  Ag1      1.0000 0.13268  0.53832  0.14092  Biso   1.000  Ag
  C1       1.0000 0.12263  0.62202  0.30430  Biso   1.000  C
  C2       1.0000 0.07050  0.55620  0.43660  Biso   1.000  C
  H1       1.0000 0.06640  0.57620  0.48700  Biso   1.000  H
  C3       1.0000 0.05340  0.50670  0.44420  Biso   1.000  C
  H2       1.0000 0.03550  0.48550  0.50060  Biso   1.000  H
  C4       1.0000 0.06770  0.49418  0.35170  Biso   1.000  C
  H3       1.0000 0.06030  0.46170  0.33430  Biso   1.000  H
  C5       1.0000 0.10250  0.61448  0.03330  Biso   1.000  C
  H4       1.0000 0.10660  0.60610  0.96410  Biso   1.000  H
  C6       1.0000 0.07290  0.63491  0.06040  Biso   1.000  C
  H5       1.0000 0.05370  0.64250  0.01470  Biso   1.000  H
  C7       1.0000 0.07757  0.64144  0.16500  Biso   1.000  C
  H6       1.0000 0.06200  0.65460  0.20760  Biso   1.000  H
  C8       1.0000 0.25220  0.67970  0.28140  Biso   1.000  C
  H7       1.0000 0.28350  0.70470  0.25690  Biso   1.000  H
  C9       1.0000 0.24520  0.64120  0.34860  Biso   1.000  C
  H8       1.0000 0.26980  0.63570  0.37860  Biso   1.000  H
  C10      1.0000 0.19540  0.61370  0.36150  Biso   1.000  C
  H9       1.0000 0.17840  0.58470  0.40260  Biso   1.000  H
  C11      1.0000 0.11331  0.65514  0.37800  Biso   1.000  C
  H10      1.0000 0.07740  0.64200  0.38480  Biso   1.000  H
  H11      1.0000 0.12660  0.65510  0.44820  Biso   1.000  H
  C12      1.0000 0.12740  0.73387  0.41300  Biso   1.000  C
  H12      1.0000 0.14340  0.73510  0.48070  Biso   1.000  H
  H13      1.0000 0.09160  0.71930  0.42520  Biso   1.000  H
  C13      1.0000 0.14847  0.78519  0.36930  Biso   1.000  C
  C14      1.0000 0.17161  0.82479  0.43900  Biso   1.000  C
  H14      1.0000 0.17470  0.81910  0.51080  Biso   1.000  H
  C15      1.0000 0.14312  0.79354  0.26560  Biso   1.000  C
  H15      1.0000 0.12670  0.76640  0.21920  Biso   1.000  H
  N1       1.0000 0.12392  0.60852  0.11660  Biso   1.000  N
  N2       1.0000 0.10867  0.62561  0.19800  Biso   1.000  N
  N3       1.0000 0.09410  0.57132  0.34470  Biso   1.000  N
  N4       1.0000 0.09276  0.53293  0.29120  Biso   1.000  N
  N5       1.0000 0.20955  0.67649  0.25630  Biso   1.000  N
  N6       1.0000 0.17465  0.63518  0.30530  Biso   1.000  N
  O1       1.0000 0.13600  0.70367  0.33950  Biso   1.000  O
  Ag2      1.0000 0.79935  0.87165  0.47425  Biso   1.000  Ag
  C16      1.0000 0.78930  0.95535  0.63763  Biso   1.000  C
  C17      1.0000 0.73717  0.88953  0.76993  Biso   1.000  C
  H16      1.0000 0.73307  0.90953  0.82033  Biso   1.000  H
  C18      1.0000 0.72007  0.84003  0.77753  Biso   1.000  C
  H17      1.0000 0.70217  0.81883  0.83393  Biso   1.000  H
  C19      1.0000 0.73437  0.82751  0.68503  Biso   1.000  C
  H18      1.0000 0.72697  0.79503  0.66763  Biso   1.000  H
  C20      1.0000 0.76917  0.94781  0.36663  Biso   1.000  C
  H19      1.0000 0.77327  0.93943  0.29743  Biso   1.000  H
  C21      1.0000 0.73957  0.96824  0.39373  Biso   1.000  C
  H20      1.0000 0.72037  0.97583  0.34803  Biso   1.000  H
  C22      1.0000 0.74424  0.97477  0.49833  Biso   1.000  C
  H21      1.0000 0.72867  0.98793  0.54093  Biso   1.000  H
  C23      1.0000 0.91887  0.01303  0.61473  Biso   1.000  C
  H22      1.0000 0.95017  0.03803  0.59023  Biso   1.000  H
  C24      1.0000 0.91187  0.97453  0.68193  Biso   1.000  C
  H23      1.0000 0.93647  0.96903  0.71193  Biso   1.000  H
  C25      1.0000 0.86207  0.94703  0.69483  Biso   1.000  C
  H24      1.0000 0.84507  0.91803  0.73593  Biso   1.000  H
  C26      1.0000 0.77998  0.98847  0.71133  Biso   1.000  C
  H25      1.0000 0.74407  0.97533  0.71813  Biso   1.000  H
  H26      1.0000 0.79327  0.98843  0.78153  Biso   1.000  H
  C27      1.0000 0.79407  0.06720  0.74633  Biso   1.000  C
  H27      1.0000 0.81007  0.06843  0.81403  Biso   1.000  H
  H28      1.0000 0.75827  0.05263  0.75853  Biso   1.000  H
  C28      1.0000 0.81514  0.11852  0.70263  Biso   1.000  C
  C29      1.0000 0.83828  0.15812  0.77233  Biso   1.000  C
  H29      1.0000 0.84137  0.15243  0.84413  Biso   1.000  H
  C30      1.0000 0.80979  0.12687  0.59893  Biso   1.000  C
  H30      1.0000 0.79337  0.09973  0.55253  Biso   1.000  H
  N7       1.0000 0.79059  0.94185  0.44993  Biso   1.000  N
  N8       1.0000 0.77534  0.95894  0.53133  Biso   1.000  N
  N9       1.0000 0.76077  0.90465  0.67803  Biso   1.000  N
  N10      1.0000 0.75943  0.86626  0.62453  Biso   1.000  N
  N11      1.0000 0.87622  0.00982  0.58963  Biso   1.000  N
  N12      1.0000 0.84132  0.96851  0.63863  Biso   1.000  N
  O2       1.0000 0.80267  0.03700  0.67283  Biso   1.000  O
  Ag3      1.0000 0.46602  0.20498  0.80759  Biso   1.000  Ag
  C31      1.0000 0.45596  0.28869  0.97097  Biso   1.000  C
  C32      1.0000 0.40383  0.22287  0.10327  Biso   1.000  C
  H31      1.0000 0.39973  0.24287  0.15367  Biso   1.000  H
  C33      1.0000 0.38673  0.17337  0.11087  Biso   1.000  C
  H32      1.0000 0.36883  0.15217  0.16727  Biso   1.000  H
  C34      1.0000 0.40103  0.16085  0.01837  Biso   1.000  C
  H33      1.0000 0.39363  0.12837  0.00097  Biso   1.000  H
  C35      1.0000 0.43583  0.28115  0.69997  Biso   1.000  C
  H34      1.0000 0.43993  0.27277  0.63077  Biso   1.000  H
  C36      1.0000 0.40623  0.30158  0.72707  Biso   1.000  C
  H35      1.0000 0.38703  0.30917  0.68137  Biso   1.000  H
  C37      1.0000 0.41090  0.30811  0.83167  Biso   1.000  C
  H36      1.0000 0.39533  0.32127  0.87427  Biso   1.000  H
  C38      1.0000 0.58553  0.34637  0.94807  Biso   1.000  C
  H37      1.0000 0.61683  0.37137  0.92357  Biso   1.000  H
  C39      1.0000 0.57853  0.30787  0.01527  Biso   1.000  C
  H38      1.0000 0.60313  0.30237  0.04527  Biso   1.000  H
  C40      1.0000 0.52873  0.28037  0.02817  Biso   1.000  C
  H39      1.0000 0.51173  0.25137  0.06927  Biso   1.000  H
  C41      1.0000 0.44664  0.32181  0.04467  Biso   1.000  C
  H40      1.0000 0.41073  0.30867  0.05147  Biso   1.000  H
  H41      1.0000 0.45993  0.32177  0.11487  Biso   1.000  H
  C42      1.0000 0.46073  0.40054  0.07967  Biso   1.000  C
  H42      1.0000 0.47673  0.40177  0.14737  Biso   1.000  H
  H43      1.0000 0.42493  0.38597  0.09187  Biso   1.000  H
  C43      1.0000 0.48180  0.45186  0.03597  Biso   1.000  C
  C44      1.0000 0.50494  0.49146  0.10567  Biso   1.000  C
  H44      1.0000 0.50803  0.48577  0.17747  Biso   1.000  H
  C45      1.0000 0.47645  0.46021  0.93227  Biso   1.000  C
  H45      1.0000 0.46003  0.43307  0.88587  Biso   1.000  H
  N13      1.0000 0.45725  0.27519  0.78327  Biso   1.000  N
  N14      1.0000 0.44200  0.29228  0.86467  Biso   1.000  N
  N15      1.0000 0.42743  0.23799  0.01137  Biso   1.000  N
  N16      1.0000 0.42609  0.19960  0.95787  Biso   1.000  N
  N17      1.0000 0.54288  0.34316  0.92297  Biso   1.000  N
  N18      1.0000 0.50798  0.30185  0.97197  Biso   1.000  N
  O3       1.0000 0.46933  0.37034  0.00617  Biso   1.000  O
  Ag4      1.0000 0.46168  0.59437  0.14092  Biso   1.000  Ag
  C46      1.0000 0.37798  0.50061  0.30430  Biso   1.000  C
  C47      1.0000 0.44380  0.51430  0.43660  Biso   1.000  C
  H46      1.0000 0.42380  0.49020  0.48700  Biso   1.000  H
  C48      1.0000 0.49330  0.54670  0.44420  Biso   1.000  C
  H47      1.0000 0.51450  0.55000  0.50060  Biso   1.000  H
  C49      1.0000 0.50582  0.57352  0.35170  Biso   1.000  C
  H48      1.0000 0.53830  0.59860  0.33430  Biso   1.000  H
  C50      1.0000 0.38552  0.48802  0.03330  Biso   1.000  C
  H49      1.0000 0.39390  0.50050  0.96410  Biso   1.000  H
  C51      1.0000 0.36509  0.43799  0.06040  Biso   1.000  C
  H50      1.0000 0.35750  0.41120  0.01470  Biso   1.000  H
  C52      1.0000 0.35856  0.43613  0.16500  Biso   1.000  C
  H51      1.0000 0.34540  0.40740  0.20760  Biso   1.000  H
  C53      1.0000 0.32030  0.57250  0.28140  Biso   1.000  C
  H52      1.0000 0.29530  0.57880  0.25690  Biso   1.000  H
  C54      1.0000 0.35880  0.60400  0.34860  Biso   1.000  C
  H53      1.0000 0.36430  0.63410  0.37860  Biso   1.000  H
  C55      1.0000 0.38630  0.58170  0.36150  Biso   1.000  C
  H54      1.0000 0.41530  0.59370  0.40260  Biso   1.000  H
  C56      1.0000 0.34486  0.45817  0.37800  Biso   1.000  C
  H55      1.0000 0.35800  0.43540  0.38480  Biso   1.000  H
  H56      1.0000 0.34490  0.47150  0.44820  Biso   1.000  H
  C57      1.0000 0.26613  0.39353  0.41300  Biso   1.000  C
  H57      1.0000 0.26490  0.40830  0.48070  Biso   1.000  H
  H58      1.0000 0.28070  0.37230  0.42520  Biso   1.000  H
  C58      1.0000 0.21481  0.36328  0.36930  Biso   1.000  C
  C59      1.0000 0.17521  0.34682  0.43900  Biso   1.000  C
  H59      1.0000 0.18090  0.35560  0.51080  Biso   1.000  H
  C60      1.0000 0.20646  0.34958  0.26560  Biso   1.000  C
  H60      1.0000 0.23360  0.36030  0.21920  Biso   1.000  H
  N19      1.0000 0.39148  0.51540  0.11660  Biso   1.000  N
  N20      1.0000 0.37439  0.48306  0.19800  Biso   1.000  N
  N21      1.0000 0.42868  0.52278  0.34470  Biso   1.000  N
  N22      1.0000 0.46707  0.55983  0.29120  Biso   1.000  N
  N23      1.0000 0.32351  0.53306  0.25630  Biso   1.000  N
  N24      1.0000 0.36482  0.53947  0.30530  Biso   1.000  N
  O4       1.0000 0.29633  0.43233  0.33950  Biso   1.000  O
  Ag5      1.0000 0.12835  0.92770  0.47425  Biso   1.000  Ag
  C61      1.0000 0.04465  0.83394  0.63763  Biso   1.000  C
  C62      1.0000 0.11047  0.84763  0.76993  Biso   1.000  C
  H61      1.0000 0.09047  0.82353  0.82033  Biso   1.000  H
  C63      1.0000 0.15997  0.88003  0.77753  Biso   1.000  C
  H62      1.0000 0.18117  0.88333  0.83393  Biso   1.000  H
  C64      1.0000 0.17249  0.90685  0.68503  Biso   1.000  C
  H63      1.0000 0.20497  0.93193  0.66763  Biso   1.000  H
  C65      1.0000 0.05219  0.82135  0.36663  Biso   1.000  C
  H64      1.0000 0.06057  0.83383  0.29743  Biso   1.000  H
  C66      1.0000 0.03176  0.77132  0.39373  Biso   1.000  C
  H65      1.0000 0.02417  0.74453  0.34803  Biso   1.000  H
  C67      1.0000 0.02523  0.76946  0.49833  Biso   1.000  C
  H66      1.0000 0.01207  0.74073  0.54093  Biso   1.000  H
  C68      1.0000 0.98697  0.90583  0.61473  Biso   1.000  C
  H67      1.0000 0.96197  0.91213  0.59023  Biso   1.000  H
  C69      1.0000 0.02547  0.93733  0.68193  Biso   1.000  C
  H68      1.0000 0.03097  0.96743  0.71193  Biso   1.000  H
  C70      1.0000 0.05297  0.91503  0.69483  Biso   1.000  C
  H69      1.0000 0.08197  0.92703  0.73593  Biso   1.000  H
  C71      1.0000 0.01153  0.79150  0.71133  Biso   1.000  C
  H70      1.0000 0.02467  0.76873  0.71813  Biso   1.000  H
  H71      1.0000 0.01157  0.80483  0.78153  Biso   1.000  H
  C72      1.0000 0.93280  0.72686  0.74633  Biso   1.000  C
  H72      1.0000 0.93157  0.74163  0.81403  Biso   1.000  H
  H73      1.0000 0.94737  0.70563  0.75853  Biso   1.000  H
  C73      1.0000 0.88148  0.69661  0.70263  Biso   1.000  C
  C74      1.0000 0.84188  0.68015  0.77233  Biso   1.000  C
  H74      1.0000 0.84757  0.68893  0.84413  Biso   1.000  H
  C75      1.0000 0.87313  0.68291  0.59893  Biso   1.000  C
  H75      1.0000 0.90027  0.69363  0.55253  Biso   1.000  H
  N25      1.0000 0.05815  0.84873  0.44993  Biso   1.000  N
  N26      1.0000 0.04106  0.81639  0.53133  Biso   1.000  N
  N27      1.0000 0.09535  0.85611  0.67803  Biso   1.000  N
  N28      1.0000 0.13374  0.89316  0.62453  Biso   1.000  N
  N29      1.0000 0.99018  0.86639  0.58963  Biso   1.000  N
  N30      1.0000 0.03149  0.87280  0.63863  Biso   1.000  N
  O5       1.0000 0.96300  0.76566  0.67283  Biso   1.000  O
  Ag6      1.0000 0.79502  0.26103  0.80759  Biso   1.000  Ag
  C76      1.0000 0.71131  0.16728  0.97097  Biso   1.000  C
  C77      1.0000 0.77713  0.18097  0.10327  Biso   1.000  C
  H76      1.0000 0.75713  0.15687  0.15367  Biso   1.000  H
  C78      1.0000 0.82663  0.21337  0.11087  Biso   1.000  C
  H77      1.0000 0.84783  0.21667  0.16727  Biso   1.000  H
  C79      1.0000 0.83915  0.24019  0.01837  Biso   1.000  C
  H78      1.0000 0.87163  0.26527  0.00097  Biso   1.000  H
  C80      1.0000 0.71885  0.15469  0.69997  Biso   1.000  C
  H79      1.0000 0.72723  0.16717  0.63077  Biso   1.000  H
  C81      1.0000 0.69842  0.10466  0.72707  Biso   1.000  C
  H80      1.0000 0.69083  0.07787  0.68137  Biso   1.000  H
  C82      1.0000 0.69189  0.10280  0.83167  Biso   1.000  C
  H81      1.0000 0.67873  0.07407  0.87427  Biso   1.000  H
  C83      1.0000 0.65363  0.23917  0.94807  Biso   1.000  C
  H82      1.0000 0.62863  0.24547  0.92357  Biso   1.000  H
  C84      1.0000 0.69213  0.27067  0.01527  Biso   1.000  C
  H83      1.0000 0.69763  0.30077  0.04527  Biso   1.000  H
  C85      1.0000 0.71963  0.24837  0.02817  Biso   1.000  C
  H84      1.0000 0.74863  0.26037  0.06927  Biso   1.000  H
  C86      1.0000 0.67819  0.12484  0.04467  Biso   1.000  C
  H85      1.0000 0.69133  0.10207  0.05147  Biso   1.000  H
  H86      1.0000 0.67823  0.13817  0.11487  Biso   1.000  H
  C87      1.0000 0.59946  0.06020  0.07967  Biso   1.000  C
  H87      1.0000 0.59823  0.07497  0.14737  Biso   1.000  H
  H88      1.0000 0.61403  0.03897  0.09187  Biso   1.000  H
  C88      1.0000 0.54814  0.02995  0.03597  Biso   1.000  C
  C89      1.0000 0.50854  0.01349  0.10567  Biso   1.000  C
  H89      1.0000 0.51423  0.02227  0.17747  Biso   1.000  H
  C90      1.0000 0.53979  0.01625  0.93227  Biso   1.000  C
  H90      1.0000 0.56693  0.02697  0.88587  Biso   1.000  H
  N31      1.0000 0.72481  0.18207  0.78327  Biso   1.000  N
  N32      1.0000 0.70772  0.14973  0.86467  Biso   1.000  N
  N33      1.0000 0.76201  0.18945  0.01137  Biso   1.000  N
  N34      1.0000 0.80040  0.22650  0.95787  Biso   1.000  N
  N35      1.0000 0.65684  0.19973  0.92297  Biso   1.000  N
  N36      1.0000 0.69815  0.20614  0.97197  Biso   1.000  N
  O6       1.0000 0.62966  0.09900  0.00617  Biso   1.000  O
  Ag7      1.0000 0.40563  0.86732  0.14092  Biso   1.000  Ag
  C91      1.0000 0.49939  0.87737  0.30430  Biso   1.000  C
  C92      1.0000 0.48570  0.92950  0.43660  Biso   1.000  C
  H91      1.0000 0.50980  0.93360  0.48700  Biso   1.000  H
  C93      1.0000 0.45330  0.94660  0.44420  Biso   1.000  C
  H92      1.0000 0.45000  0.96450  0.50060  Biso   1.000  H
  C94      1.0000 0.42648  0.93230  0.35170  Biso   1.000  C
  H93      1.0000 0.40140  0.93970  0.33430  Biso   1.000  H
  C95      1.0000 0.51198  0.89750  0.03330  Biso   1.000  C
  H94      1.0000 0.49950  0.89340  0.96410  Biso   1.000  H
  C96      1.0000 0.56201  0.92710  0.06040  Biso   1.000  C
  H95      1.0000 0.58880  0.94630  0.01470  Biso   1.000  H
  C97      1.0000 0.56387  0.92243  0.16500  Biso   1.000  C
  H96      1.0000 0.59260  0.93800  0.20760  Biso   1.000  H
  C98      1.0000 0.42750  0.74780  0.28140  Biso   1.000  C
  H97      1.0000 0.42120  0.71650  0.25690  Biso   1.000  H
  C99      1.0000 0.39600  0.75480  0.34860  Biso   1.000  C
  H98      1.0000 0.36590  0.73020  0.37860  Biso   1.000  H
  C100     1.0000 0.41830  0.80460  0.36150  Biso   1.000  C
  H99      1.0000 0.40630  0.82160  0.40260  Biso   1.000  H
  C101     1.0000 0.54183  0.88669  0.37800  Biso   1.000  C
  H100     1.0000 0.56460  0.92260  0.38480  Biso   1.000  H
  H101     1.0000 0.52850  0.87340  0.44820  Biso   1.000  H
  C102     1.0000 0.60647  0.87260  0.41300  Biso   1.000  C
  H102     1.0000 0.59170  0.85660  0.48070  Biso   1.000  H
  H103     1.0000 0.62770  0.90840  0.42520  Biso   1.000  H
  C103     1.0000 0.63672  0.85153  0.36930  Biso   1.000  C
  C104     1.0000 0.65318  0.82839  0.43900  Biso   1.000  C
  H104     1.0000 0.64440  0.82530  0.51080  Biso   1.000  H
  C105     1.0000 0.65042  0.85688  0.26560  Biso   1.000  C
  H105     1.0000 0.63970  0.87330  0.21920  Biso   1.000  H
  N37      1.0000 0.48460  0.87608  0.11660  Biso   1.000  N
  N38      1.0000 0.51694  0.89133  0.19800  Biso   1.000  N
  N39      1.0000 0.47722  0.90590  0.34470  Biso   1.000  N
  N40      1.0000 0.44017  0.90724  0.29120  Biso   1.000  N
  N41      1.0000 0.46694  0.79045  0.25630  Biso   1.000  N
  N42      1.0000 0.46053  0.82535  0.30530  Biso   1.000  N
  O7       1.0000 0.56767  0.86400  0.33950  Biso   1.000  O
  Ag8      1.0000 0.07230  0.20065  0.47425  Biso   1.000  Ag
  C106     1.0000 0.16606  0.21070  0.63763  Biso   1.000  C
  C107     1.0000 0.15237  0.26283  0.76993  Biso   1.000  C
  H106     1.0000 0.17647  0.26693  0.82033  Biso   1.000  H
  C108     1.0000 0.11997  0.27993  0.77753  Biso   1.000  C
  H107     1.0000 0.11667  0.29783  0.83393  Biso   1.000  H
  C109     1.0000 0.09315  0.26563  0.68503  Biso   1.000  C
  H108     1.0000 0.06807  0.27303  0.66763  Biso   1.000  H
  C110     1.0000 0.17865  0.23083  0.36663  Biso   1.000  C
  H109     1.0000 0.16617  0.22673  0.29743  Biso   1.000  H
  C111     1.0000 0.22868  0.26043  0.39373  Biso   1.000  C
  H110     1.0000 0.25547  0.27963  0.34803  Biso   1.000  H
  C112     1.0000 0.23054  0.25576  0.49833  Biso   1.000  C
  H111     1.0000 0.25927  0.27133  0.54093  Biso   1.000  H
  C113     1.0000 0.09417  0.08113  0.61473  Biso   1.000  C
  H112     1.0000 0.08787  0.04983  0.59023  Biso   1.000  H
  C114     1.0000 0.06267  0.08813  0.68193  Biso   1.000  C
  H113     1.0000 0.03257  0.06353  0.71193  Biso   1.000  H
  C115     1.0000 0.08497  0.13793  0.69483  Biso   1.000  C
  H114     1.0000 0.07297  0.15493  0.73593  Biso   1.000  H
  C116     1.0000 0.20850  0.22002  0.71133  Biso   1.000  C
  H115     1.0000 0.23127  0.25593  0.71813  Biso   1.000  H
  H116     1.0000 0.19517  0.20673  0.78153  Biso   1.000  H
  C117     1.0000 0.27314  0.20593  0.74633  Biso   1.000  C
  H117     1.0000 0.25837  0.18993  0.81403  Biso   1.000  H
  H118     1.0000 0.29437  0.24173  0.75853  Biso   1.000  H
  C118     1.0000 0.30339  0.18486  0.70263  Biso   1.000  C
  C119     1.0000 0.31985  0.16172  0.77233  Biso   1.000  C
  H119     1.0000 0.31107  0.15863  0.84413  Biso   1.000  H
  C120     1.0000 0.31709  0.19021  0.59893  Biso   1.000  C
  H120     1.0000 0.30637  0.20663  0.55253  Biso   1.000  H
  N43      1.0000 0.15127  0.20941  0.44993  Biso   1.000  N
  N44      1.0000 0.18361  0.22466  0.53133  Biso   1.000  N
  N45      1.0000 0.14389  0.23923  0.67803  Biso   1.000  N
  N46      1.0000 0.10684  0.24057  0.62453  Biso   1.000  N
  N47      1.0000 0.13361  0.12378  0.58963  Biso   1.000  N
  N48      1.0000 0.12720  0.15868  0.63863  Biso   1.000  N
  O8       1.0000 0.23434  0.19733  0.67283  Biso   1.000  O
  Ag9      1.0000 0.73897  0.53398  0.80759  Biso   1.000  Ag
  C121     1.0000 0.83272  0.54404  0.97097  Biso   1.000  C
  C122     1.0000 0.81903  0.59617  0.10327  Biso   1.000  C
  H121     1.0000 0.84313  0.60027  0.15367  Biso   1.000  H
  C123     1.0000 0.78663  0.61327  0.11087  Biso   1.000  C
  H122     1.0000 0.78333  0.63117  0.16727  Biso   1.000  H
  C124     1.0000 0.75981  0.59897  0.01837  Biso   1.000  C
  H123     1.0000 0.73473  0.60637  0.00097  Biso   1.000  H
  C125     1.0000 0.84531  0.56417  0.69997  Biso   1.000  C
  H124     1.0000 0.83283  0.56007  0.63077  Biso   1.000  H
  C126     1.0000 0.89534  0.59377  0.72707  Biso   1.000  C
  H125     1.0000 0.92213  0.61297  0.68137  Biso   1.000  H
  C127     1.0000 0.89720  0.58910  0.83167  Biso   1.000  C
  H126     1.0000 0.92593  0.60467  0.87427  Biso   1.000  H
  C128     1.0000 0.76083  0.41447  0.94807  Biso   1.000  C
  H127     1.0000 0.75453  0.38317  0.92357  Biso   1.000  H
  C129     1.0000 0.72933  0.42147  0.01527  Biso   1.000  C
  H128     1.0000 0.69923  0.39687  0.04527  Biso   1.000  H
  C130     1.0000 0.75163  0.47127  0.02817  Biso   1.000  C
  H129     1.0000 0.73963  0.48827  0.06927  Biso   1.000  H
  C131     1.0000 0.87516  0.55336  0.04467  Biso   1.000  C
  H130     1.0000 0.89793  0.58927  0.05147  Biso   1.000  H
  H131     1.0000 0.86183  0.54007  0.11487  Biso   1.000  H
  C132     1.0000 0.93980  0.53927  0.07967  Biso   1.000  C
  H132     1.0000 0.92503  0.52327  0.14737  Biso   1.000  H
  H133     1.0000 0.96103  0.57507  0.09187  Biso   1.000  H
  C133     1.0000 0.97005  0.51820  0.03597  Biso   1.000  C
  C134     1.0000 0.98651  0.49506  0.10567  Biso   1.000  C
  H134     1.0000 0.97773  0.49197  0.17747  Biso   1.000  H
  C135     1.0000 0.98375  0.52355  0.93227  Biso   1.000  C
  H135     1.0000 0.97303  0.53997  0.88587  Biso   1.000  H
  N49      1.0000 0.81793  0.54275  0.78327  Biso   1.000  N
  N50      1.0000 0.85027  0.55800  0.86467  Biso   1.000  N
  N51      1.0000 0.81055  0.57257  0.01137  Biso   1.000  N
  N52      1.0000 0.77350  0.57391  0.95787  Biso   1.000  N
  N53      1.0000 0.80027  0.45712  0.92297  Biso   1.000  N
  N54      1.0000 0.79386  0.49202  0.97197  Biso   1.000  N
  O9       1.0000 0.90100  0.53067  0.00617  Biso   1.000  O
  Ag10     1.0000 0.86732  0.46168  0.85908  Biso   1.000  Ag
  C136     1.0000 0.87737  0.37798  0.69570  Biso   1.000  C
  C137     1.0000 0.92950  0.44380  0.56340  Biso   1.000  C
  H136     1.0000 0.93360  0.42380  0.51300  Biso   1.000  H
  C138     1.0000 0.94660  0.49330  0.55580  Biso   1.000  C
  H137     1.0000 0.96450  0.51450  0.49940  Biso   1.000  H
  C139     1.0000 0.93230  0.50582  0.64830  Biso   1.000  C
  H138     1.0000 0.93970  0.53830  0.66570  Biso   1.000  H
  C140     1.0000 0.89750  0.38552  0.96670  Biso   1.000  C
  H139     1.0000 0.89340  0.39390  0.03590  Biso   1.000  H
  C141     1.0000 0.92710  0.36509  0.93960  Biso   1.000  C
  H140     1.0000 0.94630  0.35750  0.98530  Biso   1.000  H
  C142     1.0000 0.92243  0.35856  0.83500  Biso   1.000  C
  H141     1.0000 0.93800  0.34540  0.79240  Biso   1.000  H
  C143     1.0000 0.74780  0.32030  0.71860  Biso   1.000  C
  H142     1.0000 0.71650  0.29530  0.74310  Biso   1.000  H
  C144     1.0000 0.75480  0.35880  0.65140  Biso   1.000  C
  H143     1.0000 0.73020  0.36430  0.62140  Biso   1.000  H
  C145     1.0000 0.80460  0.38630  0.63850  Biso   1.000  C
  H144     1.0000 0.82160  0.41530  0.59740  Biso   1.000  H
  C146     1.0000 0.88669  0.34486  0.62200  Biso   1.000  C
  H145     1.0000 0.92260  0.35800  0.61520  Biso   1.000  H
  H146     1.0000 0.87340  0.34490  0.55180  Biso   1.000  H
  C147     1.0000 0.87260  0.26613  0.58700  Biso   1.000  C
  H147     1.0000 0.85660  0.26490  0.51930  Biso   1.000  H
  H148     1.0000 0.90840  0.28070  0.57480  Biso   1.000  H
  C148     1.0000 0.85153  0.21481  0.63070  Biso   1.000  C
  C149     1.0000 0.82839  0.17521  0.56100  Biso   1.000  C
  H149     1.0000 0.82530  0.18090  0.48920  Biso   1.000  H
  C150     1.0000 0.85688  0.20646  0.73440  Biso   1.000  C
  H150     1.0000 0.87330  0.23360  0.78080  Biso   1.000  H
  N55      1.0000 0.87608  0.39148  0.88340  Biso   1.000  N
  N56      1.0000 0.89133  0.37439  0.80200  Biso   1.000  N
  N57      1.0000 0.90590  0.42868  0.65530  Biso   1.000  N
  N58      1.0000 0.90724  0.46707  0.70880  Biso   1.000  N
  N59      1.0000 0.79045  0.32351  0.74370  Biso   1.000  N
  N60      1.0000 0.82535  0.36482  0.69470  Biso   1.000  N
  O10      1.0000 0.86400  0.29633  0.66050  Biso   1.000  O
  Ag11     1.0000 0.53398  0.79502  0.19241  Biso   1.000  Ag
  C151     1.0000 0.54404  0.71131  0.02903  Biso   1.000  C
  C152     1.0000 0.59617  0.77713  0.89673  Biso   1.000  C
  H151     1.0000 0.60027  0.75713  0.84633  Biso   1.000  H
  C153     1.0000 0.61327  0.82663  0.88913  Biso   1.000  C
  H152     1.0000 0.63117  0.84783  0.83273  Biso   1.000  H
  C154     1.0000 0.59897  0.83915  0.98163  Biso   1.000  C
  H153     1.0000 0.60637  0.87163  0.99903  Biso   1.000  H
  C155     1.0000 0.56417  0.71885  0.30003  Biso   1.000  C
  H154     1.0000 0.56007  0.72723  0.36923  Biso   1.000  H
  C156     1.0000 0.59377  0.69842  0.27293  Biso   1.000  C
  H155     1.0000 0.61297  0.69083  0.31863  Biso   1.000  H
  C157     1.0000 0.58910  0.69189  0.16833  Biso   1.000  C
  H156     1.0000 0.60467  0.67873  0.12573  Biso   1.000  H
  C158     1.0000 0.41447  0.65363  0.05193  Biso   1.000  C
  H157     1.0000 0.38317  0.62863  0.07643  Biso   1.000  H
  C159     1.0000 0.42147  0.69213  0.98473  Biso   1.000  C
  H158     1.0000 0.39687  0.69763  0.95473  Biso   1.000  H
  C160     1.0000 0.47127  0.71963  0.97183  Biso   1.000  C
  H159     1.0000 0.48827  0.74863  0.93073  Biso   1.000  H
  C161     1.0000 0.55336  0.67819  0.95533  Biso   1.000  C
  H160     1.0000 0.58927  0.69133  0.94853  Biso   1.000  H
  H161     1.0000 0.54007  0.67823  0.88513  Biso   1.000  H
  C162     1.0000 0.53927  0.59946  0.92033  Biso   1.000  C
  H162     1.0000 0.52327  0.59823  0.85263  Biso   1.000  H
  H163     1.0000 0.57507  0.61403  0.90813  Biso   1.000  H
  C163     1.0000 0.51820  0.54814  0.96403  Biso   1.000  C
  C164     1.0000 0.49506  0.50854  0.89433  Biso   1.000  C
  H164     1.0000 0.49197  0.51423  0.82253  Biso   1.000  H
  C165     1.0000 0.52355  0.53979  0.06773  Biso   1.000  C
  H165     1.0000 0.53997  0.56693  0.11413  Biso   1.000  H
  N61      1.0000 0.54275  0.72481  0.21673  Biso   1.000  N
  N62      1.0000 0.55800  0.70772  0.13533  Biso   1.000  N
  N63      1.0000 0.57257  0.76201  0.98863  Biso   1.000  N
  N64      1.0000 0.57391  0.80040  0.04213  Biso   1.000  N
  N65      1.0000 0.45712  0.65684  0.07703  Biso   1.000  N
  N66      1.0000 0.49202  0.69815  0.02803  Biso   1.000  N
  O11      1.0000 0.53067  0.62966  0.99383  Biso   1.000  O
  Ag12     1.0000 0.20065  0.12835  0.52575  Biso   1.000  Ag
  C166     1.0000 0.21070  0.04465  0.36237  Biso   1.000  C
  C167     1.0000 0.26283  0.11047  0.23007  Biso   1.000  C
  H166     1.0000 0.26693  0.09047  0.17967  Biso   1.000  H
  C168     1.0000 0.27993  0.15997  0.22247  Biso   1.000  C
  H167     1.0000 0.29783  0.18117  0.16607  Biso   1.000  H
  C169     1.0000 0.26563  0.17249  0.31497  Biso   1.000  C
  H168     1.0000 0.27303  0.20497  0.33237  Biso   1.000  H
  C170     1.0000 0.23083  0.05219  0.63337  Biso   1.000  C
  H169     1.0000 0.22673  0.06057  0.70257  Biso   1.000  H
  C171     1.0000 0.26043  0.03176  0.60627  Biso   1.000  C
  H170     1.0000 0.27963  0.02417  0.65197  Biso   1.000  H
  C172     1.0000 0.25576  0.02523  0.50167  Biso   1.000  C
  H171     1.0000 0.27133  0.01207  0.45907  Biso   1.000  H
  C173     1.0000 0.08113  0.98697  0.38527  Biso   1.000  C
  H172     1.0000 0.04983  0.96197  0.40977  Biso   1.000  H
  C174     1.0000 0.08813  0.02547  0.31807  Biso   1.000  C
  H173     1.0000 0.06353  0.03097  0.28807  Biso   1.000  H
  C175     1.0000 0.13793  0.05297  0.30517  Biso   1.000  C
  H174     1.0000 0.15493  0.08197  0.26407  Biso   1.000  H
  C176     1.0000 0.22002  0.01153  0.28867  Biso   1.000  C
  H175     1.0000 0.25593  0.02467  0.28187  Biso   1.000  H
  H176     1.0000 0.20673  0.01157  0.21847  Biso   1.000  H
  C177     1.0000 0.20593  0.93280  0.25367  Biso   1.000  C
  H177     1.0000 0.18993  0.93157  0.18597  Biso   1.000  H
  H178     1.0000 0.24173  0.94737  0.24147  Biso   1.000  H
  C178     1.0000 0.18486  0.88148  0.29737  Biso   1.000  C
  C179     1.0000 0.16172  0.84188  0.22767  Biso   1.000  C
  H179     1.0000 0.15863  0.84757  0.15587  Biso   1.000  H
  C180     1.0000 0.19021  0.87313  0.40107  Biso   1.000  C
  H180     1.0000 0.20663  0.90027  0.44747  Biso   1.000  H
  N67      1.0000 0.20941  0.05815  0.55007  Biso   1.000  N
  N68      1.0000 0.22466  0.04106  0.46867  Biso   1.000  N
  N69      1.0000 0.23923  0.09535  0.32197  Biso   1.000  N
  N70      1.0000 0.24057  0.13374  0.37547  Biso   1.000  N
  N71      1.0000 0.12378  0.99018  0.41037  Biso   1.000  N
  N72      1.0000 0.15868  0.03149  0.36137  Biso   1.000  N
  O12      1.0000 0.19733  0.96300  0.32717  Biso   1.000  O
  Ag13     1.0000 0.53832  0.40563  0.85908  Biso   1.000  Ag
  C181     1.0000 0.62202  0.49939  0.69570  Biso   1.000  C
  C182     1.0000 0.55620  0.48570  0.56340  Biso   1.000  C
  H181     1.0000 0.57620  0.50980  0.51300  Biso   1.000  H
  C183     1.0000 0.50670  0.45330  0.55580  Biso   1.000  C
  H182     1.0000 0.48550  0.45000  0.49940  Biso   1.000  H
  C184     1.0000 0.49418  0.42648  0.64830  Biso   1.000  C
  H183     1.0000 0.46170  0.40140  0.66570  Biso   1.000  H
  C185     1.0000 0.61448  0.51198  0.96670  Biso   1.000  C
  H184     1.0000 0.60610  0.49950  0.03590  Biso   1.000  H
  C186     1.0000 0.63491  0.56201  0.93960  Biso   1.000  C
  H185     1.0000 0.64250  0.58880  0.98530  Biso   1.000  H
  C187     1.0000 0.64144  0.56387  0.83500  Biso   1.000  C
  H186     1.0000 0.65460  0.59260  0.79240  Biso   1.000  H
  C188     1.0000 0.67970  0.42750  0.71860  Biso   1.000  C
  H187     1.0000 0.70470  0.42120  0.74310  Biso   1.000  H
  C189     1.0000 0.64120  0.39600  0.65140  Biso   1.000  C
  H188     1.0000 0.63570  0.36590  0.62140  Biso   1.000  H
  C190     1.0000 0.61370  0.41830  0.63850  Biso   1.000  C
  H189     1.0000 0.58470  0.40630  0.59740  Biso   1.000  H
  C191     1.0000 0.65514  0.54183  0.62200  Biso   1.000  C
  H190     1.0000 0.64200  0.56460  0.61520  Biso   1.000  H
  H191     1.0000 0.65510  0.52850  0.55180  Biso   1.000  H
  C192     1.0000 0.73387  0.60647  0.58700  Biso   1.000  C
  H192     1.0000 0.73510  0.59170  0.51930  Biso   1.000  H
  H193     1.0000 0.71930  0.62770  0.57480  Biso   1.000  H
  C193     1.0000 0.78519  0.63672  0.63070  Biso   1.000  C
  C194     1.0000 0.82479  0.65318  0.56100  Biso   1.000  C
  H194     1.0000 0.81910  0.64440  0.48920  Biso   1.000  H
  C195     1.0000 0.79354  0.65042  0.73440  Biso   1.000  C
  H195     1.0000 0.76640  0.63970  0.78080  Biso   1.000  H
  N73      1.0000 0.60852  0.48460  0.88340  Biso   1.000  N
  N74      1.0000 0.62561  0.51694  0.80200  Biso   1.000  N
  N75      1.0000 0.57132  0.47722  0.65530  Biso   1.000  N
  N76      1.0000 0.53293  0.44017  0.70880  Biso   1.000  N
  N77      1.0000 0.67649  0.46694  0.74370  Biso   1.000  N
  N78      1.0000 0.63518  0.46053  0.69470  Biso   1.000  N
  O13      1.0000 0.70367  0.56767  0.66050  Biso   1.000  O
  Ag14     1.0000 0.20498  0.73897  0.19241  Biso   1.000  Ag
  C196     1.0000 0.28869  0.83272  0.02903  Biso   1.000  C
  C197     1.0000 0.22287  0.81903  0.89673  Biso   1.000  C
  H196     1.0000 0.24287  0.84313  0.84633  Biso   1.000  H
  C198     1.0000 0.17337  0.78663  0.88913  Biso   1.000  C
  H197     1.0000 0.15217  0.78333  0.83273  Biso   1.000  H
  C199     1.0000 0.16085  0.75981  0.98163  Biso   1.000  C
  H198     1.0000 0.12837  0.73473  0.99903  Biso   1.000  H
  C200     1.0000 0.28115  0.84531  0.30003  Biso   1.000  C
  H199     1.0000 0.27277  0.83283  0.36923  Biso   1.000  H
  C201     1.0000 0.30158  0.89534  0.27293  Biso   1.000  C
  H200     1.0000 0.30917  0.92213  0.31863  Biso   1.000  H
  C202     1.0000 0.30811  0.89720  0.16833  Biso   1.000  C
  H201     1.0000 0.32127  0.92593  0.12573  Biso   1.000  H
  C203     1.0000 0.34637  0.76083  0.05193  Biso   1.000  C
  H202     1.0000 0.37137  0.75453  0.07643  Biso   1.000  H
  C204     1.0000 0.30787  0.72933  0.98473  Biso   1.000  C
  H203     1.0000 0.30237  0.69923  0.95473  Biso   1.000  H
  C205     1.0000 0.28037  0.75163  0.97183  Biso   1.000  C
  H204     1.0000 0.25137  0.73963  0.93073  Biso   1.000  H
  C206     1.0000 0.32181  0.87516  0.95533  Biso   1.000  C
  H205     1.0000 0.30867  0.89793  0.94853  Biso   1.000  H
  H206     1.0000 0.32177  0.86183  0.88513  Biso   1.000  H
  C207     1.0000 0.40054  0.93980  0.92033  Biso   1.000  C
  H207     1.0000 0.40177  0.92503  0.85263  Biso   1.000  H
  H208     1.0000 0.38597  0.96103  0.90813  Biso   1.000  H
  C208     1.0000 0.45186  0.97005  0.96403  Biso   1.000  C
  C209     1.0000 0.49146  0.98651  0.89433  Biso   1.000  C
  H209     1.0000 0.48577  0.97773  0.82253  Biso   1.000  H
  C210     1.0000 0.46021  0.98375  0.06773  Biso   1.000  C
  H210     1.0000 0.43307  0.97303  0.11413  Biso   1.000  H
  N79      1.0000 0.27519  0.81793  0.21673  Biso   1.000  N
  N80      1.0000 0.29228  0.85027  0.13533  Biso   1.000  N
  N81      1.0000 0.23799  0.81055  0.98863  Biso   1.000  N
  N82      1.0000 0.19960  0.77350  0.04213  Biso   1.000  N
  N83      1.0000 0.34316  0.80027  0.07703  Biso   1.000  N
  N84      1.0000 0.30185  0.79386  0.02803  Biso   1.000  N
  O14      1.0000 0.37034  0.90100  0.99383  Biso   1.000  O
  Ag15     1.0000 0.87165  0.07230  0.52575  Biso   1.000  Ag
  C211     1.0000 0.95535  0.16606  0.36237  Biso   1.000  C
  C212     1.0000 0.88953  0.15237  0.23007  Biso   1.000  C
  H211     1.0000 0.90953  0.17647  0.17967  Biso   1.000  H
  C213     1.0000 0.84003  0.11997  0.22247  Biso   1.000  C
  H212     1.0000 0.81883  0.11667  0.16607  Biso   1.000  H
  C214     1.0000 0.82751  0.09315  0.31497  Biso   1.000  C
  H213     1.0000 0.79503  0.06807  0.33237  Biso   1.000  H
  C215     1.0000 0.94781  0.17865  0.63337  Biso   1.000  C
  H214     1.0000 0.93943  0.16617  0.70257  Biso   1.000  H
  C216     1.0000 0.96824  0.22868  0.60627  Biso   1.000  C
  H215     1.0000 0.97583  0.25547  0.65197  Biso   1.000  H
  C217     1.0000 0.97477  0.23054  0.50167  Biso   1.000  C
  H216     1.0000 0.98793  0.25927  0.45907  Biso   1.000  H
  C218     1.0000 0.01303  0.09417  0.38527  Biso   1.000  C
  H217     1.0000 0.03803  0.08787  0.40977  Biso   1.000  H
  C219     1.0000 0.97453  0.06267  0.31807  Biso   1.000  C
  H218     1.0000 0.96903  0.03257  0.28807  Biso   1.000  H
  C220     1.0000 0.94703  0.08497  0.30517  Biso   1.000  C
  H219     1.0000 0.91803  0.07297  0.26407  Biso   1.000  H
  C221     1.0000 0.98847  0.20850  0.28867  Biso   1.000  C
  H220     1.0000 0.97533  0.23127  0.28187  Biso   1.000  H
  H221     1.0000 0.98843  0.19517  0.21847  Biso   1.000  H
  C222     1.0000 0.06720  0.27314  0.25367  Biso   1.000  C
  H222     1.0000 0.06843  0.25837  0.18597  Biso   1.000  H
  H223     1.0000 0.05263  0.29437  0.24147  Biso   1.000  H
  C223     1.0000 0.11852  0.30339  0.29737  Biso   1.000  C
  C224     1.0000 0.15812  0.31985  0.22767  Biso   1.000  C
  H224     1.0000 0.15243  0.31107  0.15587  Biso   1.000  H
  C225     1.0000 0.12687  0.31709  0.40107  Biso   1.000  C
  H225     1.0000 0.09973  0.30637  0.44747  Biso   1.000  H
  N85      1.0000 0.94185  0.15127  0.55007  Biso   1.000  N
  N86      1.0000 0.95894  0.18361  0.46867  Biso   1.000  N
  N87      1.0000 0.90465  0.14389  0.32197  Biso   1.000  N
  N88      1.0000 0.86626  0.10684  0.37547  Biso   1.000  N
  N89      1.0000 0.00982  0.13361  0.41037  Biso   1.000  N
  N90      1.0000 0.96851  0.12720  0.36137  Biso   1.000  N
  O15      1.0000 0.03700  0.23434  0.32717  Biso   1.000  O
  Ag16     1.0000 0.59437  0.13268  0.85908  Biso   1.000  Ag
  C226     1.0000 0.50061  0.12263  0.69570  Biso   1.000  C
  C227     1.0000 0.51430  0.07050  0.56340  Biso   1.000  C
  H226     1.0000 0.49020  0.06640  0.51300  Biso   1.000  H
  C228     1.0000 0.54670  0.05340  0.55580  Biso   1.000  C
  H227     1.0000 0.55000  0.03550  0.49940  Biso   1.000  H
  C229     1.0000 0.57352  0.06770  0.64830  Biso   1.000  C
  H228     1.0000 0.59860  0.06030  0.66570  Biso   1.000  H
  C230     1.0000 0.48802  0.10250  0.96670  Biso   1.000  C
  H229     1.0000 0.50050  0.10660  0.03590  Biso   1.000  H
  C231     1.0000 0.43799  0.07290  0.93960  Biso   1.000  C
  H230     1.0000 0.41120  0.05370  0.98530  Biso   1.000  H
  C232     1.0000 0.43613  0.07757  0.83500  Biso   1.000  C
  H231     1.0000 0.40740  0.06200  0.79240  Biso   1.000  H
  C233     1.0000 0.57250  0.25220  0.71860  Biso   1.000  C
  H232     1.0000 0.57880  0.28350  0.74310  Biso   1.000  H
  C234     1.0000 0.60400  0.24520  0.65140  Biso   1.000  C
  H233     1.0000 0.63410  0.26980  0.62140  Biso   1.000  H
  C235     1.0000 0.58170  0.19540  0.63850  Biso   1.000  C
  H234     1.0000 0.59370  0.17840  0.59740  Biso   1.000  H
  C236     1.0000 0.45817  0.11331  0.62200  Biso   1.000  C
  H235     1.0000 0.43540  0.07740  0.61520  Biso   1.000  H
  H236     1.0000 0.47150  0.12660  0.55180  Biso   1.000  H
  C237     1.0000 0.39353  0.12740  0.58700  Biso   1.000  C
  H237     1.0000 0.40830  0.14340  0.51930  Biso   1.000  H
  H238     1.0000 0.37230  0.09160  0.57480  Biso   1.000  H
  C238     1.0000 0.36328  0.14847  0.63070  Biso   1.000  C
  C239     1.0000 0.34682  0.17161  0.56100  Biso   1.000  C
  H239     1.0000 0.35560  0.17470  0.48920  Biso   1.000  H
  C240     1.0000 0.34958  0.14312  0.73440  Biso   1.000  C
  H240     1.0000 0.36030  0.12670  0.78080  Biso   1.000  H
  N91      1.0000 0.51540  0.12392  0.88340  Biso   1.000  N
  N92      1.0000 0.48306  0.10867  0.80200  Biso   1.000  N
  N93      1.0000 0.52278  0.09410  0.65530  Biso   1.000  N
  N94      1.0000 0.55983  0.09276  0.70880  Biso   1.000  N
  N95      1.0000 0.53306  0.20955  0.74370  Biso   1.000  N
  N96      1.0000 0.53947  0.17465  0.69470  Biso   1.000  N
  O16      1.0000 0.43233  0.13600  0.66050  Biso   1.000  O
  Ag17     1.0000 0.26103  0.46602  0.19241  Biso   1.000  Ag
  C241     1.0000 0.16728  0.45596  0.02903  Biso   1.000  C
  C242     1.0000 0.18097  0.40383  0.89673  Biso   1.000  C
  H241     1.0000 0.15687  0.39973  0.84633  Biso   1.000  H
  C243     1.0000 0.21337  0.38673  0.88913  Biso   1.000  C
  H242     1.0000 0.21667  0.36883  0.83273  Biso   1.000  H
  C244     1.0000 0.24019  0.40103  0.98163  Biso   1.000  C
  H243     1.0000 0.26527  0.39363  0.99903  Biso   1.000  H
  C245     1.0000 0.15469  0.43583  0.30003  Biso   1.000  C
  H244     1.0000 0.16717  0.43993  0.36923  Biso   1.000  H
  C246     1.0000 0.10466  0.40623  0.27293  Biso   1.000  C
  H245     1.0000 0.07787  0.38703  0.31863  Biso   1.000  H
  C247     1.0000 0.10280  0.41090  0.16833  Biso   1.000  C
  H246     1.0000 0.07407  0.39533  0.12573  Biso   1.000  H
  C248     1.0000 0.23917  0.58553  0.05193  Biso   1.000  C
  H247     1.0000 0.24547  0.61683  0.07643  Biso   1.000  H
  C249     1.0000 0.27067  0.57853  0.98473  Biso   1.000  C
  H248     1.0000 0.30077  0.60313  0.95473  Biso   1.000  H
  C250     1.0000 0.24837  0.52873  0.97183  Biso   1.000  C
  H249     1.0000 0.26037  0.51173  0.93073  Biso   1.000  H
  C251     1.0000 0.12484  0.44664  0.95533  Biso   1.000  C
  H250     1.0000 0.10207  0.41073  0.94853  Biso   1.000  H
  H251     1.0000 0.13817  0.45993  0.88513  Biso   1.000  H
  C252     1.0000 0.06020  0.46073  0.92033  Biso   1.000  C
  H252     1.0000 0.07497  0.47673  0.85263  Biso   1.000  H
  H253     1.0000 0.03897  0.42493  0.90813  Biso   1.000  H
  C253     1.0000 0.02995  0.48180  0.96403  Biso   1.000  C
  C254     1.0000 0.01349  0.50494  0.89433  Biso   1.000  C
  H254     1.0000 0.02227  0.50803  0.82253  Biso   1.000  H
  C255     1.0000 0.01625  0.47645  0.06773  Biso   1.000  C
  H255     1.0000 0.02697  0.46003  0.11413  Biso   1.000  H
  N97      1.0000 0.18207  0.45725  0.21673  Biso   1.000  N
  N98      1.0000 0.14973  0.44200  0.13533  Biso   1.000  N
  N99      1.0000 0.18945  0.42743  0.98863  Biso   1.000  N
  N100     1.0000 0.22650  0.42609  0.04213  Biso   1.000  N
  N101     1.0000 0.19973  0.54288  0.07703  Biso   1.000  N
  N102     1.0000 0.20614  0.50798  0.02803  Biso   1.000  N
  O17      1.0000 0.09900  0.46933  0.99383  Biso   1.000  O
  Ag18     1.0000 0.92770  0.79935  0.52575  Biso   1.000  Ag
  C256     1.0000 0.83394  0.78930  0.36237  Biso   1.000  C
  C257     1.0000 0.84763  0.73717  0.23007  Biso   1.000  C
  H256     1.0000 0.82353  0.73307  0.17967  Biso   1.000  H
  C258     1.0000 0.88003  0.72007  0.22247  Biso   1.000  C
  H257     1.0000 0.88333  0.70217  0.16607  Biso   1.000  H
  C259     1.0000 0.90685  0.73437  0.31497  Biso   1.000  C
  H258     1.0000 0.93193  0.72697  0.33237  Biso   1.000  H
  C260     1.0000 0.82135  0.76917  0.63337  Biso   1.000  C
  H259     1.0000 0.83383  0.77327  0.70257  Biso   1.000  H
  C261     1.0000 0.77132  0.73957  0.60627  Biso   1.000  C
  H260     1.0000 0.74453  0.72037  0.65197  Biso   1.000  H
  C262     1.0000 0.76946  0.74424  0.50167  Biso   1.000  C
  H261     1.0000 0.74073  0.72867  0.45907  Biso   1.000  H
  C263     1.0000 0.90583  0.91887  0.38527  Biso   1.000  C
  H262     1.0000 0.91213  0.95017  0.40977  Biso   1.000  H
  C264     1.0000 0.93733  0.91187  0.31807  Biso   1.000  C
  H263     1.0000 0.96743  0.93647  0.28807  Biso   1.000  H
  C265     1.0000 0.91503  0.86207  0.30517  Biso   1.000  C
  H264     1.0000 0.92703  0.84507  0.26407  Biso   1.000  H
  C266     1.0000 0.79150  0.77998  0.28867  Biso   1.000  C
  H265     1.0000 0.76873  0.74407  0.28187  Biso   1.000  H
  H266     1.0000 0.80483  0.79327  0.21847  Biso   1.000  H
  C267     1.0000 0.72686  0.79407  0.25367  Biso   1.000  C
  H267     1.0000 0.74163  0.81007  0.18597  Biso   1.000  H
  H268     1.0000 0.70563  0.75827  0.24147  Biso   1.000  H
  C268     1.0000 0.69661  0.81514  0.29737  Biso   1.000  C
  C269     1.0000 0.68015  0.83828  0.22767  Biso   1.000  C
  H269     1.0000 0.68893  0.84137  0.15587  Biso   1.000  H
  C270     1.0000 0.68291  0.80979  0.40107  Biso   1.000  C
  H270     1.0000 0.69363  0.79337  0.44747  Biso   1.000  H
  N103     1.0000 0.84873  0.79059  0.55007  Biso   1.000  N
  N104     1.0000 0.81639  0.77534  0.46867  Biso   1.000  N
  N105     1.0000 0.85611  0.76077  0.32197  Biso   1.000  N
  N106     1.0000 0.89316  0.75943  0.37547  Biso   1.000  N
  N107     1.0000 0.86639  0.87622  0.41037  Biso   1.000  N
  N108     1.0000 0.87280  0.84132  0.36137  Biso   1.000  N
  O18      1.0000 0.76566  0.80267  0.32717  Biso   1.000  O
