data_image0
_cell_length_a       33.7553
_cell_length_b       33.7553
_cell_length_c       33.7553
_cell_angle_alpha    90
_cell_angle_beta     90
_cell_angle_gamma    90

_symmetry_space_group_name_H-M    "P 1"
_symmetry_int_tables_number       1

loop_
  _symmetry_equiv_pos_as_xyz
  'x, y, z'

loop_
  _atom_site_label
  _atom_site_occupancy
  _atom_site_fract_x
  _atom_site_fract_y
  _atom_site_fract_z
  _atom_site_thermal_displace_type
  _atom_site_B_iso_or_equiv
  _atom_site_type_symbol
  Zn1      1.0000 0.22596  0.26854  0.30169  Biso   1.000  Zn
  C1       1.0000 0.15514  0.22360  0.27600  Biso   1.000  C
  C2       1.0000 0.11436  0.21070  0.28710  Biso   1.000  C
  C3       1.0000 0.09620  0.22630  0.31960  Biso   1.000  C
  H1       1.0000 0.10950  0.24560  0.33400  Biso   1.000  H
  C4       1.0000 0.05860  0.21480  0.33220  Biso   1.000  C
  H2       1.0000 0.04650  0.22650  0.35400  Biso   1.000  H
  C5       1.0000 0.04030  0.18490  0.31080  Biso   1.000  C
  C6       1.0000 0.05740  0.17000  0.27800  Biso   1.000  C
  H3       1.0000 0.04370  0.15140  0.26300  Biso   1.000  H
  C7       1.0000 0.09540  0.18190  0.26590  Biso   1.000  C
  H4       1.0000 0.10740  0.17040  0.24400  Biso   1.000  H
  C8       1.0000 0.00471  0.13940  0.35500  Biso   1.000  C
  C9       1.0000 0.03910  0.12570  0.37160  Biso   1.000  C
  H5       1.0000 0.06340  0.13540  0.36270  Biso   1.000  H
  C10      1.0000 0.03820  0.09800  0.40100  Biso   1.000  C
  H6       1.0000 0.06200  0.08920  0.41180  Biso   1.000  H
  C11      1.0000 0.00310  0.08270  0.41530  Biso   1.000  C
  C12      1.0000 0.96815  0.09670  0.39870  Biso   1.000  C
  H7       1.0000 0.94400  0.08730  0.40790  Biso   1.000  H
  C13      1.0000 0.96890  0.12400  0.36910  Biso   1.000  C
  C14      1.0000 0.93236  0.16480  0.32590  Biso   1.000  C
  C15      1.0000 0.96757  0.18330  0.31240  Biso   1.000  C
  C16      1.0000 0.96400  0.21310  0.28450  Biso   1.000  C
  H8       1.0000 0.98670  0.22470  0.27410  Biso   1.000  H
  C17      1.0000 0.92683  0.22600  0.27180  Biso   1.000  C
  H9       1.0000 0.92480  0.24690  0.25410  Biso   1.000  H
  C18      1.0000 0.89302  0.20760  0.28570  Biso   1.000  C
  C19      1.0000 0.89576  0.17780  0.31350  Biso   1.000  C
  H10      1.0000 0.87290  0.16650  0.32380  Biso   1.000  H
  C20      1.0000 0.00200  0.05213  0.44687  Biso   1.000  C
  C21      1.0000 0.85238  0.21960  0.27280  Biso   1.000  C
  N1       1.0000 0.00364  0.16850  0.32510  Biso   1.000  N
  O1       1.0000 0.17244  0.24622  0.29942  Biso   1.000  O
  O2       1.0000 0.16890  0.21035  0.24417  Biso   1.000  O
  O3       1.0000 0.93311  0.13470  0.35300  Biso   1.000  O
  O4       1.0000 0.96858  0.04004  0.45802  Biso   1.000  O
  O5       1.0000 0.03484  0.04125  0.46011  Biso   1.000  O
  O6       1.0000 0.82479  0.19759  0.28348  Biso   1.000  O
  O7       1.0000 0.84969  0.24993  0.25060  Biso   1.000  O
  Zn2      1.0000 0.72596  0.76854  0.80169  Biso   1.000  Zn
  C22      1.0000 0.65514  0.72360  0.77600  Biso   1.000  C
  C23      1.0000 0.61436  0.71070  0.78710  Biso   1.000  C
  C24      1.0000 0.59620  0.72630  0.81960  Biso   1.000  C
  H11      1.0000 0.60950  0.74560  0.83400  Biso   1.000  H
  C25      1.0000 0.55860  0.71480  0.83220  Biso   1.000  C
  H12      1.0000 0.54650  0.72650  0.85400  Biso   1.000  H
  C26      1.0000 0.54030  0.68490  0.81080  Biso   1.000  C
  C27      1.0000 0.55740  0.67000  0.77800  Biso   1.000  C
  H13      1.0000 0.54370  0.65140  0.76300  Biso   1.000  H
  C28      1.0000 0.59540  0.68190  0.76590  Biso   1.000  C
  H14      1.0000 0.60740  0.67040  0.74400  Biso   1.000  H
  C29      1.0000 0.50471  0.63940  0.85500  Biso   1.000  C
  C30      1.0000 0.53910  0.62570  0.87160  Biso   1.000  C
  H15      1.0000 0.56340  0.63540  0.86270  Biso   1.000  H
  C31      1.0000 0.53820  0.59800  0.90100  Biso   1.000  C
  H16      1.0000 0.56200  0.58920  0.91180  Biso   1.000  H
  C32      1.0000 0.50310  0.58270  0.91530  Biso   1.000  C
  C33      1.0000 0.46815  0.59670  0.89870  Biso   1.000  C
  H17      1.0000 0.44400  0.58730  0.90790  Biso   1.000  H
  C34      1.0000 0.46890  0.62400  0.86910  Biso   1.000  C
  C35      1.0000 0.43236  0.66480  0.82590  Biso   1.000  C
  C36      1.0000 0.46757  0.68330  0.81240  Biso   1.000  C
  C37      1.0000 0.46400  0.71310  0.78450  Biso   1.000  C
  H18      1.0000 0.48670  0.72470  0.77410  Biso   1.000  H
  C38      1.0000 0.42683  0.72600  0.77180  Biso   1.000  C
  H19      1.0000 0.42480  0.74690  0.75410  Biso   1.000  H
  C39      1.0000 0.39302  0.70760  0.78570  Biso   1.000  C
  C40      1.0000 0.39576  0.67780  0.81350  Biso   1.000  C
  H20      1.0000 0.37290  0.66650  0.82380  Biso   1.000  H
  C41      1.0000 0.50200  0.55213  0.94687  Biso   1.000  C
  C42      1.0000 0.35238  0.71960  0.77280  Biso   1.000  C
  N2       1.0000 0.50364  0.66850  0.82510  Biso   1.000  N
  O8       1.0000 0.67244  0.74622  0.79942  Biso   1.000  O
  O9       1.0000 0.66890  0.71035  0.74417  Biso   1.000  O
  O10      1.0000 0.43311  0.63470  0.85300  Biso   1.000  O
  O11      1.0000 0.46858  0.54004  0.95802  Biso   1.000  O
  O12      1.0000 0.53484  0.54125  0.96011  Biso   1.000  O
  O13      1.0000 0.32479  0.69759  0.78348  Biso   1.000  O
  O14      1.0000 0.34969  0.74993  0.75060  Biso   1.000  O
  Zn3      1.0000 0.77404  0.73146  0.30169  Biso   1.000  Zn
  C43      1.0000 0.84486  0.77640  0.27600  Biso   1.000  C
  C44      1.0000 0.88564  0.78930  0.28710  Biso   1.000  C
  C45      1.0000 0.90380  0.77370  0.31960  Biso   1.000  C
  H21      1.0000 0.89050  0.75440  0.33400  Biso   1.000  H
  C46      1.0000 0.94140  0.78520  0.33220  Biso   1.000  C
  H22      1.0000 0.95350  0.77350  0.35400  Biso   1.000  H
  C47      1.0000 0.95970  0.81510  0.31080  Biso   1.000  C
  C48      1.0000 0.94260  0.83000  0.27800  Biso   1.000  C
  H23      1.0000 0.95630  0.84860  0.26300  Biso   1.000  H
  C49      1.0000 0.90460  0.81810  0.26590  Biso   1.000  C
  H24      1.0000 0.89260  0.82960  0.24400  Biso   1.000  H
  C50      1.0000 0.99529  0.86060  0.35500  Biso   1.000  C
  C51      1.0000 0.96090  0.87430  0.37160  Biso   1.000  C
  H25      1.0000 0.93660  0.86460  0.36270  Biso   1.000  H
  C52      1.0000 0.96180  0.90200  0.40100  Biso   1.000  C
  H26      1.0000 0.93800  0.91080  0.41180  Biso   1.000  H
  C53      1.0000 0.99690  0.91730  0.41530  Biso   1.000  C
  C54      1.0000 0.03185  0.90330  0.39870  Biso   1.000  C
  H27      1.0000 0.05600  0.91270  0.40790  Biso   1.000  H
  C55      1.0000 0.03110  0.87600  0.36910  Biso   1.000  C
  C56      1.0000 0.06764  0.83520  0.32590  Biso   1.000  C
  C57      1.0000 0.03243  0.81670  0.31240  Biso   1.000  C
  C58      1.0000 0.03600  0.78690  0.28450  Biso   1.000  C
  H28      1.0000 0.01330  0.77530  0.27410  Biso   1.000  H
  C59      1.0000 0.07317  0.77400  0.27180  Biso   1.000  C
  H29      1.0000 0.07520  0.75310  0.25410  Biso   1.000  H
  C60      1.0000 0.10698  0.79240  0.28570  Biso   1.000  C
  C61      1.0000 0.10424  0.82220  0.31350  Biso   1.000  C
  H30      1.0000 0.12710  0.83350  0.32380  Biso   1.000  H
  C62      1.0000 0.99800  0.94787  0.44687  Biso   1.000  C
  C63      1.0000 0.14762  0.78040  0.27280  Biso   1.000  C
  N3       1.0000 0.99636  0.83150  0.32510  Biso   1.000  N
  O15      1.0000 0.82756  0.75378  0.29942  Biso   1.000  O
  O16      1.0000 0.83110  0.78965  0.24417  Biso   1.000  O
  O17      1.0000 0.06689  0.86530  0.35300  Biso   1.000  O
  O18      1.0000 0.03142  0.95996  0.45802  Biso   1.000  O
  O19      1.0000 0.96516  0.95875  0.46011  Biso   1.000  O
  O20      1.0000 0.17521  0.80241  0.28348  Biso   1.000  O
  O21      1.0000 0.15031  0.75007  0.25060  Biso   1.000  O
  Zn4      1.0000 0.27404  0.23146  0.80169  Biso   1.000  Zn
  C64      1.0000 0.34486  0.27640  0.77600  Biso   1.000  C
  C65      1.0000 0.38564  0.28930  0.78710  Biso   1.000  C
  C66      1.0000 0.40380  0.27370  0.81960  Biso   1.000  C
  H31      1.0000 0.39050  0.25440  0.83400  Biso   1.000  H
  C67      1.0000 0.44140  0.28520  0.83220  Biso   1.000  C
  H32      1.0000 0.45350  0.27350  0.85400  Biso   1.000  H
  C68      1.0000 0.45970  0.31510  0.81080  Biso   1.000  C
  C69      1.0000 0.44260  0.33000  0.77800  Biso   1.000  C
  H33      1.0000 0.45630  0.34860  0.76300  Biso   1.000  H
  C70      1.0000 0.40460  0.31810  0.76590  Biso   1.000  C
  H34      1.0000 0.39260  0.32960  0.74400  Biso   1.000  H
  C71      1.0000 0.49529  0.36060  0.85500  Biso   1.000  C
  C72      1.0000 0.46090  0.37430  0.87160  Biso   1.000  C
  H35      1.0000 0.43660  0.36460  0.86270  Biso   1.000  H
  C73      1.0000 0.46180  0.40200  0.90100  Biso   1.000  C
  H36      1.0000 0.43800  0.41080  0.91180  Biso   1.000  H
  C74      1.0000 0.49690  0.41730  0.91530  Biso   1.000  C
  C75      1.0000 0.53185  0.40330  0.89870  Biso   1.000  C
  H37      1.0000 0.55600  0.41270  0.90790  Biso   1.000  H
  C76      1.0000 0.53110  0.37600  0.86910  Biso   1.000  C
  C77      1.0000 0.56764  0.33520  0.82590  Biso   1.000  C
  C78      1.0000 0.53243  0.31670  0.81240  Biso   1.000  C
  C79      1.0000 0.53600  0.28690  0.78450  Biso   1.000  C
  H38      1.0000 0.51330  0.27530  0.77410  Biso   1.000  H
  C80      1.0000 0.57317  0.27400  0.77180  Biso   1.000  C
  H39      1.0000 0.57520  0.25310  0.75410  Biso   1.000  H
  C81      1.0000 0.60698  0.29240  0.78570  Biso   1.000  C
  C82      1.0000 0.60424  0.32220  0.81350  Biso   1.000  C
  H40      1.0000 0.62710  0.33350  0.82380  Biso   1.000  H
  C83      1.0000 0.49800  0.44787  0.94687  Biso   1.000  C
  C84      1.0000 0.64762  0.28040  0.77280  Biso   1.000  C
  N4       1.0000 0.49636  0.33150  0.82510  Biso   1.000  N
  O22      1.0000 0.32756  0.25378  0.79942  Biso   1.000  O
  O23      1.0000 0.33110  0.28965  0.74417  Biso   1.000  O
  O24      1.0000 0.56689  0.36530  0.85300  Biso   1.000  O
  O25      1.0000 0.53142  0.45996  0.95802  Biso   1.000  O
  O26      1.0000 0.46516  0.45875  0.96011  Biso   1.000  O
  O27      1.0000 0.67521  0.30241  0.78348  Biso   1.000  O
  O28      1.0000 0.65031  0.25007  0.75060  Biso   1.000  O
  Zn5      1.0000 0.77404  0.26854  0.69831  Biso   1.000  Zn
  C85      1.0000 0.84486  0.22360  0.72400  Biso   1.000  C
  C86      1.0000 0.88564  0.21070  0.71290  Biso   1.000  C
  C87      1.0000 0.90380  0.22630  0.68040  Biso   1.000  C
  H41      1.0000 0.89050  0.24560  0.66600  Biso   1.000  H
  C88      1.0000 0.94140  0.21480  0.66780  Biso   1.000  C
  H42      1.0000 0.95350  0.22650  0.64600  Biso   1.000  H
  C89      1.0000 0.95970  0.18490  0.68920  Biso   1.000  C
  C90      1.0000 0.94260  0.17000  0.72200  Biso   1.000  C
  H43      1.0000 0.95630  0.15140  0.73700  Biso   1.000  H
  C91      1.0000 0.90460  0.18190  0.73410  Biso   1.000  C
  H44      1.0000 0.89260  0.17040  0.75600  Biso   1.000  H
  C92      1.0000 0.99529  0.13940  0.64500  Biso   1.000  C
  C93      1.0000 0.96090  0.12570  0.62840  Biso   1.000  C
  H45      1.0000 0.93660  0.13540  0.63730  Biso   1.000  H
  C94      1.0000 0.96180  0.09800  0.59900  Biso   1.000  C
  H46      1.0000 0.93800  0.08920  0.58820  Biso   1.000  H
  C95      1.0000 0.99690  0.08270  0.58470  Biso   1.000  C
  C96      1.0000 0.03185  0.09670  0.60130  Biso   1.000  C
  H47      1.0000 0.05600  0.08730  0.59210  Biso   1.000  H
  C97      1.0000 0.03110  0.12400  0.63090  Biso   1.000  C
  C98      1.0000 0.06764  0.16480  0.67410  Biso   1.000  C
  C99      1.0000 0.03243  0.18330  0.68760  Biso   1.000  C
  C100     1.0000 0.03600  0.21310  0.71550  Biso   1.000  C
  H48      1.0000 0.01330  0.22470  0.72590  Biso   1.000  H
  C101     1.0000 0.07317  0.22600  0.72820  Biso   1.000  C
  H49      1.0000 0.07520  0.24690  0.74590  Biso   1.000  H
  C102     1.0000 0.10698  0.20760  0.71430  Biso   1.000  C
  C103     1.0000 0.10424  0.17780  0.68650  Biso   1.000  C
  H50      1.0000 0.12710  0.16650  0.67620  Biso   1.000  H
  C104     1.0000 0.99800  0.05213  0.55313  Biso   1.000  C
  C105     1.0000 0.14762  0.21960  0.72720  Biso   1.000  C
  N5       1.0000 0.99636  0.16850  0.67490  Biso   1.000  N
  O29      1.0000 0.82756  0.24622  0.70058  Biso   1.000  O
  O30      1.0000 0.83110  0.21035  0.75583  Biso   1.000  O
  O31      1.0000 0.06689  0.13470  0.64700  Biso   1.000  O
  O32      1.0000 0.03142  0.04004  0.54198  Biso   1.000  O
  O33      1.0000 0.96516  0.04125  0.53989  Biso   1.000  O
  O34      1.0000 0.17521  0.19759  0.71652  Biso   1.000  O
  O35      1.0000 0.15031  0.24993  0.74940  Biso   1.000  O
  Zn6      1.0000 0.27404  0.76854  0.19831  Biso   1.000  Zn
  C106     1.0000 0.34486  0.72360  0.22400  Biso   1.000  C
  C107     1.0000 0.38564  0.71070  0.21290  Biso   1.000  C
  C108     1.0000 0.40380  0.72630  0.18040  Biso   1.000  C
  H51      1.0000 0.39050  0.74560  0.16600  Biso   1.000  H
  C109     1.0000 0.44140  0.71480  0.16780  Biso   1.000  C
  H52      1.0000 0.45350  0.72650  0.14600  Biso   1.000  H
  C110     1.0000 0.45970  0.68490  0.18920  Biso   1.000  C
  C111     1.0000 0.44260  0.67000  0.22200  Biso   1.000  C
  H53      1.0000 0.45630  0.65140  0.23700  Biso   1.000  H
  C112     1.0000 0.40460  0.68190  0.23410  Biso   1.000  C
  H54      1.0000 0.39260  0.67040  0.25600  Biso   1.000  H
  C113     1.0000 0.49529  0.63940  0.14500  Biso   1.000  C
  C114     1.0000 0.46090  0.62570  0.12840  Biso   1.000  C
  H55      1.0000 0.43660  0.63540  0.13730  Biso   1.000  H
  C115     1.0000 0.46180  0.59800  0.09900  Biso   1.000  C
  H56      1.0000 0.43800  0.58920  0.08820  Biso   1.000  H
  C116     1.0000 0.49690  0.58270  0.08470  Biso   1.000  C
  C117     1.0000 0.53185  0.59670  0.10130  Biso   1.000  C
  H57      1.0000 0.55600  0.58730  0.09210  Biso   1.000  H
  C118     1.0000 0.53110  0.62400  0.13090  Biso   1.000  C
  C119     1.0000 0.56764  0.66480  0.17410  Biso   1.000  C
  C120     1.0000 0.53243  0.68330  0.18760  Biso   1.000  C
  C121     1.0000 0.53600  0.71310  0.21550  Biso   1.000  C
  H58      1.0000 0.51330  0.72470  0.22590  Biso   1.000  H
  C122     1.0000 0.57317  0.72600  0.22820  Biso   1.000  C
  H59      1.0000 0.57520  0.74690  0.24590  Biso   1.000  H
  C123     1.0000 0.60698  0.70760  0.21430  Biso   1.000  C
  C124     1.0000 0.60424  0.67780  0.18650  Biso   1.000  C
  H60      1.0000 0.62710  0.66650  0.17620  Biso   1.000  H
  C125     1.0000 0.49800  0.55213  0.05313  Biso   1.000  C
  C126     1.0000 0.64762  0.71960  0.22720  Biso   1.000  C
  N6       1.0000 0.49636  0.66850  0.17490  Biso   1.000  N
  O36      1.0000 0.32756  0.74622  0.20058  Biso   1.000  O
  O37      1.0000 0.33110  0.71035  0.25583  Biso   1.000  O
  O38      1.0000 0.56689  0.63470  0.14700  Biso   1.000  O
  O39      1.0000 0.53142  0.54004  0.04198  Biso   1.000  O
  O40      1.0000 0.46516  0.54125  0.03989  Biso   1.000  O
  O41      1.0000 0.67521  0.69759  0.21652  Biso   1.000  O
  O42      1.0000 0.65031  0.74993  0.24940  Biso   1.000  O
  Zn7      1.0000 0.22596  0.73146  0.69831  Biso   1.000  Zn
  C127     1.0000 0.15514  0.77640  0.72400  Biso   1.000  C
  C128     1.0000 0.11436  0.78930  0.71290  Biso   1.000  C
  C129     1.0000 0.09620  0.77370  0.68040  Biso   1.000  C
  H61      1.0000 0.10950  0.75440  0.66600  Biso   1.000  H
  C130     1.0000 0.05860  0.78520  0.66780  Biso   1.000  C
  H62      1.0000 0.04650  0.77350  0.64600  Biso   1.000  H
  C131     1.0000 0.04030  0.81510  0.68920  Biso   1.000  C
  C132     1.0000 0.05740  0.83000  0.72200  Biso   1.000  C
  H63      1.0000 0.04370  0.84860  0.73700  Biso   1.000  H
  C133     1.0000 0.09540  0.81810  0.73410  Biso   1.000  C
  H64      1.0000 0.10740  0.82960  0.75600  Biso   1.000  H
  C134     1.0000 0.00471  0.86060  0.64500  Biso   1.000  C
  C135     1.0000 0.03910  0.87430  0.62840  Biso   1.000  C
  H65      1.0000 0.06340  0.86460  0.63730  Biso   1.000  H
  C136     1.0000 0.03820  0.90200  0.59900  Biso   1.000  C
  H66      1.0000 0.06200  0.91080  0.58820  Biso   1.000  H
  C137     1.0000 0.00310  0.91730  0.58470  Biso   1.000  C
  C138     1.0000 0.96815  0.90330  0.60130  Biso   1.000  C
  H67      1.0000 0.94400  0.91270  0.59210  Biso   1.000  H
  C139     1.0000 0.96890  0.87600  0.63090  Biso   1.000  C
  C140     1.0000 0.93236  0.83520  0.67410  Biso   1.000  C
  C141     1.0000 0.96757  0.81670  0.68760  Biso   1.000  C
  C142     1.0000 0.96400  0.78690  0.71550  Biso   1.000  C
  H68      1.0000 0.98670  0.77530  0.72590  Biso   1.000  H
  C143     1.0000 0.92683  0.77400  0.72820  Biso   1.000  C
  H69      1.0000 0.92480  0.75310  0.74590  Biso   1.000  H
  C144     1.0000 0.89302  0.79240  0.71430  Biso   1.000  C
  C145     1.0000 0.89576  0.82220  0.68650  Biso   1.000  C
  H70      1.0000 0.87290  0.83350  0.67620  Biso   1.000  H
  C146     1.0000 0.00200  0.94787  0.55313  Biso   1.000  C
  C147     1.0000 0.85238  0.78040  0.72720  Biso   1.000  C
  N7       1.0000 0.00364  0.83150  0.67490  Biso   1.000  N
  O43      1.0000 0.17244  0.75378  0.70058  Biso   1.000  O
  O44      1.0000 0.16890  0.78965  0.75583  Biso   1.000  O
  O45      1.0000 0.93311  0.86530  0.64700  Biso   1.000  O
  O46      1.0000 0.96858  0.95996  0.54198  Biso   1.000  O
  O47      1.0000 0.03484  0.95875  0.53989  Biso   1.000  O
  O48      1.0000 0.82479  0.80241  0.71652  Biso   1.000  O
  O49      1.0000 0.84969  0.75007  0.74940  Biso   1.000  O
  Zn8      1.0000 0.72596  0.23146  0.19831  Biso   1.000  Zn
  C148     1.0000 0.65514  0.27640  0.22400  Biso   1.000  C
  C149     1.0000 0.61436  0.28930  0.21290  Biso   1.000  C
  C150     1.0000 0.59620  0.27370  0.18040  Biso   1.000  C
  H71      1.0000 0.60950  0.25440  0.16600  Biso   1.000  H
  C151     1.0000 0.55860  0.28520  0.16780  Biso   1.000  C
  H72      1.0000 0.54650  0.27350  0.14600  Biso   1.000  H
  C152     1.0000 0.54030  0.31510  0.18920  Biso   1.000  C
  C153     1.0000 0.55740  0.33000  0.22200  Biso   1.000  C
  H73      1.0000 0.54370  0.34860  0.23700  Biso   1.000  H
  C154     1.0000 0.59540  0.31810  0.23410  Biso   1.000  C
  H74      1.0000 0.60740  0.32960  0.25600  Biso   1.000  H
  C155     1.0000 0.50471  0.36060  0.14500  Biso   1.000  C
  C156     1.0000 0.53910  0.37430  0.12840  Biso   1.000  C
  H75      1.0000 0.56340  0.36460  0.13730  Biso   1.000  H
  C157     1.0000 0.53820  0.40200  0.09900  Biso   1.000  C
  H76      1.0000 0.56200  0.41080  0.08820  Biso   1.000  H
  C158     1.0000 0.50310  0.41730  0.08470  Biso   1.000  C
  C159     1.0000 0.46815  0.40330  0.10130  Biso   1.000  C
  H77      1.0000 0.44400  0.41270  0.09210  Biso   1.000  H
  C160     1.0000 0.46890  0.37600  0.13090  Biso   1.000  C
  C161     1.0000 0.43236  0.33520  0.17410  Biso   1.000  C
  C162     1.0000 0.46757  0.31670  0.18760  Biso   1.000  C
  C163     1.0000 0.46400  0.28690  0.21550  Biso   1.000  C
  H78      1.0000 0.48670  0.27530  0.22590  Biso   1.000  H
  C164     1.0000 0.42683  0.27400  0.22820  Biso   1.000  C
  H79      1.0000 0.42480  0.25310  0.24590  Biso   1.000  H
  C165     1.0000 0.39302  0.29240  0.21430  Biso   1.000  C
  C166     1.0000 0.39576  0.32220  0.18650  Biso   1.000  C
  H80      1.0000 0.37290  0.33350  0.17620  Biso   1.000  H
  C167     1.0000 0.50200  0.44787  0.05313  Biso   1.000  C
  C168     1.0000 0.35238  0.28040  0.22720  Biso   1.000  C
  N8       1.0000 0.50364  0.33150  0.17490  Biso   1.000  N
  O50      1.0000 0.67244  0.25378  0.20058  Biso   1.000  O
  O51      1.0000 0.66890  0.28965  0.25583  Biso   1.000  O
  O52      1.0000 0.43311  0.36530  0.14700  Biso   1.000  O
  O53      1.0000 0.46858  0.45996  0.04198  Biso   1.000  O
  O54      1.0000 0.53484  0.45875  0.03989  Biso   1.000  O
  O55      1.0000 0.32479  0.30241  0.21652  Biso   1.000  O
  O56      1.0000 0.34969  0.25007  0.24940  Biso   1.000  O
  Zn9      1.0000 0.30169  0.22596  0.26854  Biso   1.000  Zn
  C169     1.0000 0.27600  0.15514  0.22360  Biso   1.000  C
  C170     1.0000 0.28710  0.11436  0.21070  Biso   1.000  C
  C171     1.0000 0.31960  0.09620  0.22630  Biso   1.000  C
  H81      1.0000 0.33400  0.10950  0.24560  Biso   1.000  H
  C172     1.0000 0.33220  0.05860  0.21480  Biso   1.000  C
  H82      1.0000 0.35400  0.04650  0.22650  Biso   1.000  H
  C173     1.0000 0.31080  0.04030  0.18490  Biso   1.000  C
  C174     1.0000 0.27800  0.05740  0.17000  Biso   1.000  C
  H83      1.0000 0.26300  0.04370  0.15140  Biso   1.000  H
  C175     1.0000 0.26590  0.09540  0.18190  Biso   1.000  C
  H84      1.0000 0.24400  0.10740  0.17040  Biso   1.000  H
  C176     1.0000 0.35500  0.00471  0.13940  Biso   1.000  C
  C177     1.0000 0.37160  0.03910  0.12570  Biso   1.000  C
  H85      1.0000 0.36270  0.06340  0.13540  Biso   1.000  H
  C178     1.0000 0.40100  0.03820  0.09800  Biso   1.000  C
  H86      1.0000 0.41180  0.06200  0.08920  Biso   1.000  H
  C179     1.0000 0.41530  0.00310  0.08270  Biso   1.000  C
  C180     1.0000 0.39870  0.96815  0.09670  Biso   1.000  C
  H87      1.0000 0.40790  0.94400  0.08730  Biso   1.000  H
  C181     1.0000 0.36910  0.96890  0.12400  Biso   1.000  C
  C182     1.0000 0.32590  0.93236  0.16480  Biso   1.000  C
  C183     1.0000 0.31240  0.96757  0.18330  Biso   1.000  C
  C184     1.0000 0.28450  0.96400  0.21310  Biso   1.000  C
  H88      1.0000 0.27410  0.98670  0.22470  Biso   1.000  H
  C185     1.0000 0.27180  0.92683  0.22600  Biso   1.000  C
  H89      1.0000 0.25410  0.92480  0.24690  Biso   1.000  H
  C186     1.0000 0.28570  0.89302  0.20760  Biso   1.000  C
  C187     1.0000 0.31350  0.89576  0.17780  Biso   1.000  C
  H90      1.0000 0.32380  0.87290  0.16650  Biso   1.000  H
  C188     1.0000 0.44687  0.00200  0.05213  Biso   1.000  C
  C189     1.0000 0.27280  0.85238  0.21960  Biso   1.000  C
  N9       1.0000 0.32510  0.00364  0.16850  Biso   1.000  N
  O57      1.0000 0.29942  0.17244  0.24622  Biso   1.000  O
  O58      1.0000 0.24417  0.16890  0.21035  Biso   1.000  O
  O59      1.0000 0.35300  0.93311  0.13470  Biso   1.000  O
  O60      1.0000 0.45802  0.96858  0.04004  Biso   1.000  O
  O61      1.0000 0.46011  0.03484  0.04125  Biso   1.000  O
  O62      1.0000 0.28348  0.82479  0.19759  Biso   1.000  O
  O63      1.0000 0.25060  0.84969  0.24993  Biso   1.000  O
  Zn10     1.0000 0.80169  0.72596  0.76854  Biso   1.000  Zn
  C190     1.0000 0.77600  0.65514  0.72360  Biso   1.000  C
  C191     1.0000 0.78710  0.61436  0.71070  Biso   1.000  C
  C192     1.0000 0.81960  0.59620  0.72630  Biso   1.000  C
  H91      1.0000 0.83400  0.60950  0.74560  Biso   1.000  H
  C193     1.0000 0.83220  0.55860  0.71480  Biso   1.000  C
  H92      1.0000 0.85400  0.54650  0.72650  Biso   1.000  H
  C194     1.0000 0.81080  0.54030  0.68490  Biso   1.000  C
  C195     1.0000 0.77800  0.55740  0.67000  Biso   1.000  C
  H93      1.0000 0.76300  0.54370  0.65140  Biso   1.000  H
  C196     1.0000 0.76590  0.59540  0.68190  Biso   1.000  C
  H94      1.0000 0.74400  0.60740  0.67040  Biso   1.000  H
  C197     1.0000 0.85500  0.50471  0.63940  Biso   1.000  C
  C198     1.0000 0.87160  0.53910  0.62570  Biso   1.000  C
  H95      1.0000 0.86270  0.56340  0.63540  Biso   1.000  H
  C199     1.0000 0.90100  0.53820  0.59800  Biso   1.000  C
  H96      1.0000 0.91180  0.56200  0.58920  Biso   1.000  H
  C200     1.0000 0.91530  0.50310  0.58270  Biso   1.000  C
  C201     1.0000 0.89870  0.46815  0.59670  Biso   1.000  C
  H97      1.0000 0.90790  0.44400  0.58730  Biso   1.000  H
  C202     1.0000 0.86910  0.46890  0.62400  Biso   1.000  C
  C203     1.0000 0.82590  0.43236  0.66480  Biso   1.000  C
  C204     1.0000 0.81240  0.46757  0.68330  Biso   1.000  C
  C205     1.0000 0.78450  0.46400  0.71310  Biso   1.000  C
  H98      1.0000 0.77410  0.48670  0.72470  Biso   1.000  H
  C206     1.0000 0.77180  0.42683  0.72600  Biso   1.000  C
  H99      1.0000 0.75410  0.42480  0.74690  Biso   1.000  H
  C207     1.0000 0.78570  0.39302  0.70760  Biso   1.000  C
  C208     1.0000 0.81350  0.39576  0.67780  Biso   1.000  C
  H100     1.0000 0.82380  0.37290  0.66650  Biso   1.000  H
  C209     1.0000 0.94687  0.50200  0.55213  Biso   1.000  C
  C210     1.0000 0.77280  0.35238  0.71960  Biso   1.000  C
  N10      1.0000 0.82510  0.50364  0.66850  Biso   1.000  N
  O64      1.0000 0.79942  0.67244  0.74622  Biso   1.000  O
  O65      1.0000 0.74417  0.66890  0.71035  Biso   1.000  O
  O66      1.0000 0.85300  0.43311  0.63470  Biso   1.000  O
  O67      1.0000 0.95802  0.46858  0.54004  Biso   1.000  O
  O68      1.0000 0.96011  0.53484  0.54125  Biso   1.000  O
  O69      1.0000 0.78348  0.32479  0.69759  Biso   1.000  O
  O70      1.0000 0.75060  0.34969  0.74993  Biso   1.000  O
  Zn11     1.0000 0.30169  0.77404  0.73146  Biso   1.000  Zn
  C211     1.0000 0.27600  0.84486  0.77640  Biso   1.000  C
  C212     1.0000 0.28710  0.88564  0.78930  Biso   1.000  C
  C213     1.0000 0.31960  0.90380  0.77370  Biso   1.000  C
  H101     1.0000 0.33400  0.89050  0.75440  Biso   1.000  H
  C214     1.0000 0.33220  0.94140  0.78520  Biso   1.000  C
  H102     1.0000 0.35400  0.95350  0.77350  Biso   1.000  H
  C215     1.0000 0.31080  0.95970  0.81510  Biso   1.000  C
  C216     1.0000 0.27800  0.94260  0.83000  Biso   1.000  C
  H103     1.0000 0.26300  0.95630  0.84860  Biso   1.000  H
  C217     1.0000 0.26590  0.90460  0.81810  Biso   1.000  C
  H104     1.0000 0.24400  0.89260  0.82960  Biso   1.000  H
  C218     1.0000 0.35500  0.99529  0.86060  Biso   1.000  C
  C219     1.0000 0.37160  0.96090  0.87430  Biso   1.000  C
  H105     1.0000 0.36270  0.93660  0.86460  Biso   1.000  H
  C220     1.0000 0.40100  0.96180  0.90200  Biso   1.000  C
  H106     1.0000 0.41180  0.93800  0.91080  Biso   1.000  H
  C221     1.0000 0.41530  0.99690  0.91730  Biso   1.000  C
  C222     1.0000 0.39870  0.03185  0.90330  Biso   1.000  C
  H107     1.0000 0.40790  0.05600  0.91270  Biso   1.000  H
  C223     1.0000 0.36910  0.03110  0.87600  Biso   1.000  C
  C224     1.0000 0.32590  0.06764  0.83520  Biso   1.000  C
  C225     1.0000 0.31240  0.03243  0.81670  Biso   1.000  C
  C226     1.0000 0.28450  0.03600  0.78690  Biso   1.000  C
  H108     1.0000 0.27410  0.01330  0.77530  Biso   1.000  H
  C227     1.0000 0.27180  0.07317  0.77400  Biso   1.000  C
  H109     1.0000 0.25410  0.07520  0.75310  Biso   1.000  H
  C228     1.0000 0.28570  0.10698  0.79240  Biso   1.000  C
  C229     1.0000 0.31350  0.10424  0.82220  Biso   1.000  C
  H110     1.0000 0.32380  0.12710  0.83350  Biso   1.000  H
  C230     1.0000 0.44687  0.99800  0.94787  Biso   1.000  C
  C231     1.0000 0.27280  0.14762  0.78040  Biso   1.000  C
  N11      1.0000 0.32510  0.99636  0.83150  Biso   1.000  N
  O71      1.0000 0.29942  0.82756  0.75378  Biso   1.000  O
  O72      1.0000 0.24417  0.83110  0.78965  Biso   1.000  O
  O73      1.0000 0.35300  0.06689  0.86530  Biso   1.000  O
  O74      1.0000 0.45802  0.03142  0.95996  Biso   1.000  O
  O75      1.0000 0.46011  0.96516  0.95875  Biso   1.000  O
  O76      1.0000 0.28348  0.17521  0.80241  Biso   1.000  O
  O77      1.0000 0.25060  0.15031  0.75007  Biso   1.000  O
  Zn12     1.0000 0.80169  0.27404  0.23146  Biso   1.000  Zn
  C232     1.0000 0.77600  0.34486  0.27640  Biso   1.000  C
  C233     1.0000 0.78710  0.38564  0.28930  Biso   1.000  C
  C234     1.0000 0.81960  0.40380  0.27370  Biso   1.000  C
  H111     1.0000 0.83400  0.39050  0.25440  Biso   1.000  H
  C235     1.0000 0.83220  0.44140  0.28520  Biso   1.000  C
  H112     1.0000 0.85400  0.45350  0.27350  Biso   1.000  H
  C236     1.0000 0.81080  0.45970  0.31510  Biso   1.000  C
  C237     1.0000 0.77800  0.44260  0.33000  Biso   1.000  C
  H113     1.0000 0.76300  0.45630  0.34860  Biso   1.000  H
  C238     1.0000 0.76590  0.40460  0.31810  Biso   1.000  C
  H114     1.0000 0.74400  0.39260  0.32960  Biso   1.000  H
  C239     1.0000 0.85500  0.49529  0.36060  Biso   1.000  C
  C240     1.0000 0.87160  0.46090  0.37430  Biso   1.000  C
  H115     1.0000 0.86270  0.43660  0.36460  Biso   1.000  H
  C241     1.0000 0.90100  0.46180  0.40200  Biso   1.000  C
  H116     1.0000 0.91180  0.43800  0.41080  Biso   1.000  H
  C242     1.0000 0.91530  0.49690  0.41730  Biso   1.000  C
  C243     1.0000 0.89870  0.53185  0.40330  Biso   1.000  C
  H117     1.0000 0.90790  0.55600  0.41270  Biso   1.000  H
  C244     1.0000 0.86910  0.53110  0.37600  Biso   1.000  C
  C245     1.0000 0.82590  0.56764  0.33520  Biso   1.000  C
  C246     1.0000 0.81240  0.53243  0.31670  Biso   1.000  C
  C247     1.0000 0.78450  0.53600  0.28690  Biso   1.000  C
  H118     1.0000 0.77410  0.51330  0.27530  Biso   1.000  H
  C248     1.0000 0.77180  0.57317  0.27400  Biso   1.000  C
  H119     1.0000 0.75410  0.57520  0.25310  Biso   1.000  H
  C249     1.0000 0.78570  0.60698  0.29240  Biso   1.000  C
  C250     1.0000 0.81350  0.60424  0.32220  Biso   1.000  C
  H120     1.0000 0.82380  0.62710  0.33350  Biso   1.000  H
  C251     1.0000 0.94687  0.49800  0.44787  Biso   1.000  C
  C252     1.0000 0.77280  0.64762  0.28040  Biso   1.000  C
  N12      1.0000 0.82510  0.49636  0.33150  Biso   1.000  N
  O78      1.0000 0.79942  0.32756  0.25378  Biso   1.000  O
  O79      1.0000 0.74417  0.33110  0.28965  Biso   1.000  O
  O80      1.0000 0.85300  0.56689  0.36530  Biso   1.000  O
  O81      1.0000 0.95802  0.53142  0.45996  Biso   1.000  O
  O82      1.0000 0.96011  0.46516  0.45875  Biso   1.000  O
  O83      1.0000 0.78348  0.67521  0.30241  Biso   1.000  O
  O84      1.0000 0.75060  0.65031  0.25007  Biso   1.000  O
  Zn13     1.0000 0.69831  0.77404  0.26854  Biso   1.000  Zn
  C253     1.0000 0.72400  0.84486  0.22360  Biso   1.000  C
  C254     1.0000 0.71290  0.88564  0.21070  Biso   1.000  C
  C255     1.0000 0.68040  0.90380  0.22630  Biso   1.000  C
  H121     1.0000 0.66600  0.89050  0.24560  Biso   1.000  H
  C256     1.0000 0.66780  0.94140  0.21480  Biso   1.000  C
  H122     1.0000 0.64600  0.95350  0.22650  Biso   1.000  H
  C257     1.0000 0.68920  0.95970  0.18490  Biso   1.000  C
  C258     1.0000 0.72200  0.94260  0.17000  Biso   1.000  C
  H123     1.0000 0.73700  0.95630  0.15140  Biso   1.000  H
  C259     1.0000 0.73410  0.90460  0.18190  Biso   1.000  C
  H124     1.0000 0.75600  0.89260  0.17040  Biso   1.000  H
  C260     1.0000 0.64500  0.99529  0.13940  Biso   1.000  C
  C261     1.0000 0.62840  0.96090  0.12570  Biso   1.000  C
  H125     1.0000 0.63730  0.93660  0.13540  Biso   1.000  H
  C262     1.0000 0.59900  0.96180  0.09800  Biso   1.000  C
  H126     1.0000 0.58820  0.93800  0.08920  Biso   1.000  H
  C263     1.0000 0.58470  0.99690  0.08270  Biso   1.000  C
  C264     1.0000 0.60130  0.03185  0.09670  Biso   1.000  C
  H127     1.0000 0.59210  0.05600  0.08730  Biso   1.000  H
  C265     1.0000 0.63090  0.03110  0.12400  Biso   1.000  C
  C266     1.0000 0.67410  0.06764  0.16480  Biso   1.000  C
  C267     1.0000 0.68760  0.03243  0.18330  Biso   1.000  C
  C268     1.0000 0.71550  0.03600  0.21310  Biso   1.000  C
  H128     1.0000 0.72590  0.01330  0.22470  Biso   1.000  H
  C269     1.0000 0.72820  0.07317  0.22600  Biso   1.000  C
  H129     1.0000 0.74590  0.07520  0.24690  Biso   1.000  H
  C270     1.0000 0.71430  0.10698  0.20760  Biso   1.000  C
  C271     1.0000 0.68650  0.10424  0.17780  Biso   1.000  C
  H130     1.0000 0.67620  0.12710  0.16650  Biso   1.000  H
  C272     1.0000 0.55313  0.99800  0.05213  Biso   1.000  C
  C273     1.0000 0.72720  0.14762  0.21960  Biso   1.000  C
  N13      1.0000 0.67490  0.99636  0.16850  Biso   1.000  N
  O85      1.0000 0.70058  0.82756  0.24622  Biso   1.000  O
  O86      1.0000 0.75583  0.83110  0.21035  Biso   1.000  O
  O87      1.0000 0.64700  0.06689  0.13470  Biso   1.000  O
  O88      1.0000 0.54198  0.03142  0.04004  Biso   1.000  O
  O89      1.0000 0.53989  0.96516  0.04125  Biso   1.000  O
  O90      1.0000 0.71652  0.17521  0.19759  Biso   1.000  O
  O91      1.0000 0.74940  0.15031  0.24993  Biso   1.000  O
  Zn14     1.0000 0.19831  0.27404  0.76854  Biso   1.000  Zn
  C274     1.0000 0.22400  0.34486  0.72360  Biso   1.000  C
  C275     1.0000 0.21290  0.38564  0.71070  Biso   1.000  C
  C276     1.0000 0.18040  0.40380  0.72630  Biso   1.000  C
  H131     1.0000 0.16600  0.39050  0.74560  Biso   1.000  H
  C277     1.0000 0.16780  0.44140  0.71480  Biso   1.000  C
  H132     1.0000 0.14600  0.45350  0.72650  Biso   1.000  H
  C278     1.0000 0.18920  0.45970  0.68490  Biso   1.000  C
  C279     1.0000 0.22200  0.44260  0.67000  Biso   1.000  C
  H133     1.0000 0.23700  0.45630  0.65140  Biso   1.000  H
  C280     1.0000 0.23410  0.40460  0.68190  Biso   1.000  C
  H134     1.0000 0.25600  0.39260  0.67040  Biso   1.000  H
  C281     1.0000 0.14500  0.49529  0.63940  Biso   1.000  C
  C282     1.0000 0.12840  0.46090  0.62570  Biso   1.000  C
  H135     1.0000 0.13730  0.43660  0.63540  Biso   1.000  H
  C283     1.0000 0.09900  0.46180  0.59800  Biso   1.000  C
  H136     1.0000 0.08820  0.43800  0.58920  Biso   1.000  H
  C284     1.0000 0.08470  0.49690  0.58270  Biso   1.000  C
  C285     1.0000 0.10130  0.53185  0.59670  Biso   1.000  C
  H137     1.0000 0.09210  0.55600  0.58730  Biso   1.000  H
  C286     1.0000 0.13090  0.53110  0.62400  Biso   1.000  C
  C287     1.0000 0.17410  0.56764  0.66480  Biso   1.000  C
  C288     1.0000 0.18760  0.53243  0.68330  Biso   1.000  C
  C289     1.0000 0.21550  0.53600  0.71310  Biso   1.000  C
  H138     1.0000 0.22590  0.51330  0.72470  Biso   1.000  H
  C290     1.0000 0.22820  0.57317  0.72600  Biso   1.000  C
  H139     1.0000 0.24590  0.57520  0.74690  Biso   1.000  H
  C291     1.0000 0.21430  0.60698  0.70760  Biso   1.000  C
  C292     1.0000 0.18650  0.60424  0.67780  Biso   1.000  C
  H140     1.0000 0.17620  0.62710  0.66650  Biso   1.000  H
  C293     1.0000 0.05313  0.49800  0.55213  Biso   1.000  C
  C294     1.0000 0.22720  0.64762  0.71960  Biso   1.000  C
  N14      1.0000 0.17490  0.49636  0.66850  Biso   1.000  N
  O92      1.0000 0.20058  0.32756  0.74622  Biso   1.000  O
  O93      1.0000 0.25583  0.33110  0.71035  Biso   1.000  O
  O94      1.0000 0.14700  0.56689  0.63470  Biso   1.000  O
  O95      1.0000 0.04198  0.53142  0.54004  Biso   1.000  O
  O96      1.0000 0.03989  0.46516  0.54125  Biso   1.000  O
  O97      1.0000 0.21652  0.67521  0.69759  Biso   1.000  O
  O98      1.0000 0.24940  0.65031  0.74993  Biso   1.000  O
  Zn15     1.0000 0.69831  0.22596  0.73146  Biso   1.000  Zn
  C295     1.0000 0.72400  0.15514  0.77640  Biso   1.000  C
  C296     1.0000 0.71290  0.11436  0.78930  Biso   1.000  C
  C297     1.0000 0.68040  0.09620  0.77370  Biso   1.000  C
  H141     1.0000 0.66600  0.10950  0.75440  Biso   1.000  H
  C298     1.0000 0.66780  0.05860  0.78520  Biso   1.000  C
  H142     1.0000 0.64600  0.04650  0.77350  Biso   1.000  H
  C299     1.0000 0.68920  0.04030  0.81510  Biso   1.000  C
  C300     1.0000 0.72200  0.05740  0.83000  Biso   1.000  C
  H143     1.0000 0.73700  0.04370  0.84860  Biso   1.000  H
  C301     1.0000 0.73410  0.09540  0.81810  Biso   1.000  C
  H144     1.0000 0.75600  0.10740  0.82960  Biso   1.000  H
  C302     1.0000 0.64500  0.00471  0.86060  Biso   1.000  C
  C303     1.0000 0.62840  0.03910  0.87430  Biso   1.000  C
  H145     1.0000 0.63730  0.06340  0.86460  Biso   1.000  H
  C304     1.0000 0.59900  0.03820  0.90200  Biso   1.000  C
  H146     1.0000 0.58820  0.06200  0.91080  Biso   1.000  H
  C305     1.0000 0.58470  0.00310  0.91730  Biso   1.000  C
  C306     1.0000 0.60130  0.96815  0.90330  Biso   1.000  C
  H147     1.0000 0.59210  0.94400  0.91270  Biso   1.000  H
  C307     1.0000 0.63090  0.96890  0.87600  Biso   1.000  C
  C308     1.0000 0.67410  0.93236  0.83520  Biso   1.000  C
  C309     1.0000 0.68760  0.96757  0.81670  Biso   1.000  C
  C310     1.0000 0.71550  0.96400  0.78690  Biso   1.000  C
  H148     1.0000 0.72590  0.98670  0.77530  Biso   1.000  H
  C311     1.0000 0.72820  0.92683  0.77400  Biso   1.000  C
  H149     1.0000 0.74590  0.92480  0.75310  Biso   1.000  H
  C312     1.0000 0.71430  0.89302  0.79240  Biso   1.000  C
  C313     1.0000 0.68650  0.89576  0.82220  Biso   1.000  C
  H150     1.0000 0.67620  0.87290  0.83350  Biso   1.000  H
  C314     1.0000 0.55313  0.00200  0.94787  Biso   1.000  C
  C315     1.0000 0.72720  0.85238  0.78040  Biso   1.000  C
  N15      1.0000 0.67490  0.00364  0.83150  Biso   1.000  N
  O99      1.0000 0.70058  0.17244  0.75378  Biso   1.000  O
  O100     1.0000 0.75583  0.16890  0.78965  Biso   1.000  O
  O101     1.0000 0.64700  0.93311  0.86530  Biso   1.000  O
  O102     1.0000 0.54198  0.96858  0.95996  Biso   1.000  O
  O103     1.0000 0.53989  0.03484  0.95875  Biso   1.000  O
  O104     1.0000 0.71652  0.82479  0.80241  Biso   1.000  O
  O105     1.0000 0.74940  0.84969  0.75007  Biso   1.000  O
  Zn16     1.0000 0.19831  0.72596  0.23146  Biso   1.000  Zn
  C316     1.0000 0.22400  0.65514  0.27640  Biso   1.000  C
  C317     1.0000 0.21290  0.61436  0.28930  Biso   1.000  C
  C318     1.0000 0.18040  0.59620  0.27370  Biso   1.000  C
  H151     1.0000 0.16600  0.60950  0.25440  Biso   1.000  H
  C319     1.0000 0.16780  0.55860  0.28520  Biso   1.000  C
  H152     1.0000 0.14600  0.54650  0.27350  Biso   1.000  H
  C320     1.0000 0.18920  0.54030  0.31510  Biso   1.000  C
  C321     1.0000 0.22200  0.55740  0.33000  Biso   1.000  C
  H153     1.0000 0.23700  0.54370  0.34860  Biso   1.000  H
  C322     1.0000 0.23410  0.59540  0.31810  Biso   1.000  C
  H154     1.0000 0.25600  0.60740  0.32960  Biso   1.000  H
  C323     1.0000 0.14500  0.50471  0.36060  Biso   1.000  C
  C324     1.0000 0.12840  0.53910  0.37430  Biso   1.000  C
  H155     1.0000 0.13730  0.56340  0.36460  Biso   1.000  H
  C325     1.0000 0.09900  0.53820  0.40200  Biso   1.000  C
  H156     1.0000 0.08820  0.56200  0.41080  Biso   1.000  H
  C326     1.0000 0.08470  0.50310  0.41730  Biso   1.000  C
  C327     1.0000 0.10130  0.46815  0.40330  Biso   1.000  C
  H157     1.0000 0.09210  0.44400  0.41270  Biso   1.000  H
  C328     1.0000 0.13090  0.46890  0.37600  Biso   1.000  C
  C329     1.0000 0.17410  0.43236  0.33520  Biso   1.000  C
  C330     1.0000 0.18760  0.46757  0.31670  Biso   1.000  C
  C331     1.0000 0.21550  0.46400  0.28690  Biso   1.000  C
  H158     1.0000 0.22590  0.48670  0.27530  Biso   1.000  H
  C332     1.0000 0.22820  0.42683  0.27400  Biso   1.000  C
  H159     1.0000 0.24590  0.42480  0.25310  Biso   1.000  H
  C333     1.0000 0.21430  0.39302  0.29240  Biso   1.000  C
  C334     1.0000 0.18650  0.39576  0.32220  Biso   1.000  C
  H160     1.0000 0.17620  0.37290  0.33350  Biso   1.000  H
  C335     1.0000 0.05313  0.50200  0.44787  Biso   1.000  C
  C336     1.0000 0.22720  0.35238  0.28040  Biso   1.000  C
  N16      1.0000 0.17490  0.50364  0.33150  Biso   1.000  N
  O106     1.0000 0.20058  0.67244  0.25378  Biso   1.000  O
  O107     1.0000 0.25583  0.66890  0.28965  Biso   1.000  O
  O108     1.0000 0.14700  0.43311  0.36530  Biso   1.000  O
  O109     1.0000 0.04198  0.46858  0.45996  Biso   1.000  O
  O110     1.0000 0.03989  0.53484  0.45875  Biso   1.000  O
  O111     1.0000 0.21652  0.32479  0.30241  Biso   1.000  O
  O112     1.0000 0.24940  0.34969  0.25007  Biso   1.000  O
  Zn17     1.0000 0.26854  0.30169  0.22596  Biso   1.000  Zn
  C337     1.0000 0.22360  0.27600  0.15514  Biso   1.000  C
  C338     1.0000 0.21070  0.28710  0.11436  Biso   1.000  C
  C339     1.0000 0.22630  0.31960  0.09620  Biso   1.000  C
  H161     1.0000 0.24560  0.33400  0.10950  Biso   1.000  H
  C340     1.0000 0.21480  0.33220  0.05860  Biso   1.000  C
  H162     1.0000 0.22650  0.35400  0.04650  Biso   1.000  H
  C341     1.0000 0.18490  0.31080  0.04030  Biso   1.000  C
  C342     1.0000 0.17000  0.27800  0.05740  Biso   1.000  C
  H163     1.0000 0.15140  0.26300  0.04370  Biso   1.000  H
  C343     1.0000 0.18190  0.26590  0.09540  Biso   1.000  C
  H164     1.0000 0.17040  0.24400  0.10740  Biso   1.000  H
  C344     1.0000 0.13940  0.35500  0.00471  Biso   1.000  C
  C345     1.0000 0.12570  0.37160  0.03910  Biso   1.000  C
  H165     1.0000 0.13540  0.36270  0.06340  Biso   1.000  H
  C346     1.0000 0.09800  0.40100  0.03820  Biso   1.000  C
  H166     1.0000 0.08920  0.41180  0.06200  Biso   1.000  H
  C347     1.0000 0.08270  0.41530  0.00310  Biso   1.000  C
  C348     1.0000 0.09670  0.39870  0.96815  Biso   1.000  C
  H167     1.0000 0.08730  0.40790  0.94400  Biso   1.000  H
  C349     1.0000 0.12400  0.36910  0.96890  Biso   1.000  C
  C350     1.0000 0.16480  0.32590  0.93236  Biso   1.000  C
  C351     1.0000 0.18330  0.31240  0.96757  Biso   1.000  C
  C352     1.0000 0.21310  0.28450  0.96400  Biso   1.000  C
  H168     1.0000 0.22470  0.27410  0.98670  Biso   1.000  H
  C353     1.0000 0.22600  0.27180  0.92683  Biso   1.000  C
  H169     1.0000 0.24690  0.25410  0.92480  Biso   1.000  H
  C354     1.0000 0.20760  0.28570  0.89302  Biso   1.000  C
  C355     1.0000 0.17780  0.31350  0.89576  Biso   1.000  C
  H170     1.0000 0.16650  0.32380  0.87290  Biso   1.000  H
  C356     1.0000 0.05213  0.44687  0.00200  Biso   1.000  C
  C357     1.0000 0.21960  0.27280  0.85238  Biso   1.000  C
  N17      1.0000 0.16850  0.32510  0.00364  Biso   1.000  N
  O113     1.0000 0.24622  0.29942  0.17244  Biso   1.000  O
  O114     1.0000 0.21035  0.24417  0.16890  Biso   1.000  O
  O115     1.0000 0.13470  0.35300  0.93311  Biso   1.000  O
  O116     1.0000 0.04004  0.45802  0.96858  Biso   1.000  O
  O117     1.0000 0.04125  0.46011  0.03484  Biso   1.000  O
  O118     1.0000 0.19759  0.28348  0.82479  Biso   1.000  O
  O119     1.0000 0.24993  0.25060  0.84969  Biso   1.000  O
  Zn18     1.0000 0.76854  0.80169  0.72596  Biso   1.000  Zn
  C358     1.0000 0.72360  0.77600  0.65514  Biso   1.000  C
  C359     1.0000 0.71070  0.78710  0.61436  Biso   1.000  C
  C360     1.0000 0.72630  0.81960  0.59620  Biso   1.000  C
  H171     1.0000 0.74560  0.83400  0.60950  Biso   1.000  H
  C361     1.0000 0.71480  0.83220  0.55860  Biso   1.000  C
  H172     1.0000 0.72650  0.85400  0.54650  Biso   1.000  H
  C362     1.0000 0.68490  0.81080  0.54030  Biso   1.000  C
  C363     1.0000 0.67000  0.77800  0.55740  Biso   1.000  C
  H173     1.0000 0.65140  0.76300  0.54370  Biso   1.000  H
  C364     1.0000 0.68190  0.76590  0.59540  Biso   1.000  C
  H174     1.0000 0.67040  0.74400  0.60740  Biso   1.000  H
  C365     1.0000 0.63940  0.85500  0.50471  Biso   1.000  C
  C366     1.0000 0.62570  0.87160  0.53910  Biso   1.000  C
  H175     1.0000 0.63540  0.86270  0.56340  Biso   1.000  H
  C367     1.0000 0.59800  0.90100  0.53820  Biso   1.000  C
  H176     1.0000 0.58920  0.91180  0.56200  Biso   1.000  H
  C368     1.0000 0.58270  0.91530  0.50310  Biso   1.000  C
  C369     1.0000 0.59670  0.89870  0.46815  Biso   1.000  C
  H177     1.0000 0.58730  0.90790  0.44400  Biso   1.000  H
  C370     1.0000 0.62400  0.86910  0.46890  Biso   1.000  C
  C371     1.0000 0.66480  0.82590  0.43236  Biso   1.000  C
  C372     1.0000 0.68330  0.81240  0.46757  Biso   1.000  C
  C373     1.0000 0.71310  0.78450  0.46400  Biso   1.000  C
  H178     1.0000 0.72470  0.77410  0.48670  Biso   1.000  H
  C374     1.0000 0.72600  0.77180  0.42683  Biso   1.000  C
  H179     1.0000 0.74690  0.75410  0.42480  Biso   1.000  H
  C375     1.0000 0.70760  0.78570  0.39302  Biso   1.000  C
  C376     1.0000 0.67780  0.81350  0.39576  Biso   1.000  C
  H180     1.0000 0.66650  0.82380  0.37290  Biso   1.000  H
  C377     1.0000 0.55213  0.94687  0.50200  Biso   1.000  C
  C378     1.0000 0.71960  0.77280  0.35238  Biso   1.000  C
  N18      1.0000 0.66850  0.82510  0.50364  Biso   1.000  N
  O120     1.0000 0.74622  0.79942  0.67244  Biso   1.000  O
  O121     1.0000 0.71035  0.74417  0.66890  Biso   1.000  O
  O122     1.0000 0.63470  0.85300  0.43311  Biso   1.000  O
  O123     1.0000 0.54004  0.95802  0.46858  Biso   1.000  O
  O124     1.0000 0.54125  0.96011  0.53484  Biso   1.000  O
  O125     1.0000 0.69759  0.78348  0.32479  Biso   1.000  O
  O126     1.0000 0.74993  0.75060  0.34969  Biso   1.000  O
  Zn19     1.0000 0.73146  0.30169  0.77404  Biso   1.000  Zn
  C379     1.0000 0.77640  0.27600  0.84486  Biso   1.000  C
  C380     1.0000 0.78930  0.28710  0.88564  Biso   1.000  C
  C381     1.0000 0.77370  0.31960  0.90380  Biso   1.000  C
  H181     1.0000 0.75440  0.33400  0.89050  Biso   1.000  H
  C382     1.0000 0.78520  0.33220  0.94140  Biso   1.000  C
  H182     1.0000 0.77350  0.35400  0.95350  Biso   1.000  H
  C383     1.0000 0.81510  0.31080  0.95970  Biso   1.000  C
  C384     1.0000 0.83000  0.27800  0.94260  Biso   1.000  C
  H183     1.0000 0.84860  0.26300  0.95630  Biso   1.000  H
  C385     1.0000 0.81810  0.26590  0.90460  Biso   1.000  C
  H184     1.0000 0.82960  0.24400  0.89260  Biso   1.000  H
  C386     1.0000 0.86060  0.35500  0.99529  Biso   1.000  C
  C387     1.0000 0.87430  0.37160  0.96090  Biso   1.000  C
  H185     1.0000 0.86460  0.36270  0.93660  Biso   1.000  H
  C388     1.0000 0.90200  0.40100  0.96180  Biso   1.000  C
  H186     1.0000 0.91080  0.41180  0.93800  Biso   1.000  H
  C389     1.0000 0.91730  0.41530  0.99690  Biso   1.000  C
  C390     1.0000 0.90330  0.39870  0.03185  Biso   1.000  C
  H187     1.0000 0.91270  0.40790  0.05600  Biso   1.000  H
  C391     1.0000 0.87600  0.36910  0.03110  Biso   1.000  C
  C392     1.0000 0.83520  0.32590  0.06764  Biso   1.000  C
  C393     1.0000 0.81670  0.31240  0.03243  Biso   1.000  C
  C394     1.0000 0.78690  0.28450  0.03600  Biso   1.000  C
  H188     1.0000 0.77530  0.27410  0.01330  Biso   1.000  H
  C395     1.0000 0.77400  0.27180  0.07317  Biso   1.000  C
  H189     1.0000 0.75310  0.25410  0.07520  Biso   1.000  H
  C396     1.0000 0.79240  0.28570  0.10698  Biso   1.000  C
  C397     1.0000 0.82220  0.31350  0.10424  Biso   1.000  C
  H190     1.0000 0.83350  0.32380  0.12710  Biso   1.000  H
  C398     1.0000 0.94787  0.44687  0.99800  Biso   1.000  C
  C399     1.0000 0.78040  0.27280  0.14762  Biso   1.000  C
  N19      1.0000 0.83150  0.32510  0.99636  Biso   1.000  N
  O127     1.0000 0.75378  0.29942  0.82756  Biso   1.000  O
  O128     1.0000 0.78965  0.24417  0.83110  Biso   1.000  O
  O129     1.0000 0.86530  0.35300  0.06689  Biso   1.000  O
  O130     1.0000 0.95996  0.45802  0.03142  Biso   1.000  O
  O131     1.0000 0.95875  0.46011  0.96516  Biso   1.000  O
  O132     1.0000 0.80241  0.28348  0.17521  Biso   1.000  O
  O133     1.0000 0.75007  0.25060  0.15031  Biso   1.000  O
  Zn20     1.0000 0.23146  0.80169  0.27404  Biso   1.000  Zn
  C400     1.0000 0.27640  0.77600  0.34486  Biso   1.000  C
  C401     1.0000 0.28930  0.78710  0.38564  Biso   1.000  C
  C402     1.0000 0.27370  0.81960  0.40380  Biso   1.000  C
  H191     1.0000 0.25440  0.83400  0.39050  Biso   1.000  H
  C403     1.0000 0.28520  0.83220  0.44140  Biso   1.000  C
  H192     1.0000 0.27350  0.85400  0.45350  Biso   1.000  H
  C404     1.0000 0.31510  0.81080  0.45970  Biso   1.000  C
  C405     1.0000 0.33000  0.77800  0.44260  Biso   1.000  C
  H193     1.0000 0.34860  0.76300  0.45630  Biso   1.000  H
  C406     1.0000 0.31810  0.76590  0.40460  Biso   1.000  C
  H194     1.0000 0.32960  0.74400  0.39260  Biso   1.000  H
  C407     1.0000 0.36060  0.85500  0.49529  Biso   1.000  C
  C408     1.0000 0.37430  0.87160  0.46090  Biso   1.000  C
  H195     1.0000 0.36460  0.86270  0.43660  Biso   1.000  H
  C409     1.0000 0.40200  0.90100  0.46180  Biso   1.000  C
  H196     1.0000 0.41080  0.91180  0.43800  Biso   1.000  H
  C410     1.0000 0.41730  0.91530  0.49690  Biso   1.000  C
  C411     1.0000 0.40330  0.89870  0.53185  Biso   1.000  C
  H197     1.0000 0.41270  0.90790  0.55600  Biso   1.000  H
  C412     1.0000 0.37600  0.86910  0.53110  Biso   1.000  C
  C413     1.0000 0.33520  0.82590  0.56764  Biso   1.000  C
  C414     1.0000 0.31670  0.81240  0.53243  Biso   1.000  C
  C415     1.0000 0.28690  0.78450  0.53600  Biso   1.000  C
  H198     1.0000 0.27530  0.77410  0.51330  Biso   1.000  H
  C416     1.0000 0.27400  0.77180  0.57317  Biso   1.000  C
  H199     1.0000 0.25310  0.75410  0.57520  Biso   1.000  H
  C417     1.0000 0.29240  0.78570  0.60698  Biso   1.000  C
  C418     1.0000 0.32220  0.81350  0.60424  Biso   1.000  C
  H200     1.0000 0.33350  0.82380  0.62710  Biso   1.000  H
  C419     1.0000 0.44787  0.94687  0.49800  Biso   1.000  C
  C420     1.0000 0.28040  0.77280  0.64762  Biso   1.000  C
  N20      1.0000 0.33150  0.82510  0.49636  Biso   1.000  N
  O134     1.0000 0.25378  0.79942  0.32756  Biso   1.000  O
  O135     1.0000 0.28965  0.74417  0.33110  Biso   1.000  O
  O136     1.0000 0.36530  0.85300  0.56689  Biso   1.000  O
  O137     1.0000 0.45996  0.95802  0.53142  Biso   1.000  O
  O138     1.0000 0.45875  0.96011  0.46516  Biso   1.000  O
  O139     1.0000 0.30241  0.78348  0.67521  Biso   1.000  O
  O140     1.0000 0.25007  0.75060  0.65031  Biso   1.000  O
  Zn21     1.0000 0.26854  0.69831  0.77404  Biso   1.000  Zn
  C421     1.0000 0.22360  0.72400  0.84486  Biso   1.000  C
  C422     1.0000 0.21070  0.71290  0.88564  Biso   1.000  C
  C423     1.0000 0.22630  0.68040  0.90380  Biso   1.000  C
  H201     1.0000 0.24560  0.66600  0.89050  Biso   1.000  H
  C424     1.0000 0.21480  0.66780  0.94140  Biso   1.000  C
  H202     1.0000 0.22650  0.64600  0.95350  Biso   1.000  H
  C425     1.0000 0.18490  0.68920  0.95970  Biso   1.000  C
  C426     1.0000 0.17000  0.72200  0.94260  Biso   1.000  C
  H203     1.0000 0.15140  0.73700  0.95630  Biso   1.000  H
  C427     1.0000 0.18190  0.73410  0.90460  Biso   1.000  C
  H204     1.0000 0.17040  0.75600  0.89260  Biso   1.000  H
  C428     1.0000 0.13940  0.64500  0.99529  Biso   1.000  C
  C429     1.0000 0.12570  0.62840  0.96090  Biso   1.000  C
  H205     1.0000 0.13540  0.63730  0.93660  Biso   1.000  H
  C430     1.0000 0.09800  0.59900  0.96180  Biso   1.000  C
  H206     1.0000 0.08920  0.58820  0.93800  Biso   1.000  H
  C431     1.0000 0.08270  0.58470  0.99690  Biso   1.000  C
  C432     1.0000 0.09670  0.60130  0.03185  Biso   1.000  C
  H207     1.0000 0.08730  0.59210  0.05600  Biso   1.000  H
  C433     1.0000 0.12400  0.63090  0.03110  Biso   1.000  C
  C434     1.0000 0.16480  0.67410  0.06764  Biso   1.000  C
  C435     1.0000 0.18330  0.68760  0.03243  Biso   1.000  C
  C436     1.0000 0.21310  0.71550  0.03600  Biso   1.000  C
  H208     1.0000 0.22470  0.72590  0.01330  Biso   1.000  H
  C437     1.0000 0.22600  0.72820  0.07317  Biso   1.000  C
  H209     1.0000 0.24690  0.74590  0.07520  Biso   1.000  H
  C438     1.0000 0.20760  0.71430  0.10698  Biso   1.000  C
  C439     1.0000 0.17780  0.68650  0.10424  Biso   1.000  C
  H210     1.0000 0.16650  0.67620  0.12710  Biso   1.000  H
  C440     1.0000 0.05213  0.55313  0.99800  Biso   1.000  C
  C441     1.0000 0.21960  0.72720  0.14762  Biso   1.000  C
  N21      1.0000 0.16850  0.67490  0.99636  Biso   1.000  N
  O141     1.0000 0.24622  0.70058  0.82756  Biso   1.000  O
  O142     1.0000 0.21035  0.75583  0.83110  Biso   1.000  O
  O143     1.0000 0.13470  0.64700  0.06689  Biso   1.000  O
  O144     1.0000 0.04004  0.54198  0.03142  Biso   1.000  O
  O145     1.0000 0.04125  0.53989  0.96516  Biso   1.000  O
  O146     1.0000 0.19759  0.71652  0.17521  Biso   1.000  O
  O147     1.0000 0.24993  0.74940  0.15031  Biso   1.000  O
  Zn22     1.0000 0.76854  0.19831  0.27404  Biso   1.000  Zn
  C442     1.0000 0.72360  0.22400  0.34486  Biso   1.000  C
  C443     1.0000 0.71070  0.21290  0.38564  Biso   1.000  C
  C444     1.0000 0.72630  0.18040  0.40380  Biso   1.000  C
  H211     1.0000 0.74560  0.16600  0.39050  Biso   1.000  H
  C445     1.0000 0.71480  0.16780  0.44140  Biso   1.000  C
  H212     1.0000 0.72650  0.14600  0.45350  Biso   1.000  H
  C446     1.0000 0.68490  0.18920  0.45970  Biso   1.000  C
  C447     1.0000 0.67000  0.22200  0.44260  Biso   1.000  C
  H213     1.0000 0.65140  0.23700  0.45630  Biso   1.000  H
  C448     1.0000 0.68190  0.23410  0.40460  Biso   1.000  C
  H214     1.0000 0.67040  0.25600  0.39260  Biso   1.000  H
  C449     1.0000 0.63940  0.14500  0.49529  Biso   1.000  C
  C450     1.0000 0.62570  0.12840  0.46090  Biso   1.000  C
  H215     1.0000 0.63540  0.13730  0.43660  Biso   1.000  H
  C451     1.0000 0.59800  0.09900  0.46180  Biso   1.000  C
  H216     1.0000 0.58920  0.08820  0.43800  Biso   1.000  H
  C452     1.0000 0.58270  0.08470  0.49690  Biso   1.000  C
  C453     1.0000 0.59670  0.10130  0.53185  Biso   1.000  C
  H217     1.0000 0.58730  0.09210  0.55600  Biso   1.000  H
  C454     1.0000 0.62400  0.13090  0.53110  Biso   1.000  C
  C455     1.0000 0.66480  0.17410  0.56764  Biso   1.000  C
  C456     1.0000 0.68330  0.18760  0.53243  Biso   1.000  C
  C457     1.0000 0.71310  0.21550  0.53600  Biso   1.000  C
  H218     1.0000 0.72470  0.22590  0.51330  Biso   1.000  H
  C458     1.0000 0.72600  0.22820  0.57317  Biso   1.000  C
  H219     1.0000 0.74690  0.24590  0.57520  Biso   1.000  H
  C459     1.0000 0.70760  0.21430  0.60698  Biso   1.000  C
  C460     1.0000 0.67780  0.18650  0.60424  Biso   1.000  C
  H220     1.0000 0.66650  0.17620  0.62710  Biso   1.000  H
  C461     1.0000 0.55213  0.05313  0.49800  Biso   1.000  C
  C462     1.0000 0.71960  0.22720  0.64762  Biso   1.000  C
  N22      1.0000 0.66850  0.17490  0.49636  Biso   1.000  N
  O148     1.0000 0.74622  0.20058  0.32756  Biso   1.000  O
  O149     1.0000 0.71035  0.25583  0.33110  Biso   1.000  O
  O150     1.0000 0.63470  0.14700  0.56689  Biso   1.000  O
  O151     1.0000 0.54004  0.04198  0.53142  Biso   1.000  O
  O152     1.0000 0.54125  0.03989  0.46516  Biso   1.000  O
  O153     1.0000 0.69759  0.21652  0.67521  Biso   1.000  O
  O154     1.0000 0.74993  0.24940  0.65031  Biso   1.000  O
  Zn23     1.0000 0.73146  0.69831  0.22596  Biso   1.000  Zn
  C463     1.0000 0.77640  0.72400  0.15514  Biso   1.000  C
  C464     1.0000 0.78930  0.71290  0.11436  Biso   1.000  C
  C465     1.0000 0.77370  0.68040  0.09620  Biso   1.000  C
  H221     1.0000 0.75440  0.66600  0.10950  Biso   1.000  H
  C466     1.0000 0.78520  0.66780  0.05860  Biso   1.000  C
  H222     1.0000 0.77350  0.64600  0.04650  Biso   1.000  H
  C467     1.0000 0.81510  0.68920  0.04030  Biso   1.000  C
  C468     1.0000 0.83000  0.72200  0.05740  Biso   1.000  C
  H223     1.0000 0.84860  0.73700  0.04370  Biso   1.000  H
  C469     1.0000 0.81810  0.73410  0.09540  Biso   1.000  C
  H224     1.0000 0.82960  0.75600  0.10740  Biso   1.000  H
  C470     1.0000 0.86060  0.64500  0.00471  Biso   1.000  C
  C471     1.0000 0.87430  0.62840  0.03910  Biso   1.000  C
  H225     1.0000 0.86460  0.63730  0.06340  Biso   1.000  H
  C472     1.0000 0.90200  0.59900  0.03820  Biso   1.000  C
  H226     1.0000 0.91080  0.58820  0.06200  Biso   1.000  H
  C473     1.0000 0.91730  0.58470  0.00310  Biso   1.000  C
  C474     1.0000 0.90330  0.60130  0.96815  Biso   1.000  C
  H227     1.0000 0.91270  0.59210  0.94400  Biso   1.000  H
  C475     1.0000 0.87600  0.63090  0.96890  Biso   1.000  C
  C476     1.0000 0.83520  0.67410  0.93236  Biso   1.000  C
  C477     1.0000 0.81670  0.68760  0.96757  Biso   1.000  C
  C478     1.0000 0.78690  0.71550  0.96400  Biso   1.000  C
  H228     1.0000 0.77530  0.72590  0.98670  Biso   1.000  H
  C479     1.0000 0.77400  0.72820  0.92683  Biso   1.000  C
  H229     1.0000 0.75310  0.74590  0.92480  Biso   1.000  H
  C480     1.0000 0.79240  0.71430  0.89302  Biso   1.000  C
  C481     1.0000 0.82220  0.68650  0.89576  Biso   1.000  C
  H230     1.0000 0.83350  0.67620  0.87290  Biso   1.000  H
  C482     1.0000 0.94787  0.55313  0.00200  Biso   1.000  C
  C483     1.0000 0.78040  0.72720  0.85238  Biso   1.000  C
  N23      1.0000 0.83150  0.67490  0.00364  Biso   1.000  N
  O155     1.0000 0.75378  0.70058  0.17244  Biso   1.000  O
  O156     1.0000 0.78965  0.75583  0.16890  Biso   1.000  O
  O157     1.0000 0.86530  0.64700  0.93311  Biso   1.000  O
  O158     1.0000 0.95996  0.54198  0.96858  Biso   1.000  O
  O159     1.0000 0.95875  0.53989  0.03484  Biso   1.000  O
  O160     1.0000 0.80241  0.71652  0.82479  Biso   1.000  O
  O161     1.0000 0.75007  0.74940  0.84969  Biso   1.000  O
  Zn24     1.0000 0.23146  0.19831  0.72596  Biso   1.000  Zn
  C484     1.0000 0.27640  0.22400  0.65514  Biso   1.000  C
  C485     1.0000 0.28930  0.21290  0.61436  Biso   1.000  C
  C486     1.0000 0.27370  0.18040  0.59620  Biso   1.000  C
  H231     1.0000 0.25440  0.16600  0.60950  Biso   1.000  H
  C487     1.0000 0.28520  0.16780  0.55860  Biso   1.000  C
  H232     1.0000 0.27350  0.14600  0.54650  Biso   1.000  H
  C488     1.0000 0.31510  0.18920  0.54030  Biso   1.000  C
  C489     1.0000 0.33000  0.22200  0.55740  Biso   1.000  C
  H233     1.0000 0.34860  0.23700  0.54370  Biso   1.000  H
  C490     1.0000 0.31810  0.23410  0.59540  Biso   1.000  C
  H234     1.0000 0.32960  0.25600  0.60740  Biso   1.000  H
  C491     1.0000 0.36060  0.14500  0.50471  Biso   1.000  C
  C492     1.0000 0.37430  0.12840  0.53910  Biso   1.000  C
  H235     1.0000 0.36460  0.13730  0.56340  Biso   1.000  H
  C493     1.0000 0.40200  0.09900  0.53820  Biso   1.000  C
  H236     1.0000 0.41080  0.08820  0.56200  Biso   1.000  H
  C494     1.0000 0.41730  0.08470  0.50310  Biso   1.000  C
  C495     1.0000 0.40330  0.10130  0.46815  Biso   1.000  C
  H237     1.0000 0.41270  0.09210  0.44400  Biso   1.000  H
  C496     1.0000 0.37600  0.13090  0.46890  Biso   1.000  C
  C497     1.0000 0.33520  0.17410  0.43236  Biso   1.000  C
  C498     1.0000 0.31670  0.18760  0.46757  Biso   1.000  C
  C499     1.0000 0.28690  0.21550  0.46400  Biso   1.000  C
  H238     1.0000 0.27530  0.22590  0.48670  Biso   1.000  H
  C500     1.0000 0.27400  0.22820  0.42683  Biso   1.000  C
  H239     1.0000 0.25310  0.24590  0.42480  Biso   1.000  H
  C501     1.0000 0.29240  0.21430  0.39302  Biso   1.000  C
  C502     1.0000 0.32220  0.18650  0.39576  Biso   1.000  C
  H240     1.0000 0.33350  0.17620  0.37290  Biso   1.000  H
  C503     1.0000 0.44787  0.05313  0.50200  Biso   1.000  C
  C504     1.0000 0.28040  0.22720  0.35238  Biso   1.000  C
  N24      1.0000 0.33150  0.17490  0.50364  Biso   1.000  N
  O162     1.0000 0.25378  0.20058  0.67244  Biso   1.000  O
  O163     1.0000 0.28965  0.25583  0.66890  Biso   1.000  O
  O164     1.0000 0.36530  0.14700  0.43311  Biso   1.000  O
  O165     1.0000 0.45996  0.04198  0.46858  Biso   1.000  O
  O166     1.0000 0.45875  0.03989  0.53484  Biso   1.000  O
  O167     1.0000 0.30241  0.21652  0.32479  Biso   1.000  O
  O168     1.0000 0.25007  0.24940  0.34969  Biso   1.000  O
  Zn25     1.0000 0.22066  0.22066  0.22066  Biso   1.000  Zn
  O169     1.0000 0.25372  0.25372  0.25372  Biso   1.000  O
  Zn26     1.0000 0.72066  0.72066  0.72066  Biso   1.000  Zn
  O170     1.0000 0.75372  0.75372  0.75372  Biso   1.000  O
  Zn27     1.0000 0.77934  0.77934  0.22066  Biso   1.000  Zn
  O171     1.0000 0.74628  0.74628  0.25372  Biso   1.000  O
  Zn28     1.0000 0.27934  0.27934  0.72066  Biso   1.000  Zn
  O172     1.0000 0.24628  0.24628  0.75372  Biso   1.000  O
  Zn29     1.0000 0.77934  0.22066  0.77934  Biso   1.000  Zn
  O173     1.0000 0.74628  0.25372  0.74628  Biso   1.000  O
  Zn30     1.0000 0.27934  0.72066  0.27934  Biso   1.000  Zn
  O174     1.0000 0.24628  0.75372  0.24628  Biso   1.000  O
  Zn31     1.0000 0.22066  0.77934  0.77934  Biso   1.000  Zn
  O175     1.0000 0.25372  0.74628  0.74628  Biso   1.000  O
  Zn32     1.0000 0.72066  0.27934  0.27934  Biso   1.000  Zn
  O176     1.0000 0.75372  0.24628  0.24628  Biso   1.000  O
  Cu1      1.0000 0.96119  0.00000  0.50000  Biso   1.000  Cu
  Cu2      1.0000 0.46119  0.50000  0.00000  Biso   1.000  Cu
  Cu3      1.0000 0.03881  0.00000  0.50000  Biso   1.000  Cu
  Cu4      1.0000 0.53881  0.50000  0.00000  Biso   1.000  Cu
  Cu5      1.0000 0.50000  0.96119  0.00000  Biso   1.000  Cu
  Cu6      1.0000 0.00000  0.46119  0.50000  Biso   1.000  Cu
  Cu7      1.0000 0.50000  0.03881  0.00000  Biso   1.000  Cu
  Cu8      1.0000 0.00000  0.53881  0.50000  Biso   1.000  Cu
  Cu9      1.0000 0.00000  0.50000  0.96119  Biso   1.000  Cu
  Cu10     1.0000 0.50000  0.00000  0.46119  Biso   1.000  Cu
  Cu11     1.0000 0.00000  0.50000  0.03881  Biso   1.000  Cu
  Cu12     1.0000 0.50000  0.00000  0.53881  Biso   1.000  Cu
