data_image0
_cell_length_a       33.5988
_cell_length_b       33.5988
_cell_length_c       33.5988
_cell_angle_alpha    90
_cell_angle_beta     90
_cell_angle_gamma    90

_symmetry_space_group_name_H-M    "P 1"
_symmetry_int_tables_number       1

loop_
  _symmetry_equiv_pos_as_xyz
  'x, y, z'

loop_
  _atom_site_label
  _atom_site_occupancy
  _atom_site_fract_x
  _atom_site_fract_y
  _atom_site_fract_z
  _atom_site_thermal_displace_type
  _atom_site_B_iso_or_equiv
  _atom_site_type_symbol
  Zn1      1.0000 0.72677  0.77192  0.19688  Biso   1.000  Zn
  C1       1.0000 0.53980  0.69167  0.18538  Biso   1.000  C
  C2       1.0000 0.56230  0.72214  0.16875  Biso   1.000  C
  H1       1.0000 0.55250  0.73630  0.14710  Biso   1.000  H
  C3       1.0000 0.59941  0.73142  0.18450  Biso   1.000  C
  H2       1.0000 0.61450  0.75180  0.17340  Biso   1.000  H
  C4       1.0000 0.61402  0.71020  0.21690  Biso   1.000  C
  C5       1.0000 0.59153  0.67980  0.23352  Biso   1.000  C
  H3       1.0000 0.60130  0.66560  0.25520  Biso   1.000  H
  C6       1.0000 0.55441  0.67048  0.21777  Biso   1.000  C
  H4       1.0000 0.53940  0.65010  0.22890  Biso   1.000  H
  C7       1.0000 0.50120  0.58408  0.08183  Biso   1.000  C
  C8       1.0000 0.53710  0.60131  0.09323  Biso   1.000  C
  H5       1.0000 0.55980  0.59720  0.07810  Biso   1.000  H
  C9       1.0000 0.53883  0.62475  0.12728  Biso   1.000  C
  H6       1.0000 0.56280  0.63630  0.13490  Biso   1.000  H
  C10      1.0000 0.50477  0.63096  0.14991  Biso   1.000  C
  C11      1.0000 0.46893  0.61373  0.13851  Biso   1.000  C
  C12      1.0000 0.46710  0.59029  0.10447  Biso   1.000  C
  H7       1.0000 0.44320  0.57880  0.09680  Biso   1.000  H
  C13      1.0000 0.39470  0.71090  0.21891  Biso   1.000  C
  C14      1.0000 0.39578  0.68120  0.19013  Biso   1.000  C
  H8       1.0000 0.37220  0.67050  0.18040  Biso   1.000  H
  C15      1.0000 0.43212  0.66759  0.17583  Biso   1.000  C
  C16      1.0000 0.46739  0.68366  0.19030  Biso   1.000  C
  C17      1.0000 0.46632  0.71335  0.21908  Biso   1.000  C
  H9       1.0000 0.48990  0.72410  0.22880  Biso   1.000  H
  C18      1.0000 0.42997  0.72698  0.23339  Biso   1.000  C
  H10      1.0000 0.42920  0.74690  0.25260  Biso   1.000  H
  O1       1.0000 0.32250  0.69470  0.21440  Biso   1.000  O
  C19      1.0000 0.34810  0.71020  0.23040  Biso   1.000  C
  O2       1.0000 0.35170  0.74970  0.25170  Biso   1.000  O
  C20      1.0000 0.50130  0.55670  0.05050  Biso   1.000  C
  O3       1.0000 0.53320  0.54530  0.03940  Biso   1.000  O
  O4       1.0000 0.46870  0.53990  0.04260  Biso   1.000  O
  O5       1.0000 0.43500  0.63220  0.14880  Biso   1.000  O
  C21      1.0000 0.65910  0.72910  0.22570  Biso   1.000  C
  O6       1.0000 0.67270  0.74880  0.19920  Biso   1.000  O
  O7       1.0000 0.67120  0.71370  0.25620  Biso   1.000  O
  N1       1.0000 0.50620  0.67150  0.17210  Biso   1.000  N
  Zn2      1.0000 0.22677  0.27192  0.69688  Biso   1.000  Zn
  C22      1.0000 0.03980  0.19167  0.68538  Biso   1.000  C
  C23      1.0000 0.06230  0.22214  0.66875  Biso   1.000  C
  H11      1.0000 0.05250  0.23630  0.64710  Biso   1.000  H
  C24      1.0000 0.09941  0.23142  0.68450  Biso   1.000  C
  H12      1.0000 0.11450  0.25180  0.67340  Biso   1.000  H
  C25      1.0000 0.11402  0.21020  0.71690  Biso   1.000  C
  C26      1.0000 0.09153  0.17980  0.73352  Biso   1.000  C
  H13      1.0000 0.10130  0.16560  0.75520  Biso   1.000  H
  C27      1.0000 0.05441  0.17048  0.71777  Biso   1.000  C
  H14      1.0000 0.03940  0.15010  0.72890  Biso   1.000  H
  C28      1.0000 0.00120  0.08408  0.58183  Biso   1.000  C
  C29      1.0000 0.03710  0.10131  0.59323  Biso   1.000  C
  H15      1.0000 0.05980  0.09720  0.57810  Biso   1.000  H
  C30      1.0000 0.03883  0.12475  0.62728  Biso   1.000  C
  H16      1.0000 0.06280  0.13630  0.63490  Biso   1.000  H
  C31      1.0000 0.00477  0.13096  0.64991  Biso   1.000  C
  C32      1.0000 0.96893  0.11373  0.63851  Biso   1.000  C
  C33      1.0000 0.96710  0.09029  0.60447  Biso   1.000  C
  H17      1.0000 0.94320  0.07880  0.59680  Biso   1.000  H
  C34      1.0000 0.89470  0.21090  0.71891  Biso   1.000  C
  C35      1.0000 0.89578  0.18120  0.69013  Biso   1.000  C
  H18      1.0000 0.87220  0.17050  0.68040  Biso   1.000  H
  C36      1.0000 0.93212  0.16759  0.67583  Biso   1.000  C
  C37      1.0000 0.96739  0.18366  0.69030  Biso   1.000  C
  C38      1.0000 0.96632  0.21335  0.71908  Biso   1.000  C
  H19      1.0000 0.98990  0.22410  0.72880  Biso   1.000  H
  C39      1.0000 0.92997  0.22698  0.73339  Biso   1.000  C
  H20      1.0000 0.92920  0.24690  0.75260  Biso   1.000  H
  O8       1.0000 0.82250  0.19470  0.71440  Biso   1.000  O
  C40      1.0000 0.84810  0.21020  0.73040  Biso   1.000  C
  O9       1.0000 0.85170  0.24970  0.75170  Biso   1.000  O
  C41      1.0000 0.00130  0.05670  0.55050  Biso   1.000  C
  O10      1.0000 0.03320  0.04530  0.53940  Biso   1.000  O
  O11      1.0000 0.96870  0.03990  0.54260  Biso   1.000  O
  O12      1.0000 0.93500  0.13220  0.64880  Biso   1.000  O
  C42      1.0000 0.15910  0.22910  0.72570  Biso   1.000  C
  O13      1.0000 0.17270  0.24880  0.69920  Biso   1.000  O
  O14      1.0000 0.17120  0.21370  0.75620  Biso   1.000  O
  N2       1.0000 0.00620  0.17150  0.67210  Biso   1.000  N
  Zn3      1.0000 0.27323  0.22808  0.19688  Biso   1.000  Zn
  C43      1.0000 0.46020  0.30833  0.18538  Biso   1.000  C
  C44      1.0000 0.43770  0.27786  0.16875  Biso   1.000  C
  H21      1.0000 0.44750  0.26370  0.14710  Biso   1.000  H
  C45      1.0000 0.40059  0.26858  0.18450  Biso   1.000  C
  H22      1.0000 0.38550  0.24820  0.17340  Biso   1.000  H
  C46      1.0000 0.38598  0.28980  0.21690  Biso   1.000  C
  C47      1.0000 0.40847  0.32020  0.23352  Biso   1.000  C
  H23      1.0000 0.39870  0.33440  0.25520  Biso   1.000  H
  C48      1.0000 0.44559  0.32952  0.21777  Biso   1.000  C
  H24      1.0000 0.46060  0.34990  0.22890  Biso   1.000  H
  C49      1.0000 0.49880  0.41592  0.08183  Biso   1.000  C
  C50      1.0000 0.46290  0.39869  0.09323  Biso   1.000  C
  H25      1.0000 0.44020  0.40280  0.07810  Biso   1.000  H
  C51      1.0000 0.46117  0.37525  0.12728  Biso   1.000  C
  H26      1.0000 0.43720  0.36370  0.13490  Biso   1.000  H
  C52      1.0000 0.49523  0.36904  0.14991  Biso   1.000  C
  C53      1.0000 0.53107  0.38627  0.13851  Biso   1.000  C
  C54      1.0000 0.53290  0.40971  0.10447  Biso   1.000  C
  H27      1.0000 0.55680  0.42120  0.09680  Biso   1.000  H
  C55      1.0000 0.60530  0.28910  0.21891  Biso   1.000  C
  C56      1.0000 0.60422  0.31880  0.19013  Biso   1.000  C
  H28      1.0000 0.62780  0.32950  0.18040  Biso   1.000  H
  C57      1.0000 0.56788  0.33241  0.17583  Biso   1.000  C
  C58      1.0000 0.53261  0.31634  0.19030  Biso   1.000  C
  C59      1.0000 0.53368  0.28665  0.21908  Biso   1.000  C
  H29      1.0000 0.51010  0.27590  0.22880  Biso   1.000  H
  C60      1.0000 0.57003  0.27302  0.23339  Biso   1.000  C
  H30      1.0000 0.57080  0.25310  0.25260  Biso   1.000  H
  O15      1.0000 0.67750  0.30530  0.21440  Biso   1.000  O
  C61      1.0000 0.65190  0.28980  0.23040  Biso   1.000  C
  O16      1.0000 0.64830  0.25030  0.25170  Biso   1.000  O
  C62      1.0000 0.49870  0.44330  0.05050  Biso   1.000  C
  O17      1.0000 0.46680  0.45470  0.03940  Biso   1.000  O
  O18      1.0000 0.53130  0.46010  0.04260  Biso   1.000  O
  O19      1.0000 0.56500  0.36780  0.14880  Biso   1.000  O
  C63      1.0000 0.34090  0.27090  0.22570  Biso   1.000  C
  O20      1.0000 0.32730  0.25120  0.19920  Biso   1.000  O
  O21      1.0000 0.32880  0.28630  0.25620  Biso   1.000  O
  N3       1.0000 0.49380  0.32850  0.17210  Biso   1.000  N
  Zn4      1.0000 0.77323  0.72808  0.69688  Biso   1.000  Zn
  C64      1.0000 0.96020  0.80833  0.68538  Biso   1.000  C
  C65      1.0000 0.93770  0.77786  0.66875  Biso   1.000  C
  H31      1.0000 0.94750  0.76370  0.64710  Biso   1.000  H
  C66      1.0000 0.90059  0.76858  0.68450  Biso   1.000  C
  H32      1.0000 0.88550  0.74820  0.67340  Biso   1.000  H
  C67      1.0000 0.88598  0.78980  0.71690  Biso   1.000  C
  C68      1.0000 0.90847  0.82020  0.73352  Biso   1.000  C
  H33      1.0000 0.89870  0.83440  0.75520  Biso   1.000  H
  C69      1.0000 0.94559  0.82952  0.71777  Biso   1.000  C
  H34      1.0000 0.96060  0.84990  0.72890  Biso   1.000  H
  C70      1.0000 0.99880  0.91592  0.58183  Biso   1.000  C
  C71      1.0000 0.96290  0.89869  0.59323  Biso   1.000  C
  H35      1.0000 0.94020  0.90280  0.57810  Biso   1.000  H
  C72      1.0000 0.96117  0.87525  0.62728  Biso   1.000  C
  H36      1.0000 0.93720  0.86370  0.63490  Biso   1.000  H
  C73      1.0000 0.99523  0.86904  0.64991  Biso   1.000  C
  C74      1.0000 0.03107  0.88627  0.63851  Biso   1.000  C
  C75      1.0000 0.03290  0.90971  0.60447  Biso   1.000  C
  H37      1.0000 0.05680  0.92120  0.59680  Biso   1.000  H
  C76      1.0000 0.10530  0.78910  0.71891  Biso   1.000  C
  C77      1.0000 0.10422  0.81880  0.69013  Biso   1.000  C
  H38      1.0000 0.12780  0.82950  0.68040  Biso   1.000  H
  C78      1.0000 0.06788  0.83241  0.67583  Biso   1.000  C
  C79      1.0000 0.03261  0.81634  0.69030  Biso   1.000  C
  C80      1.0000 0.03368  0.78665  0.71908  Biso   1.000  C
  H39      1.0000 0.01010  0.77590  0.72880  Biso   1.000  H
  C81      1.0000 0.07003  0.77302  0.73339  Biso   1.000  C
  H40      1.0000 0.07080  0.75310  0.75260  Biso   1.000  H
  O22      1.0000 0.17750  0.80530  0.71440  Biso   1.000  O
  C82      1.0000 0.15190  0.78980  0.73040  Biso   1.000  C
  O23      1.0000 0.14830  0.75030  0.75170  Biso   1.000  O
  C83      1.0000 0.99870  0.94330  0.55050  Biso   1.000  C
  O24      1.0000 0.96680  0.95470  0.53940  Biso   1.000  O
  O25      1.0000 0.03130  0.96010  0.54260  Biso   1.000  O
  O26      1.0000 0.06500  0.86780  0.64880  Biso   1.000  O
  C84      1.0000 0.84090  0.77090  0.72570  Biso   1.000  C
  O27      1.0000 0.82730  0.75120  0.69920  Biso   1.000  O
  O28      1.0000 0.82880  0.78630  0.75620  Biso   1.000  O
  N4       1.0000 0.99380  0.82850  0.67210  Biso   1.000  N
  Zn5      1.0000 0.27323  0.77192  0.80312  Biso   1.000  Zn
  C85      1.0000 0.46020  0.69167  0.81462  Biso   1.000  C
  C86      1.0000 0.43770  0.72214  0.83125  Biso   1.000  C
  H41      1.0000 0.44750  0.73630  0.85290  Biso   1.000  H
  C87      1.0000 0.40059  0.73142  0.81550  Biso   1.000  C
  H42      1.0000 0.38550  0.75180  0.82660  Biso   1.000  H
  C88      1.0000 0.38598  0.71020  0.78310  Biso   1.000  C
  C89      1.0000 0.40847  0.67980  0.76648  Biso   1.000  C
  H43      1.0000 0.39870  0.66560  0.74480  Biso   1.000  H
  C90      1.0000 0.44559  0.67048  0.78223  Biso   1.000  C
  H44      1.0000 0.46060  0.65010  0.77110  Biso   1.000  H
  C91      1.0000 0.49880  0.58408  0.91817  Biso   1.000  C
  C92      1.0000 0.46290  0.60131  0.90677  Biso   1.000  C
  H45      1.0000 0.44020  0.59720  0.92190  Biso   1.000  H
  C93      1.0000 0.46117  0.62475  0.87272  Biso   1.000  C
  H46      1.0000 0.43720  0.63630  0.86510  Biso   1.000  H
  C94      1.0000 0.49523  0.63096  0.85009  Biso   1.000  C
  C95      1.0000 0.53107  0.61373  0.86149  Biso   1.000  C
  C96      1.0000 0.53290  0.59029  0.89553  Biso   1.000  C
  H47      1.0000 0.55680  0.57880  0.90320  Biso   1.000  H
  C97      1.0000 0.60530  0.71090  0.78109  Biso   1.000  C
  C98      1.0000 0.60422  0.68120  0.80987  Biso   1.000  C
  H48      1.0000 0.62780  0.67050  0.81960  Biso   1.000  H
  C99      1.0000 0.56788  0.66759  0.82417  Biso   1.000  C
  C100     1.0000 0.53261  0.68366  0.80970  Biso   1.000  C
  C101     1.0000 0.53368  0.71335  0.78092  Biso   1.000  C
  H49      1.0000 0.51010  0.72410  0.77120  Biso   1.000  H
  C102     1.0000 0.57003  0.72698  0.76661  Biso   1.000  C
  H50      1.0000 0.57080  0.74690  0.74740  Biso   1.000  H
  O29      1.0000 0.67750  0.69470  0.78560  Biso   1.000  O
  C103     1.0000 0.65190  0.71020  0.76960  Biso   1.000  C
  O30      1.0000 0.64830  0.74970  0.74830  Biso   1.000  O
  C104     1.0000 0.49870  0.55670  0.94950  Biso   1.000  C
  O31      1.0000 0.46680  0.54530  0.96060  Biso   1.000  O
  O32      1.0000 0.53130  0.53990  0.95740  Biso   1.000  O
  O33      1.0000 0.56500  0.63220  0.85120  Biso   1.000  O
  C105     1.0000 0.34090  0.72910  0.77430  Biso   1.000  C
  O34      1.0000 0.32730  0.74880  0.80080  Biso   1.000  O
  O35      1.0000 0.32880  0.71370  0.74380  Biso   1.000  O
  N5       1.0000 0.49380  0.67150  0.82790  Biso   1.000  N
  Zn6      1.0000 0.77323  0.27192  0.30312  Biso   1.000  Zn
  C106     1.0000 0.96020  0.19167  0.31462  Biso   1.000  C
  C107     1.0000 0.93770  0.22214  0.33125  Biso   1.000  C
  H51      1.0000 0.94750  0.23630  0.35290  Biso   1.000  H
  C108     1.0000 0.90059  0.23142  0.31550  Biso   1.000  C
  H52      1.0000 0.88550  0.25180  0.32660  Biso   1.000  H
  C109     1.0000 0.88598  0.21020  0.28310  Biso   1.000  C
  C110     1.0000 0.90847  0.17980  0.26648  Biso   1.000  C
  H53      1.0000 0.89870  0.16560  0.24480  Biso   1.000  H
  C111     1.0000 0.94559  0.17048  0.28223  Biso   1.000  C
  H54      1.0000 0.96060  0.15010  0.27110  Biso   1.000  H
  C112     1.0000 0.99880  0.08408  0.41817  Biso   1.000  C
  C113     1.0000 0.96290  0.10131  0.40677  Biso   1.000  C
  H55      1.0000 0.94020  0.09720  0.42190  Biso   1.000  H
  C114     1.0000 0.96117  0.12475  0.37272  Biso   1.000  C
  H56      1.0000 0.93720  0.13630  0.36510  Biso   1.000  H
  C115     1.0000 0.99523  0.13096  0.35009  Biso   1.000  C
  C116     1.0000 0.03107  0.11373  0.36149  Biso   1.000  C
  C117     1.0000 0.03290  0.09029  0.39553  Biso   1.000  C
  H57      1.0000 0.05680  0.07880  0.40320  Biso   1.000  H
  C118     1.0000 0.10530  0.21090  0.28109  Biso   1.000  C
  C119     1.0000 0.10422  0.18120  0.30987  Biso   1.000  C
  H58      1.0000 0.12780  0.17050  0.31960  Biso   1.000  H
  C120     1.0000 0.06788  0.16759  0.32417  Biso   1.000  C
  C121     1.0000 0.03261  0.18366  0.30970  Biso   1.000  C
  C122     1.0000 0.03368  0.21335  0.28092  Biso   1.000  C
  H59      1.0000 0.01010  0.22410  0.27120  Biso   1.000  H
  C123     1.0000 0.07003  0.22698  0.26661  Biso   1.000  C
  H60      1.0000 0.07080  0.24690  0.24740  Biso   1.000  H
  O36      1.0000 0.17750  0.19470  0.28560  Biso   1.000  O
  C124     1.0000 0.15190  0.21020  0.26960  Biso   1.000  C
  O37      1.0000 0.14830  0.24970  0.24830  Biso   1.000  O
  C125     1.0000 0.99870  0.05670  0.44950  Biso   1.000  C
  O38      1.0000 0.96680  0.04530  0.46060  Biso   1.000  O
  O39      1.0000 0.03130  0.03990  0.45740  Biso   1.000  O
  O40      1.0000 0.06500  0.13220  0.35120  Biso   1.000  O
  C126     1.0000 0.84090  0.22910  0.27430  Biso   1.000  C
  O41      1.0000 0.82730  0.24880  0.30080  Biso   1.000  O
  O42      1.0000 0.82880  0.21370  0.24380  Biso   1.000  O
  N6       1.0000 0.99380  0.17150  0.32790  Biso   1.000  N
  Zn7      1.0000 0.72677  0.22808  0.80312  Biso   1.000  Zn
  C127     1.0000 0.53980  0.30833  0.81462  Biso   1.000  C
  C128     1.0000 0.56230  0.27786  0.83125  Biso   1.000  C
  H61      1.0000 0.55250  0.26370  0.85290  Biso   1.000  H
  C129     1.0000 0.59941  0.26858  0.81550  Biso   1.000  C
  H62      1.0000 0.61450  0.24820  0.82660  Biso   1.000  H
  C130     1.0000 0.61402  0.28980  0.78310  Biso   1.000  C
  C131     1.0000 0.59153  0.32020  0.76648  Biso   1.000  C
  H63      1.0000 0.60130  0.33440  0.74480  Biso   1.000  H
  C132     1.0000 0.55441  0.32952  0.78223  Biso   1.000  C
  H64      1.0000 0.53940  0.34990  0.77110  Biso   1.000  H
  C133     1.0000 0.50120  0.41592  0.91817  Biso   1.000  C
  C134     1.0000 0.53710  0.39869  0.90677  Biso   1.000  C
  H65      1.0000 0.55980  0.40280  0.92190  Biso   1.000  H
  C135     1.0000 0.53883  0.37525  0.87272  Biso   1.000  C
  H66      1.0000 0.56280  0.36370  0.86510  Biso   1.000  H
  C136     1.0000 0.50477  0.36904  0.85009  Biso   1.000  C
  C137     1.0000 0.46893  0.38627  0.86149  Biso   1.000  C
  C138     1.0000 0.46710  0.40971  0.89553  Biso   1.000  C
  H67      1.0000 0.44320  0.42120  0.90320  Biso   1.000  H
  C139     1.0000 0.39470  0.28910  0.78109  Biso   1.000  C
  C140     1.0000 0.39578  0.31880  0.80987  Biso   1.000  C
  H68      1.0000 0.37220  0.32950  0.81960  Biso   1.000  H
  C141     1.0000 0.43212  0.33241  0.82417  Biso   1.000  C
  C142     1.0000 0.46739  0.31634  0.80970  Biso   1.000  C
  C143     1.0000 0.46632  0.28665  0.78092  Biso   1.000  C
  H69      1.0000 0.48990  0.27590  0.77120  Biso   1.000  H
  C144     1.0000 0.42997  0.27302  0.76661  Biso   1.000  C
  H70      1.0000 0.42920  0.25310  0.74740  Biso   1.000  H
  O43      1.0000 0.32250  0.30530  0.78560  Biso   1.000  O
  C145     1.0000 0.34810  0.28980  0.76960  Biso   1.000  C
  O44      1.0000 0.35170  0.25030  0.74830  Biso   1.000  O
  C146     1.0000 0.50130  0.44330  0.94950  Biso   1.000  C
  O45      1.0000 0.53320  0.45470  0.96060  Biso   1.000  O
  O46      1.0000 0.46870  0.46010  0.95740  Biso   1.000  O
  O47      1.0000 0.43500  0.36780  0.85120  Biso   1.000  O
  C147     1.0000 0.65910  0.27090  0.77430  Biso   1.000  C
  O48      1.0000 0.67270  0.25120  0.80080  Biso   1.000  O
  O49      1.0000 0.67120  0.28630  0.74380  Biso   1.000  O
  N7       1.0000 0.50620  0.32850  0.82790  Biso   1.000  N
  Zn8      1.0000 0.22677  0.72808  0.30312  Biso   1.000  Zn
  C148     1.0000 0.03980  0.80833  0.31462  Biso   1.000  C
  C149     1.0000 0.06230  0.77786  0.33125  Biso   1.000  C
  H71      1.0000 0.05250  0.76370  0.35290  Biso   1.000  H
  C150     1.0000 0.09941  0.76858  0.31550  Biso   1.000  C
  H72      1.0000 0.11450  0.74820  0.32660  Biso   1.000  H
  C151     1.0000 0.11402  0.78980  0.28310  Biso   1.000  C
  C152     1.0000 0.09153  0.82020  0.26648  Biso   1.000  C
  H73      1.0000 0.10130  0.83440  0.24480  Biso   1.000  H
  C153     1.0000 0.05441  0.82952  0.28223  Biso   1.000  C
  H74      1.0000 0.03940  0.84990  0.27110  Biso   1.000  H
  C154     1.0000 0.00120  0.91592  0.41817  Biso   1.000  C
  C155     1.0000 0.03710  0.89869  0.40677  Biso   1.000  C
  H75      1.0000 0.05980  0.90280  0.42190  Biso   1.000  H
  C156     1.0000 0.03883  0.87525  0.37272  Biso   1.000  C
  H76      1.0000 0.06280  0.86370  0.36510  Biso   1.000  H
  C157     1.0000 0.00477  0.86904  0.35009  Biso   1.000  C
  C158     1.0000 0.96893  0.88627  0.36149  Biso   1.000  C
  C159     1.0000 0.96710  0.90971  0.39553  Biso   1.000  C
  H77      1.0000 0.94320  0.92120  0.40320  Biso   1.000  H
  C160     1.0000 0.89470  0.78910  0.28109  Biso   1.000  C
  C161     1.0000 0.89578  0.81880  0.30987  Biso   1.000  C
  H78      1.0000 0.87220  0.82950  0.31960  Biso   1.000  H
  C162     1.0000 0.93212  0.83241  0.32417  Biso   1.000  C
  C163     1.0000 0.96739  0.81634  0.30970  Biso   1.000  C
  C164     1.0000 0.96632  0.78665  0.28092  Biso   1.000  C
  H79      1.0000 0.98990  0.77590  0.27120  Biso   1.000  H
  C165     1.0000 0.92997  0.77302  0.26661  Biso   1.000  C
  H80      1.0000 0.92920  0.75310  0.24740  Biso   1.000  H
  O50      1.0000 0.82250  0.80530  0.28560  Biso   1.000  O
  C166     1.0000 0.84810  0.78980  0.26960  Biso   1.000  C
  O51      1.0000 0.85170  0.75030  0.24830  Biso   1.000  O
  C167     1.0000 0.00130  0.94330  0.44950  Biso   1.000  C
  O52      1.0000 0.03320  0.95470  0.46060  Biso   1.000  O
  O53      1.0000 0.96870  0.96010  0.45740  Biso   1.000  O
  O54      1.0000 0.93500  0.86780  0.35120  Biso   1.000  O
  C168     1.0000 0.15910  0.77090  0.27430  Biso   1.000  C
  O55      1.0000 0.17270  0.75120  0.30080  Biso   1.000  O
  O56      1.0000 0.17120  0.78630  0.24380  Biso   1.000  O
  N8       1.0000 0.00620  0.82850  0.32790  Biso   1.000  N
  Zn9      1.0000 0.19688  0.72677  0.77192  Biso   1.000  Zn
  C169     1.0000 0.18538  0.53980  0.69167  Biso   1.000  C
  C170     1.0000 0.16875  0.56230  0.72214  Biso   1.000  C
  H81      1.0000 0.14710  0.55250  0.73630  Biso   1.000  H
  C171     1.0000 0.18450  0.59941  0.73142  Biso   1.000  C
  H82      1.0000 0.17340  0.61450  0.75180  Biso   1.000  H
  C172     1.0000 0.21690  0.61402  0.71020  Biso   1.000  C
  C173     1.0000 0.23352  0.59153  0.67980  Biso   1.000  C
  H83      1.0000 0.25520  0.60130  0.66560  Biso   1.000  H
  C174     1.0000 0.21777  0.55441  0.67048  Biso   1.000  C
  H84      1.0000 0.22890  0.53940  0.65010  Biso   1.000  H
  C175     1.0000 0.08183  0.50120  0.58408  Biso   1.000  C
  C176     1.0000 0.09323  0.53710  0.60131  Biso   1.000  C
  H85      1.0000 0.07810  0.55980  0.59720  Biso   1.000  H
  C177     1.0000 0.12728  0.53883  0.62475  Biso   1.000  C
  H86      1.0000 0.13490  0.56280  0.63630  Biso   1.000  H
  C178     1.0000 0.14991  0.50477  0.63096  Biso   1.000  C
  C179     1.0000 0.13851  0.46893  0.61373  Biso   1.000  C
  C180     1.0000 0.10447  0.46710  0.59029  Biso   1.000  C
  H87      1.0000 0.09680  0.44320  0.57880  Biso   1.000  H
  C181     1.0000 0.21891  0.39470  0.71090  Biso   1.000  C
  C182     1.0000 0.19013  0.39578  0.68120  Biso   1.000  C
  H88      1.0000 0.18040  0.37220  0.67050  Biso   1.000  H
  C183     1.0000 0.17583  0.43212  0.66759  Biso   1.000  C
  C184     1.0000 0.19030  0.46739  0.68366  Biso   1.000  C
  C185     1.0000 0.21908  0.46632  0.71335  Biso   1.000  C
  H89      1.0000 0.22880  0.48990  0.72410  Biso   1.000  H
  C186     1.0000 0.23339  0.42997  0.72698  Biso   1.000  C
  H90      1.0000 0.25260  0.42920  0.74690  Biso   1.000  H
  O57      1.0000 0.21440  0.32250  0.69470  Biso   1.000  O
  C187     1.0000 0.23040  0.34810  0.71020  Biso   1.000  C
  O58      1.0000 0.25170  0.35170  0.74970  Biso   1.000  O
  C188     1.0000 0.05050  0.50130  0.55670  Biso   1.000  C
  O59      1.0000 0.03940  0.53320  0.54530  Biso   1.000  O
  O60      1.0000 0.04260  0.46870  0.53990  Biso   1.000  O
  O61      1.0000 0.14880  0.43500  0.63220  Biso   1.000  O
  C189     1.0000 0.22570  0.65910  0.72910  Biso   1.000  C
  O62      1.0000 0.19920  0.67270  0.74880  Biso   1.000  O
  O63      1.0000 0.25620  0.67120  0.71370  Biso   1.000  O
  N9       1.0000 0.17210  0.50620  0.67150  Biso   1.000  N
  Zn10     1.0000 0.69688  0.22677  0.27192  Biso   1.000  Zn
  C190     1.0000 0.68538  0.03980  0.19167  Biso   1.000  C
  C191     1.0000 0.66875  0.06230  0.22214  Biso   1.000  C
  H91      1.0000 0.64710  0.05250  0.23630  Biso   1.000  H
  C192     1.0000 0.68450  0.09941  0.23142  Biso   1.000  C
  H92      1.0000 0.67340  0.11450  0.25180  Biso   1.000  H
  C193     1.0000 0.71690  0.11402  0.21020  Biso   1.000  C
  C194     1.0000 0.73352  0.09153  0.17980  Biso   1.000  C
  H93      1.0000 0.75520  0.10130  0.16560  Biso   1.000  H
  C195     1.0000 0.71777  0.05441  0.17048  Biso   1.000  C
  H94      1.0000 0.72890  0.03940  0.15010  Biso   1.000  H
  C196     1.0000 0.58183  0.00120  0.08408  Biso   1.000  C
  C197     1.0000 0.59323  0.03710  0.10131  Biso   1.000  C
  H95      1.0000 0.57810  0.05980  0.09720  Biso   1.000  H
  C198     1.0000 0.62728  0.03883  0.12475  Biso   1.000  C
  H96      1.0000 0.63490  0.06280  0.13630  Biso   1.000  H
  C199     1.0000 0.64991  0.00477  0.13096  Biso   1.000  C
  C200     1.0000 0.63851  0.96893  0.11373  Biso   1.000  C
  C201     1.0000 0.60447  0.96710  0.09029  Biso   1.000  C
  H97      1.0000 0.59680  0.94320  0.07880  Biso   1.000  H
  C202     1.0000 0.71891  0.89470  0.21090  Biso   1.000  C
  C203     1.0000 0.69013  0.89578  0.18120  Biso   1.000  C
  H98      1.0000 0.68040  0.87220  0.17050  Biso   1.000  H
  C204     1.0000 0.67583  0.93212  0.16759  Biso   1.000  C
  C205     1.0000 0.69030  0.96739  0.18366  Biso   1.000  C
  C206     1.0000 0.71908  0.96632  0.21335  Biso   1.000  C
  H99      1.0000 0.72880  0.98990  0.22410  Biso   1.000  H
  C207     1.0000 0.73339  0.92997  0.22698  Biso   1.000  C
  H100     1.0000 0.75260  0.92920  0.24690  Biso   1.000  H
  O64      1.0000 0.71440  0.82250  0.19470  Biso   1.000  O
  C208     1.0000 0.73040  0.84810  0.21020  Biso   1.000  C
  O65      1.0000 0.75170  0.85170  0.24970  Biso   1.000  O
  C209     1.0000 0.55050  0.00130  0.05670  Biso   1.000  C
  O66      1.0000 0.53940  0.03320  0.04530  Biso   1.000  O
  O67      1.0000 0.54260  0.96870  0.03990  Biso   1.000  O
  O68      1.0000 0.64880  0.93500  0.13220  Biso   1.000  O
  C210     1.0000 0.72570  0.15910  0.22910  Biso   1.000  C
  O69      1.0000 0.69920  0.17270  0.24880  Biso   1.000  O
  O70      1.0000 0.75620  0.17120  0.21370  Biso   1.000  O
  N10      1.0000 0.67210  0.00620  0.17150  Biso   1.000  N
  Zn11     1.0000 0.19688  0.27323  0.22808  Biso   1.000  Zn
  C211     1.0000 0.18538  0.46020  0.30833  Biso   1.000  C
  C212     1.0000 0.16875  0.43770  0.27786  Biso   1.000  C
  H101     1.0000 0.14710  0.44750  0.26370  Biso   1.000  H
  C213     1.0000 0.18450  0.40059  0.26858  Biso   1.000  C
  H102     1.0000 0.17340  0.38550  0.24820  Biso   1.000  H
  C214     1.0000 0.21690  0.38598  0.28980  Biso   1.000  C
  C215     1.0000 0.23352  0.40847  0.32020  Biso   1.000  C
  H103     1.0000 0.25520  0.39870  0.33440  Biso   1.000  H
  C216     1.0000 0.21777  0.44559  0.32952  Biso   1.000  C
  H104     1.0000 0.22890  0.46060  0.34990  Biso   1.000  H
  C217     1.0000 0.08183  0.49880  0.41592  Biso   1.000  C
  C218     1.0000 0.09323  0.46290  0.39869  Biso   1.000  C
  H105     1.0000 0.07810  0.44020  0.40280  Biso   1.000  H
  C219     1.0000 0.12728  0.46117  0.37525  Biso   1.000  C
  H106     1.0000 0.13490  0.43720  0.36370  Biso   1.000  H
  C220     1.0000 0.14991  0.49523  0.36904  Biso   1.000  C
  C221     1.0000 0.13851  0.53107  0.38627  Biso   1.000  C
  C222     1.0000 0.10447  0.53290  0.40971  Biso   1.000  C
  H107     1.0000 0.09680  0.55680  0.42120  Biso   1.000  H
  C223     1.0000 0.21891  0.60530  0.28910  Biso   1.000  C
  C224     1.0000 0.19013  0.60422  0.31880  Biso   1.000  C
  H108     1.0000 0.18040  0.62780  0.32950  Biso   1.000  H
  C225     1.0000 0.17583  0.56788  0.33241  Biso   1.000  C
  C226     1.0000 0.19030  0.53261  0.31634  Biso   1.000  C
  C227     1.0000 0.21908  0.53368  0.28665  Biso   1.000  C
  H109     1.0000 0.22880  0.51010  0.27590  Biso   1.000  H
  C228     1.0000 0.23339  0.57003  0.27302  Biso   1.000  C
  H110     1.0000 0.25260  0.57080  0.25310  Biso   1.000  H
  O71      1.0000 0.21440  0.67750  0.30530  Biso   1.000  O
  C229     1.0000 0.23040  0.65190  0.28980  Biso   1.000  C
  O72      1.0000 0.25170  0.64830  0.25030  Biso   1.000  O
  C230     1.0000 0.05050  0.49870  0.44330  Biso   1.000  C
  O73      1.0000 0.03940  0.46680  0.45470  Biso   1.000  O
  O74      1.0000 0.04260  0.53130  0.46010  Biso   1.000  O
  O75      1.0000 0.14880  0.56500  0.36780  Biso   1.000  O
  C231     1.0000 0.22570  0.34090  0.27090  Biso   1.000  C
  O76      1.0000 0.19920  0.32730  0.25120  Biso   1.000  O
  O77      1.0000 0.25620  0.32880  0.28630  Biso   1.000  O
  N11      1.0000 0.17210  0.49380  0.32850  Biso   1.000  N
  Zn12     1.0000 0.69688  0.77323  0.72808  Biso   1.000  Zn
  C232     1.0000 0.68538  0.96020  0.80833  Biso   1.000  C
  C233     1.0000 0.66875  0.93770  0.77786  Biso   1.000  C
  H111     1.0000 0.64710  0.94750  0.76370  Biso   1.000  H
  C234     1.0000 0.68450  0.90059  0.76858  Biso   1.000  C
  H112     1.0000 0.67340  0.88550  0.74820  Biso   1.000  H
  C235     1.0000 0.71690  0.88598  0.78980  Biso   1.000  C
  C236     1.0000 0.73352  0.90847  0.82020  Biso   1.000  C
  H113     1.0000 0.75520  0.89870  0.83440  Biso   1.000  H
  C237     1.0000 0.71777  0.94559  0.82952  Biso   1.000  C
  H114     1.0000 0.72890  0.96060  0.84990  Biso   1.000  H
  C238     1.0000 0.58183  0.99880  0.91592  Biso   1.000  C
  C239     1.0000 0.59323  0.96290  0.89869  Biso   1.000  C
  H115     1.0000 0.57810  0.94020  0.90280  Biso   1.000  H
  C240     1.0000 0.62728  0.96117  0.87525  Biso   1.000  C
  H116     1.0000 0.63490  0.93720  0.86370  Biso   1.000  H
  C241     1.0000 0.64991  0.99523  0.86904  Biso   1.000  C
  C242     1.0000 0.63851  0.03107  0.88627  Biso   1.000  C
  C243     1.0000 0.60447  0.03290  0.90971  Biso   1.000  C
  H117     1.0000 0.59680  0.05680  0.92120  Biso   1.000  H
  C244     1.0000 0.71891  0.10530  0.78910  Biso   1.000  C
  C245     1.0000 0.69013  0.10422  0.81880  Biso   1.000  C
  H118     1.0000 0.68040  0.12780  0.82950  Biso   1.000  H
  C246     1.0000 0.67583  0.06788  0.83241  Biso   1.000  C
  C247     1.0000 0.69030  0.03261  0.81634  Biso   1.000  C
  C248     1.0000 0.71908  0.03368  0.78665  Biso   1.000  C
  H119     1.0000 0.72880  0.01010  0.77590  Biso   1.000  H
  C249     1.0000 0.73339  0.07003  0.77302  Biso   1.000  C
  H120     1.0000 0.75260  0.07080  0.75310  Biso   1.000  H
  O78      1.0000 0.71440  0.17750  0.80530  Biso   1.000  O
  C250     1.0000 0.73040  0.15190  0.78980  Biso   1.000  C
  O79      1.0000 0.75170  0.14830  0.75030  Biso   1.000  O
  C251     1.0000 0.55050  0.99870  0.94330  Biso   1.000  C
  O80      1.0000 0.53940  0.96680  0.95470  Biso   1.000  O
  O81      1.0000 0.54260  0.03130  0.96010  Biso   1.000  O
  O82      1.0000 0.64880  0.06500  0.86780  Biso   1.000  O
  C252     1.0000 0.72570  0.84090  0.77090  Biso   1.000  C
  O83      1.0000 0.69920  0.82730  0.75120  Biso   1.000  O
  O84      1.0000 0.75620  0.82880  0.78630  Biso   1.000  O
  N12      1.0000 0.67210  0.99380  0.82850  Biso   1.000  N
  Zn13     1.0000 0.80312  0.27323  0.77192  Biso   1.000  Zn
  C253     1.0000 0.81462  0.46020  0.69167  Biso   1.000  C
  C254     1.0000 0.83125  0.43770  0.72214  Biso   1.000  C
  H121     1.0000 0.85290  0.44750  0.73630  Biso   1.000  H
  C255     1.0000 0.81550  0.40059  0.73142  Biso   1.000  C
  H122     1.0000 0.82660  0.38550  0.75180  Biso   1.000  H
  C256     1.0000 0.78310  0.38598  0.71020  Biso   1.000  C
  C257     1.0000 0.76648  0.40847  0.67980  Biso   1.000  C
  H123     1.0000 0.74480  0.39870  0.66560  Biso   1.000  H
  C258     1.0000 0.78223  0.44559  0.67048  Biso   1.000  C
  H124     1.0000 0.77110  0.46060  0.65010  Biso   1.000  H
  C259     1.0000 0.91817  0.49880  0.58408  Biso   1.000  C
  C260     1.0000 0.90677  0.46290  0.60131  Biso   1.000  C
  H125     1.0000 0.92190  0.44020  0.59720  Biso   1.000  H
  C261     1.0000 0.87272  0.46117  0.62475  Biso   1.000  C
  H126     1.0000 0.86510  0.43720  0.63630  Biso   1.000  H
  C262     1.0000 0.85009  0.49523  0.63096  Biso   1.000  C
  C263     1.0000 0.86149  0.53107  0.61373  Biso   1.000  C
  C264     1.0000 0.89553  0.53290  0.59029  Biso   1.000  C
  H127     1.0000 0.90320  0.55680  0.57880  Biso   1.000  H
  C265     1.0000 0.78109  0.60530  0.71090  Biso   1.000  C
  C266     1.0000 0.80987  0.60422  0.68120  Biso   1.000  C
  H128     1.0000 0.81960  0.62780  0.67050  Biso   1.000  H
  C267     1.0000 0.82417  0.56788  0.66759  Biso   1.000  C
  C268     1.0000 0.80970  0.53261  0.68366  Biso   1.000  C
  C269     1.0000 0.78092  0.53368  0.71335  Biso   1.000  C
  H129     1.0000 0.77120  0.51010  0.72410  Biso   1.000  H
  C270     1.0000 0.76661  0.57003  0.72698  Biso   1.000  C
  H130     1.0000 0.74740  0.57080  0.74690  Biso   1.000  H
  O85      1.0000 0.78560  0.67750  0.69470  Biso   1.000  O
  C271     1.0000 0.76960  0.65190  0.71020  Biso   1.000  C
  O86      1.0000 0.74830  0.64830  0.74970  Biso   1.000  O
  C272     1.0000 0.94950  0.49870  0.55670  Biso   1.000  C
  O87      1.0000 0.96060  0.46680  0.54530  Biso   1.000  O
  O88      1.0000 0.95740  0.53130  0.53990  Biso   1.000  O
  O89      1.0000 0.85120  0.56500  0.63220  Biso   1.000  O
  C273     1.0000 0.77430  0.34090  0.72910  Biso   1.000  C
  O90      1.0000 0.80080  0.32730  0.74880  Biso   1.000  O
  O91      1.0000 0.74380  0.32880  0.71370  Biso   1.000  O
  N13      1.0000 0.82790  0.49380  0.67150  Biso   1.000  N
  Zn14     1.0000 0.30312  0.77323  0.27192  Biso   1.000  Zn
  C274     1.0000 0.31462  0.96020  0.19167  Biso   1.000  C
  C275     1.0000 0.33125  0.93770  0.22214  Biso   1.000  C
  H131     1.0000 0.35290  0.94750  0.23630  Biso   1.000  H
  C276     1.0000 0.31550  0.90059  0.23142  Biso   1.000  C
  H132     1.0000 0.32660  0.88550  0.25180  Biso   1.000  H
  C277     1.0000 0.28310  0.88598  0.21020  Biso   1.000  C
  C278     1.0000 0.26648  0.90847  0.17980  Biso   1.000  C
  H133     1.0000 0.24480  0.89870  0.16560  Biso   1.000  H
  C279     1.0000 0.28223  0.94559  0.17048  Biso   1.000  C
  H134     1.0000 0.27110  0.96060  0.15010  Biso   1.000  H
  C280     1.0000 0.41817  0.99880  0.08408  Biso   1.000  C
  C281     1.0000 0.40677  0.96290  0.10131  Biso   1.000  C
  H135     1.0000 0.42190  0.94020  0.09720  Biso   1.000  H
  C282     1.0000 0.37272  0.96117  0.12475  Biso   1.000  C
  H136     1.0000 0.36510  0.93720  0.13630  Biso   1.000  H
  C283     1.0000 0.35009  0.99523  0.13096  Biso   1.000  C
  C284     1.0000 0.36149  0.03107  0.11373  Biso   1.000  C
  C285     1.0000 0.39553  0.03290  0.09029  Biso   1.000  C
  H137     1.0000 0.40320  0.05680  0.07880  Biso   1.000  H
  C286     1.0000 0.28109  0.10530  0.21090  Biso   1.000  C
  C287     1.0000 0.30987  0.10422  0.18120  Biso   1.000  C
  H138     1.0000 0.31960  0.12780  0.17050  Biso   1.000  H
  C288     1.0000 0.32417  0.06788  0.16759  Biso   1.000  C
  C289     1.0000 0.30970  0.03261  0.18366  Biso   1.000  C
  C290     1.0000 0.28092  0.03368  0.21335  Biso   1.000  C
  H139     1.0000 0.27120  0.01010  0.22410  Biso   1.000  H
  C291     1.0000 0.26661  0.07003  0.22698  Biso   1.000  C
  H140     1.0000 0.24740  0.07080  0.24690  Biso   1.000  H
  O92      1.0000 0.28560  0.17750  0.19470  Biso   1.000  O
  C292     1.0000 0.26960  0.15190  0.21020  Biso   1.000  C
  O93      1.0000 0.24830  0.14830  0.24970  Biso   1.000  O
  C293     1.0000 0.44950  0.99870  0.05670  Biso   1.000  C
  O94      1.0000 0.46060  0.96680  0.04530  Biso   1.000  O
  O95      1.0000 0.45740  0.03130  0.03990  Biso   1.000  O
  O96      1.0000 0.35120  0.06500  0.13220  Biso   1.000  O
  C294     1.0000 0.27430  0.84090  0.22910  Biso   1.000  C
  O97      1.0000 0.30080  0.82730  0.24880  Biso   1.000  O
  O98      1.0000 0.24380  0.82880  0.21370  Biso   1.000  O
  N14      1.0000 0.32790  0.99380  0.17150  Biso   1.000  N
  Zn15     1.0000 0.80312  0.72677  0.22808  Biso   1.000  Zn
  C295     1.0000 0.81462  0.53980  0.30833  Biso   1.000  C
  C296     1.0000 0.83125  0.56230  0.27786  Biso   1.000  C
  H141     1.0000 0.85290  0.55250  0.26370  Biso   1.000  H
  C297     1.0000 0.81550  0.59941  0.26858  Biso   1.000  C
  H142     1.0000 0.82660  0.61450  0.24820  Biso   1.000  H
  C298     1.0000 0.78310  0.61402  0.28980  Biso   1.000  C
  C299     1.0000 0.76648  0.59153  0.32020  Biso   1.000  C
  H143     1.0000 0.74480  0.60130  0.33440  Biso   1.000  H
  C300     1.0000 0.78223  0.55441  0.32952  Biso   1.000  C
  H144     1.0000 0.77110  0.53940  0.34990  Biso   1.000  H
  C301     1.0000 0.91817  0.50120  0.41592  Biso   1.000  C
  C302     1.0000 0.90677  0.53710  0.39869  Biso   1.000  C
  H145     1.0000 0.92190  0.55980  0.40280  Biso   1.000  H
  C303     1.0000 0.87272  0.53883  0.37525  Biso   1.000  C
  H146     1.0000 0.86510  0.56280  0.36370  Biso   1.000  H
  C304     1.0000 0.85009  0.50477  0.36904  Biso   1.000  C
  C305     1.0000 0.86149  0.46893  0.38627  Biso   1.000  C
  C306     1.0000 0.89553  0.46710  0.40971  Biso   1.000  C
  H147     1.0000 0.90320  0.44320  0.42120  Biso   1.000  H
  C307     1.0000 0.78109  0.39470  0.28910  Biso   1.000  C
  C308     1.0000 0.80987  0.39578  0.31880  Biso   1.000  C
  H148     1.0000 0.81960  0.37220  0.32950  Biso   1.000  H
  C309     1.0000 0.82417  0.43212  0.33241  Biso   1.000  C
  C310     1.0000 0.80970  0.46739  0.31634  Biso   1.000  C
  C311     1.0000 0.78092  0.46632  0.28665  Biso   1.000  C
  H149     1.0000 0.77120  0.48990  0.27590  Biso   1.000  H
  C312     1.0000 0.76661  0.42997  0.27302  Biso   1.000  C
  H150     1.0000 0.74740  0.42920  0.25310  Biso   1.000  H
  O99      1.0000 0.78560  0.32250  0.30530  Biso   1.000  O
  C313     1.0000 0.76960  0.34810  0.28980  Biso   1.000  C
  O100     1.0000 0.74830  0.35170  0.25030  Biso   1.000  O
  C314     1.0000 0.94950  0.50130  0.44330  Biso   1.000  C
  O101     1.0000 0.96060  0.53320  0.45470  Biso   1.000  O
  O102     1.0000 0.95740  0.46870  0.46010  Biso   1.000  O
  O103     1.0000 0.85120  0.43500  0.36780  Biso   1.000  O
  C315     1.0000 0.77430  0.65910  0.27090  Biso   1.000  C
  O104     1.0000 0.80080  0.67270  0.25120  Biso   1.000  O
  O105     1.0000 0.74380  0.67120  0.28630  Biso   1.000  O
  N15      1.0000 0.82790  0.50620  0.32850  Biso   1.000  N
  Zn16     1.0000 0.30312  0.22677  0.72808  Biso   1.000  Zn
  C316     1.0000 0.31462  0.03980  0.80833  Biso   1.000  C
  C317     1.0000 0.33125  0.06230  0.77786  Biso   1.000  C
  H151     1.0000 0.35290  0.05250  0.76370  Biso   1.000  H
  C318     1.0000 0.31550  0.09941  0.76858  Biso   1.000  C
  H152     1.0000 0.32660  0.11450  0.74820  Biso   1.000  H
  C319     1.0000 0.28310  0.11402  0.78980  Biso   1.000  C
  C320     1.0000 0.26648  0.09153  0.82020  Biso   1.000  C
  H153     1.0000 0.24480  0.10130  0.83440  Biso   1.000  H
  C321     1.0000 0.28223  0.05441  0.82952  Biso   1.000  C
  H154     1.0000 0.27110  0.03940  0.84990  Biso   1.000  H
  C322     1.0000 0.41817  0.00120  0.91592  Biso   1.000  C
  C323     1.0000 0.40677  0.03710  0.89869  Biso   1.000  C
  H155     1.0000 0.42190  0.05980  0.90280  Biso   1.000  H
  C324     1.0000 0.37272  0.03883  0.87525  Biso   1.000  C
  H156     1.0000 0.36510  0.06280  0.86370  Biso   1.000  H
  C325     1.0000 0.35009  0.00477  0.86904  Biso   1.000  C
  C326     1.0000 0.36149  0.96893  0.88627  Biso   1.000  C
  C327     1.0000 0.39553  0.96710  0.90971  Biso   1.000  C
  H157     1.0000 0.40320  0.94320  0.92120  Biso   1.000  H
  C328     1.0000 0.28109  0.89470  0.78910  Biso   1.000  C
  C329     1.0000 0.30987  0.89578  0.81880  Biso   1.000  C
  H158     1.0000 0.31960  0.87220  0.82950  Biso   1.000  H
  C330     1.0000 0.32417  0.93212  0.83241  Biso   1.000  C
  C331     1.0000 0.30970  0.96739  0.81634  Biso   1.000  C
  C332     1.0000 0.28092  0.96632  0.78665  Biso   1.000  C
  H159     1.0000 0.27120  0.98990  0.77590  Biso   1.000  H
  C333     1.0000 0.26661  0.92997  0.77302  Biso   1.000  C
  H160     1.0000 0.24740  0.92920  0.75310  Biso   1.000  H
  O106     1.0000 0.28560  0.82250  0.80530  Biso   1.000  O
  C334     1.0000 0.26960  0.84810  0.78980  Biso   1.000  C
  O107     1.0000 0.24830  0.85170  0.75030  Biso   1.000  O
  C335     1.0000 0.44950  0.00130  0.94330  Biso   1.000  C
  O108     1.0000 0.46060  0.03320  0.95470  Biso   1.000  O
  O109     1.0000 0.45740  0.96870  0.96010  Biso   1.000  O
  O110     1.0000 0.35120  0.93500  0.86780  Biso   1.000  O
  C336     1.0000 0.27430  0.15910  0.77090  Biso   1.000  C
  O111     1.0000 0.30080  0.17270  0.75120  Biso   1.000  O
  O112     1.0000 0.24380  0.17120  0.78630  Biso   1.000  O
  N16      1.0000 0.32790  0.00620  0.82850  Biso   1.000  N
  Zn17     1.0000 0.77192  0.19688  0.72677  Biso   1.000  Zn
  C337     1.0000 0.69167  0.18538  0.53980  Biso   1.000  C
  C338     1.0000 0.72214  0.16875  0.56230  Biso   1.000  C
  H161     1.0000 0.73630  0.14710  0.55250  Biso   1.000  H
  C339     1.0000 0.73142  0.18450  0.59941  Biso   1.000  C
  H162     1.0000 0.75180  0.17340  0.61450  Biso   1.000  H
  C340     1.0000 0.71020  0.21690  0.61402  Biso   1.000  C
  C341     1.0000 0.67980  0.23352  0.59153  Biso   1.000  C
  H163     1.0000 0.66560  0.25520  0.60130  Biso   1.000  H
  C342     1.0000 0.67048  0.21777  0.55441  Biso   1.000  C
  H164     1.0000 0.65010  0.22890  0.53940  Biso   1.000  H
  C343     1.0000 0.58408  0.08183  0.50120  Biso   1.000  C
  C344     1.0000 0.60131  0.09323  0.53710  Biso   1.000  C
  H165     1.0000 0.59720  0.07810  0.55980  Biso   1.000  H
  C345     1.0000 0.62475  0.12728  0.53883  Biso   1.000  C
  H166     1.0000 0.63630  0.13490  0.56280  Biso   1.000  H
  C346     1.0000 0.63096  0.14991  0.50477  Biso   1.000  C
  C347     1.0000 0.61373  0.13851  0.46893  Biso   1.000  C
  C348     1.0000 0.59029  0.10447  0.46710  Biso   1.000  C
  H167     1.0000 0.57880  0.09680  0.44320  Biso   1.000  H
  C349     1.0000 0.71090  0.21891  0.39470  Biso   1.000  C
  C350     1.0000 0.68120  0.19013  0.39578  Biso   1.000  C
  H168     1.0000 0.67050  0.18040  0.37220  Biso   1.000  H
  C351     1.0000 0.66759  0.17583  0.43212  Biso   1.000  C
  C352     1.0000 0.68366  0.19030  0.46739  Biso   1.000  C
  C353     1.0000 0.71335  0.21908  0.46632  Biso   1.000  C
  H169     1.0000 0.72410  0.22880  0.48990  Biso   1.000  H
  C354     1.0000 0.72698  0.23339  0.42997  Biso   1.000  C
  H170     1.0000 0.74690  0.25260  0.42920  Biso   1.000  H
  O113     1.0000 0.69470  0.21440  0.32250  Biso   1.000  O
  C355     1.0000 0.71020  0.23040  0.34810  Biso   1.000  C
  O114     1.0000 0.74970  0.25170  0.35170  Biso   1.000  O
  C356     1.0000 0.55670  0.05050  0.50130  Biso   1.000  C
  O115     1.0000 0.54530  0.03940  0.53320  Biso   1.000  O
  O116     1.0000 0.53990  0.04260  0.46870  Biso   1.000  O
  O117     1.0000 0.63220  0.14880  0.43500  Biso   1.000  O
  C357     1.0000 0.72910  0.22570  0.65910  Biso   1.000  C
  O118     1.0000 0.74880  0.19920  0.67270  Biso   1.000  O
  O119     1.0000 0.71370  0.25620  0.67120  Biso   1.000  O
  N17      1.0000 0.67150  0.17210  0.50620  Biso   1.000  N
  Zn18     1.0000 0.27192  0.69688  0.22677  Biso   1.000  Zn
  C358     1.0000 0.19167  0.68538  0.03980  Biso   1.000  C
  C359     1.0000 0.22214  0.66875  0.06230  Biso   1.000  C
  H171     1.0000 0.23630  0.64710  0.05250  Biso   1.000  H
  C360     1.0000 0.23142  0.68450  0.09941  Biso   1.000  C
  H172     1.0000 0.25180  0.67340  0.11450  Biso   1.000  H
  C361     1.0000 0.21020  0.71690  0.11402  Biso   1.000  C
  C362     1.0000 0.17980  0.73352  0.09153  Biso   1.000  C
  H173     1.0000 0.16560  0.75520  0.10130  Biso   1.000  H
  C363     1.0000 0.17048  0.71777  0.05441  Biso   1.000  C
  H174     1.0000 0.15010  0.72890  0.03940  Biso   1.000  H
  C364     1.0000 0.08408  0.58183  0.00120  Biso   1.000  C
  C365     1.0000 0.10131  0.59323  0.03710  Biso   1.000  C
  H175     1.0000 0.09720  0.57810  0.05980  Biso   1.000  H
  C366     1.0000 0.12475  0.62728  0.03883  Biso   1.000  C
  H176     1.0000 0.13630  0.63490  0.06280  Biso   1.000  H
  C367     1.0000 0.13096  0.64991  0.00477  Biso   1.000  C
  C368     1.0000 0.11373  0.63851  0.96893  Biso   1.000  C
  C369     1.0000 0.09029  0.60447  0.96710  Biso   1.000  C
  H177     1.0000 0.07880  0.59680  0.94320  Biso   1.000  H
  C370     1.0000 0.21090  0.71891  0.89470  Biso   1.000  C
  C371     1.0000 0.18120  0.69013  0.89578  Biso   1.000  C
  H178     1.0000 0.17050  0.68040  0.87220  Biso   1.000  H
  C372     1.0000 0.16759  0.67583  0.93212  Biso   1.000  C
  C373     1.0000 0.18366  0.69030  0.96739  Biso   1.000  C
  C374     1.0000 0.21335  0.71908  0.96632  Biso   1.000  C
  H179     1.0000 0.22410  0.72880  0.98990  Biso   1.000  H
  C375     1.0000 0.22698  0.73339  0.92997  Biso   1.000  C
  H180     1.0000 0.24690  0.75260  0.92920  Biso   1.000  H
  O120     1.0000 0.19470  0.71440  0.82250  Biso   1.000  O
  C376     1.0000 0.21020  0.73040  0.84810  Biso   1.000  C
  O121     1.0000 0.24970  0.75170  0.85170  Biso   1.000  O
  C377     1.0000 0.05670  0.55050  0.00130  Biso   1.000  C
  O122     1.0000 0.04530  0.53940  0.03320  Biso   1.000  O
  O123     1.0000 0.03990  0.54260  0.96870  Biso   1.000  O
  O124     1.0000 0.13220  0.64880  0.93500  Biso   1.000  O
  C378     1.0000 0.22910  0.72570  0.15910  Biso   1.000  C
  O125     1.0000 0.24880  0.69920  0.17270  Biso   1.000  O
  O126     1.0000 0.21370  0.75620  0.17120  Biso   1.000  O
  N18      1.0000 0.17150  0.67210  0.00620  Biso   1.000  N
  Zn19     1.0000 0.22808  0.19688  0.27323  Biso   1.000  Zn
  C379     1.0000 0.30833  0.18538  0.46020  Biso   1.000  C
  C380     1.0000 0.27786  0.16875  0.43770  Biso   1.000  C
  H181     1.0000 0.26370  0.14710  0.44750  Biso   1.000  H
  C381     1.0000 0.26858  0.18450  0.40059  Biso   1.000  C
  H182     1.0000 0.24820  0.17340  0.38550  Biso   1.000  H
  C382     1.0000 0.28980  0.21690  0.38598  Biso   1.000  C
  C383     1.0000 0.32020  0.23352  0.40847  Biso   1.000  C
  H183     1.0000 0.33440  0.25520  0.39870  Biso   1.000  H
  C384     1.0000 0.32952  0.21777  0.44559  Biso   1.000  C
  H184     1.0000 0.34990  0.22890  0.46060  Biso   1.000  H
  C385     1.0000 0.41592  0.08183  0.49880  Biso   1.000  C
  C386     1.0000 0.39869  0.09323  0.46290  Biso   1.000  C
  H185     1.0000 0.40280  0.07810  0.44020  Biso   1.000  H
  C387     1.0000 0.37525  0.12728  0.46117  Biso   1.000  C
  H186     1.0000 0.36370  0.13490  0.43720  Biso   1.000  H
  C388     1.0000 0.36904  0.14991  0.49523  Biso   1.000  C
  C389     1.0000 0.38627  0.13851  0.53107  Biso   1.000  C
  C390     1.0000 0.40971  0.10447  0.53290  Biso   1.000  C
  H187     1.0000 0.42120  0.09680  0.55680  Biso   1.000  H
  C391     1.0000 0.28910  0.21891  0.60530  Biso   1.000  C
  C392     1.0000 0.31880  0.19013  0.60422  Biso   1.000  C
  H188     1.0000 0.32950  0.18040  0.62780  Biso   1.000  H
  C393     1.0000 0.33241  0.17583  0.56788  Biso   1.000  C
  C394     1.0000 0.31634  0.19030  0.53261  Biso   1.000  C
  C395     1.0000 0.28665  0.21908  0.53368  Biso   1.000  C
  H189     1.0000 0.27590  0.22880  0.51010  Biso   1.000  H
  C396     1.0000 0.27302  0.23339  0.57003  Biso   1.000  C
  H190     1.0000 0.25310  0.25260  0.57080  Biso   1.000  H
  O127     1.0000 0.30530  0.21440  0.67750  Biso   1.000  O
  C397     1.0000 0.28980  0.23040  0.65190  Biso   1.000  C
  O128     1.0000 0.25030  0.25170  0.64830  Biso   1.000  O
  C398     1.0000 0.44330  0.05050  0.49870  Biso   1.000  C
  O129     1.0000 0.45470  0.03940  0.46680  Biso   1.000  O
  O130     1.0000 0.46010  0.04260  0.53130  Biso   1.000  O
  O131     1.0000 0.36780  0.14880  0.56500  Biso   1.000  O
  C399     1.0000 0.27090  0.22570  0.34090  Biso   1.000  C
  O132     1.0000 0.25120  0.19920  0.32730  Biso   1.000  O
  O133     1.0000 0.28630  0.25620  0.32880  Biso   1.000  O
  N19      1.0000 0.32850  0.17210  0.49380  Biso   1.000  N
  Zn20     1.0000 0.72808  0.69688  0.77323  Biso   1.000  Zn
  C400     1.0000 0.80833  0.68538  0.96020  Biso   1.000  C
  C401     1.0000 0.77786  0.66875  0.93770  Biso   1.000  C
  H191     1.0000 0.76370  0.64710  0.94750  Biso   1.000  H
  C402     1.0000 0.76858  0.68450  0.90059  Biso   1.000  C
  H192     1.0000 0.74820  0.67340  0.88550  Biso   1.000  H
  C403     1.0000 0.78980  0.71690  0.88598  Biso   1.000  C
  C404     1.0000 0.82020  0.73352  0.90847  Biso   1.000  C
  H193     1.0000 0.83440  0.75520  0.89870  Biso   1.000  H
  C405     1.0000 0.82952  0.71777  0.94559  Biso   1.000  C
  H194     1.0000 0.84990  0.72890  0.96060  Biso   1.000  H
  C406     1.0000 0.91592  0.58183  0.99880  Biso   1.000  C
  C407     1.0000 0.89869  0.59323  0.96290  Biso   1.000  C
  H195     1.0000 0.90280  0.57810  0.94020  Biso   1.000  H
  C408     1.0000 0.87525  0.62728  0.96117  Biso   1.000  C
  H196     1.0000 0.86370  0.63490  0.93720  Biso   1.000  H
  C409     1.0000 0.86904  0.64991  0.99523  Biso   1.000  C
  C410     1.0000 0.88627  0.63851  0.03107  Biso   1.000  C
  C411     1.0000 0.90971  0.60447  0.03290  Biso   1.000  C
  H197     1.0000 0.92120  0.59680  0.05680  Biso   1.000  H
  C412     1.0000 0.78910  0.71891  0.10530  Biso   1.000  C
  C413     1.0000 0.81880  0.69013  0.10422  Biso   1.000  C
  H198     1.0000 0.82950  0.68040  0.12780  Biso   1.000  H
  C414     1.0000 0.83241  0.67583  0.06788  Biso   1.000  C
  C415     1.0000 0.81634  0.69030  0.03261  Biso   1.000  C
  C416     1.0000 0.78665  0.71908  0.03368  Biso   1.000  C
  H199     1.0000 0.77590  0.72880  0.01010  Biso   1.000  H
  C417     1.0000 0.77302  0.73339  0.07003  Biso   1.000  C
  H200     1.0000 0.75310  0.75260  0.07080  Biso   1.000  H
  O134     1.0000 0.80530  0.71440  0.17750  Biso   1.000  O
  C418     1.0000 0.78980  0.73040  0.15190  Biso   1.000  C
  O135     1.0000 0.75030  0.75170  0.14830  Biso   1.000  O
  C419     1.0000 0.94330  0.55050  0.99870  Biso   1.000  C
  O136     1.0000 0.95470  0.53940  0.96680  Biso   1.000  O
  O137     1.0000 0.96010  0.54260  0.03130  Biso   1.000  O
  O138     1.0000 0.86780  0.64880  0.06500  Biso   1.000  O
  C420     1.0000 0.77090  0.72570  0.84090  Biso   1.000  C
  O139     1.0000 0.75120  0.69920  0.82730  Biso   1.000  O
  O140     1.0000 0.78630  0.75620  0.82880  Biso   1.000  O
  N20      1.0000 0.82850  0.67210  0.99380  Biso   1.000  N
  Zn21     1.0000 0.77192  0.80312  0.27323  Biso   1.000  Zn
  C421     1.0000 0.69167  0.81462  0.46020  Biso   1.000  C
  C422     1.0000 0.72214  0.83125  0.43770  Biso   1.000  C
  H201     1.0000 0.73630  0.85290  0.44750  Biso   1.000  H
  C423     1.0000 0.73142  0.81550  0.40059  Biso   1.000  C
  H202     1.0000 0.75180  0.82660  0.38550  Biso   1.000  H
  C424     1.0000 0.71020  0.78310  0.38598  Biso   1.000  C
  C425     1.0000 0.67980  0.76648  0.40847  Biso   1.000  C
  H203     1.0000 0.66560  0.74480  0.39870  Biso   1.000  H
  C426     1.0000 0.67048  0.78223  0.44559  Biso   1.000  C
  H204     1.0000 0.65010  0.77110  0.46060  Biso   1.000  H
  C427     1.0000 0.58408  0.91817  0.49880  Biso   1.000  C
  C428     1.0000 0.60131  0.90677  0.46290  Biso   1.000  C
  H205     1.0000 0.59720  0.92190  0.44020  Biso   1.000  H
  C429     1.0000 0.62475  0.87272  0.46117  Biso   1.000  C
  H206     1.0000 0.63630  0.86510  0.43720  Biso   1.000  H
  C430     1.0000 0.63096  0.85009  0.49523  Biso   1.000  C
  C431     1.0000 0.61373  0.86149  0.53107  Biso   1.000  C
  C432     1.0000 0.59029  0.89553  0.53290  Biso   1.000  C
  H207     1.0000 0.57880  0.90320  0.55680  Biso   1.000  H
  C433     1.0000 0.71090  0.78109  0.60530  Biso   1.000  C
  C434     1.0000 0.68120  0.80987  0.60422  Biso   1.000  C
  H208     1.0000 0.67050  0.81960  0.62780  Biso   1.000  H
  C435     1.0000 0.66759  0.82417  0.56788  Biso   1.000  C
  C436     1.0000 0.68366  0.80970  0.53261  Biso   1.000  C
  C437     1.0000 0.71335  0.78092  0.53368  Biso   1.000  C
  H209     1.0000 0.72410  0.77120  0.51010  Biso   1.000  H
  C438     1.0000 0.72698  0.76661  0.57003  Biso   1.000  C
  H210     1.0000 0.74690  0.74740  0.57080  Biso   1.000  H
  O141     1.0000 0.69470  0.78560  0.67750  Biso   1.000  O
  C439     1.0000 0.71020  0.76960  0.65190  Biso   1.000  C
  O142     1.0000 0.74970  0.74830  0.64830  Biso   1.000  O
  C440     1.0000 0.55670  0.94950  0.49870  Biso   1.000  C
  O143     1.0000 0.54530  0.96060  0.46680  Biso   1.000  O
  O144     1.0000 0.53990  0.95740  0.53130  Biso   1.000  O
  O145     1.0000 0.63220  0.85120  0.56500  Biso   1.000  O
  C441     1.0000 0.72910  0.77430  0.34090  Biso   1.000  C
  O146     1.0000 0.74880  0.80080  0.32730  Biso   1.000  O
  O147     1.0000 0.71370  0.74380  0.32880  Biso   1.000  O
  N21      1.0000 0.67150  0.82790  0.49380  Biso   1.000  N
  Zn22     1.0000 0.27192  0.30312  0.77323  Biso   1.000  Zn
  C442     1.0000 0.19167  0.31462  0.96020  Biso   1.000  C
  C443     1.0000 0.22214  0.33125  0.93770  Biso   1.000  C
  H211     1.0000 0.23630  0.35290  0.94750  Biso   1.000  H
  C444     1.0000 0.23142  0.31550  0.90059  Biso   1.000  C
  H212     1.0000 0.25180  0.32660  0.88550  Biso   1.000  H
  C445     1.0000 0.21020  0.28310  0.88598  Biso   1.000  C
  C446     1.0000 0.17980  0.26648  0.90847  Biso   1.000  C
  H213     1.0000 0.16560  0.24480  0.89870  Biso   1.000  H
  C447     1.0000 0.17048  0.28223  0.94559  Biso   1.000  C
  H214     1.0000 0.15010  0.27110  0.96060  Biso   1.000  H
  C448     1.0000 0.08408  0.41817  0.99880  Biso   1.000  C
  C449     1.0000 0.10131  0.40677  0.96290  Biso   1.000  C
  H215     1.0000 0.09720  0.42190  0.94020  Biso   1.000  H
  C450     1.0000 0.12475  0.37272  0.96117  Biso   1.000  C
  H216     1.0000 0.13630  0.36510  0.93720  Biso   1.000  H
  C451     1.0000 0.13096  0.35009  0.99523  Biso   1.000  C
  C452     1.0000 0.11373  0.36149  0.03107  Biso   1.000  C
  C453     1.0000 0.09029  0.39553  0.03290  Biso   1.000  C
  H217     1.0000 0.07880  0.40320  0.05680  Biso   1.000  H
  C454     1.0000 0.21090  0.28109  0.10530  Biso   1.000  C
  C455     1.0000 0.18120  0.30987  0.10422  Biso   1.000  C
  H218     1.0000 0.17050  0.31960  0.12780  Biso   1.000  H
  C456     1.0000 0.16759  0.32417  0.06788  Biso   1.000  C
  C457     1.0000 0.18366  0.30970  0.03261  Biso   1.000  C
  C458     1.0000 0.21335  0.28092  0.03368  Biso   1.000  C
  H219     1.0000 0.22410  0.27120  0.01010  Biso   1.000  H
  C459     1.0000 0.22698  0.26661  0.07003  Biso   1.000  C
  H220     1.0000 0.24690  0.24740  0.07080  Biso   1.000  H
  O148     1.0000 0.19470  0.28560  0.17750  Biso   1.000  O
  C460     1.0000 0.21020  0.26960  0.15190  Biso   1.000  C
  O149     1.0000 0.24970  0.24830  0.14830  Biso   1.000  O
  C461     1.0000 0.05670  0.44950  0.99870  Biso   1.000  C
  O150     1.0000 0.04530  0.46060  0.96680  Biso   1.000  O
  O151     1.0000 0.03990  0.45740  0.03130  Biso   1.000  O
  O152     1.0000 0.13220  0.35120  0.06500  Biso   1.000  O
  C462     1.0000 0.22910  0.27430  0.84090  Biso   1.000  C
  O153     1.0000 0.24880  0.30080  0.82730  Biso   1.000  O
  O154     1.0000 0.21370  0.24380  0.82880  Biso   1.000  O
  N22      1.0000 0.17150  0.32790  0.99380  Biso   1.000  N
  Zn23     1.0000 0.22808  0.80312  0.72677  Biso   1.000  Zn
  C463     1.0000 0.30833  0.81462  0.53980  Biso   1.000  C
  C464     1.0000 0.27786  0.83125  0.56230  Biso   1.000  C
  H221     1.0000 0.26370  0.85290  0.55250  Biso   1.000  H
  C465     1.0000 0.26858  0.81550  0.59941  Biso   1.000  C
  H222     1.0000 0.24820  0.82660  0.61450  Biso   1.000  H
  C466     1.0000 0.28980  0.78310  0.61402  Biso   1.000  C
  C467     1.0000 0.32020  0.76648  0.59153  Biso   1.000  C
  H223     1.0000 0.33440  0.74480  0.60130  Biso   1.000  H
  C468     1.0000 0.32952  0.78223  0.55441  Biso   1.000  C
  H224     1.0000 0.34990  0.77110  0.53940  Biso   1.000  H
  C469     1.0000 0.41592  0.91817  0.50120  Biso   1.000  C
  C470     1.0000 0.39869  0.90677  0.53710  Biso   1.000  C
  H225     1.0000 0.40280  0.92190  0.55980  Biso   1.000  H
  C471     1.0000 0.37525  0.87272  0.53883  Biso   1.000  C
  H226     1.0000 0.36370  0.86510  0.56280  Biso   1.000  H
  C472     1.0000 0.36904  0.85009  0.50477  Biso   1.000  C
  C473     1.0000 0.38627  0.86149  0.46893  Biso   1.000  C
  C474     1.0000 0.40971  0.89553  0.46710  Biso   1.000  C
  H227     1.0000 0.42120  0.90320  0.44320  Biso   1.000  H
  C475     1.0000 0.28910  0.78109  0.39470  Biso   1.000  C
  C476     1.0000 0.31880  0.80987  0.39578  Biso   1.000  C
  H228     1.0000 0.32950  0.81960  0.37220  Biso   1.000  H
  C477     1.0000 0.33241  0.82417  0.43212  Biso   1.000  C
  C478     1.0000 0.31634  0.80970  0.46739  Biso   1.000  C
  C479     1.0000 0.28665  0.78092  0.46632  Biso   1.000  C
  H229     1.0000 0.27590  0.77120  0.48990  Biso   1.000  H
  C480     1.0000 0.27302  0.76661  0.42997  Biso   1.000  C
  H230     1.0000 0.25310  0.74740  0.42920  Biso   1.000  H
  O155     1.0000 0.30530  0.78560  0.32250  Biso   1.000  O
  C481     1.0000 0.28980  0.76960  0.34810  Biso   1.000  C
  O156     1.0000 0.25030  0.74830  0.35170  Biso   1.000  O
  C482     1.0000 0.44330  0.94950  0.50130  Biso   1.000  C
  O157     1.0000 0.45470  0.96060  0.53320  Biso   1.000  O
  O158     1.0000 0.46010  0.95740  0.46870  Biso   1.000  O
  O159     1.0000 0.36780  0.85120  0.43500  Biso   1.000  O
  C483     1.0000 0.27090  0.77430  0.65910  Biso   1.000  C
  O160     1.0000 0.25120  0.80080  0.67270  Biso   1.000  O
  O161     1.0000 0.28630  0.74380  0.67120  Biso   1.000  O
  N23      1.0000 0.32850  0.82790  0.50620  Biso   1.000  N
  Zn24     1.0000 0.72808  0.30312  0.22677  Biso   1.000  Zn
  C484     1.0000 0.80833  0.31462  0.03980  Biso   1.000  C
  C485     1.0000 0.77786  0.33125  0.06230  Biso   1.000  C
  H231     1.0000 0.76370  0.35290  0.05250  Biso   1.000  H
  C486     1.0000 0.76858  0.31550  0.09941  Biso   1.000  C
  H232     1.0000 0.74820  0.32660  0.11450  Biso   1.000  H
  C487     1.0000 0.78980  0.28310  0.11402  Biso   1.000  C
  C488     1.0000 0.82020  0.26648  0.09153  Biso   1.000  C
  H233     1.0000 0.83440  0.24480  0.10130  Biso   1.000  H
  C489     1.0000 0.82952  0.28223  0.05441  Biso   1.000  C
  H234     1.0000 0.84990  0.27110  0.03940  Biso   1.000  H
  C490     1.0000 0.91592  0.41817  0.00120  Biso   1.000  C
  C491     1.0000 0.89869  0.40677  0.03710  Biso   1.000  C
  H235     1.0000 0.90280  0.42190  0.05980  Biso   1.000  H
  C492     1.0000 0.87525  0.37272  0.03883  Biso   1.000  C
  H236     1.0000 0.86370  0.36510  0.06280  Biso   1.000  H
  C493     1.0000 0.86904  0.35009  0.00477  Biso   1.000  C
  C494     1.0000 0.88627  0.36149  0.96893  Biso   1.000  C
  C495     1.0000 0.90971  0.39553  0.96710  Biso   1.000  C
  H237     1.0000 0.92120  0.40320  0.94320  Biso   1.000  H
  C496     1.0000 0.78910  0.28109  0.89470  Biso   1.000  C
  C497     1.0000 0.81880  0.30987  0.89578  Biso   1.000  C
  H238     1.0000 0.82950  0.31960  0.87220  Biso   1.000  H
  C498     1.0000 0.83241  0.32417  0.93212  Biso   1.000  C
  C499     1.0000 0.81634  0.30970  0.96739  Biso   1.000  C
  C500     1.0000 0.78665  0.28092  0.96632  Biso   1.000  C
  H239     1.0000 0.77590  0.27120  0.98990  Biso   1.000  H
  C501     1.0000 0.77302  0.26661  0.92997  Biso   1.000  C
  H240     1.0000 0.75310  0.24740  0.92920  Biso   1.000  H
  O162     1.0000 0.80530  0.28560  0.82250  Biso   1.000  O
  C502     1.0000 0.78980  0.26960  0.84810  Biso   1.000  C
  O163     1.0000 0.75030  0.24830  0.85170  Biso   1.000  O
  C503     1.0000 0.94330  0.44950  0.00130  Biso   1.000  C
  O164     1.0000 0.95470  0.46060  0.03320  Biso   1.000  O
  O165     1.0000 0.96010  0.45740  0.96870  Biso   1.000  O
  O166     1.0000 0.86780  0.35120  0.93500  Biso   1.000  O
  C504     1.0000 0.77090  0.27430  0.15910  Biso   1.000  C
  O167     1.0000 0.75120  0.30080  0.17270  Biso   1.000  O
  O168     1.0000 0.78630  0.24380  0.17120  Biso   1.000  O
  N24      1.0000 0.82850  0.32790  0.00620  Biso   1.000  N
  Zn25     1.0000 0.72341  0.72341  0.27659  Biso   1.000  Zn
  O169     1.0000 0.75533  0.75533  0.24467  Biso   1.000  O
  Zn26     1.0000 0.22341  0.22341  0.77659  Biso   1.000  Zn
  O170     1.0000 0.25533  0.25533  0.74467  Biso   1.000  O
  Zn27     1.0000 0.27659  0.27659  0.27659  Biso   1.000  Zn
  O171     1.0000 0.24467  0.24467  0.24467  Biso   1.000  O
  Zn28     1.0000 0.77659  0.77659  0.77659  Biso   1.000  Zn
  O172     1.0000 0.74467  0.74467  0.74467  Biso   1.000  O
  Zn29     1.0000 0.27659  0.72341  0.72341  Biso   1.000  Zn
  O173     1.0000 0.24467  0.75533  0.75533  Biso   1.000  O
  Zn30     1.0000 0.77659  0.22341  0.22341  Biso   1.000  Zn
  O174     1.0000 0.74467  0.25533  0.25533  Biso   1.000  O
  Zn31     1.0000 0.72341  0.27659  0.72341  Biso   1.000  Zn
  O175     1.0000 0.75533  0.24467  0.75533  Biso   1.000  O
  Zn32     1.0000 0.22341  0.77659  0.22341  Biso   1.000  Zn
  O176     1.0000 0.25533  0.74467  0.25533  Biso   1.000  O
  Zn33     1.0000 0.54384  0.50000  0.00000  Biso   1.000  Zn
  Zn34     1.0000 0.04384  0.00000  0.50000  Biso   1.000  Zn
  Zn35     1.0000 0.45616  0.50000  0.00000  Biso   1.000  Zn
  Zn36     1.0000 0.95616  0.00000  0.50000  Biso   1.000  Zn
  Zn37     1.0000 0.00000  0.54384  0.50000  Biso   1.000  Zn
  Zn38     1.0000 0.50000  0.04384  0.00000  Biso   1.000  Zn
  Zn39     1.0000 0.00000  0.45616  0.50000  Biso   1.000  Zn
  Zn40     1.0000 0.50000  0.95616  0.00000  Biso   1.000  Zn
  Zn41     1.0000 0.50000  0.00000  0.54384  Biso   1.000  Zn
  Zn42     1.0000 0.00000  0.50000  0.04384  Biso   1.000  Zn
  Zn43     1.0000 0.50000  0.00000  0.45616  Biso   1.000  Zn
  Zn44     1.0000 0.00000  0.50000  0.95616  Biso   1.000  Zn
